MODEL 1
REMARK VINA RESULT:      -8.7      0.000      0.000
REMARK  4 active torsions:
REMARK  status: ('A' for Active; 'I' for Inactive)
REMARK    1  A    between atoms: O1_2  and  C2_3 
REMARK    2  A    between atoms: C11_14  and  N3_15 
REMARK       I    between atoms: N3_15  and  C12_16 
REMARK       I    between atoms: C12_16  and  N4_18 
REMARK    3  A    between atoms: N4_18  and  C13_19 
REMARK    4  A    between atoms: C21_27  and  O3_28 
ROOT
HETATM    1  C2  UNL     1      25.842  -0.744  52.768  1.00  0.00     0.079 C 
HETATM    2  C3  UNL     1      24.663  -0.518  53.270  1.00  0.00     0.050 C 
HETATM    3  C4  UNL     1      23.304  -0.438  53.749  1.00  0.00     0.009 A 
HETATM    4  C5  UNL     1      22.793  -1.124  54.794  1.00  0.00     0.131 A 
HETATM    5  N1  UNL     1      21.508  -0.879  55.078  1.00  0.00    -0.253 NA
HETATM    6  C6  UNL     1      20.775  -0.022  54.383  1.00  0.00     0.232 A 
HETATM    7  N2  UNL     1      21.281   0.674  53.327  1.00  0.00    -0.245 NA
HETATM    8  C7  UNL     1      22.592   0.478  52.976  1.00  0.00     0.056 A 
HETATM    9  C8  UNL     1      22.616   1.412  51.871  1.00  0.00     0.075 C 
HETATM   10  C9  UNL     1      23.307   2.142  51.053  1.00  0.00    -0.012 C 
HETATM   11  C10 UNL     1      24.325   2.851  50.282  1.00  0.00     0.026 C 
HETATM   12  C11 UNL     1      25.635   2.962  50.239  1.00  0.00     0.035 C 
HETATM   13  C19 UNL     1      26.689   2.314  51.029  1.00  0.00     0.028 C 
HETATM   14  C20 UNL     1      26.782   1.419  52.028  1.00  0.00     0.014 C 
HETATM   15  C21 UNL     1      26.738   0.431  53.119  1.00  0.00     0.200 C 
ENDROOT
BRANCH  12  16
HETATM   16  N3  UNL     1      26.288   3.788  49.308  1.00  0.00    -0.309 N 
HETATM   17  C12 UNL     1      26.082   5.193  49.397  1.00  0.00     0.321 C 
HETATM   18  O2  UNL     1      25.294   5.418  50.378  1.00  0.00    -0.247 OA
HETATM   19  N4  UNL     1      26.711   6.110  48.479  1.00  0.00    -0.338 N 
HETATM   20  H11 UNL     1      27.313   5.648  47.772  1.00  0.00     0.164 HD
HETATM   21  H10 UNL     1      26.917   3.380  48.558  1.00  0.00     0.170 HD
BRANCH  19  22
HETATM   22  C13 UNL     1      26.393   7.518  48.703  1.00  0.00     0.086 C 
HETATM   23  C14 UNL     1      27.612   8.316  49.145  1.00  0.00     0.025 C 
HETATM   24  C15 UNL     1      27.458   9.713  48.539  1.00  0.00     0.002 C 
HETATM   25  C16 UNL     1      27.779   9.551  47.058  1.00  0.00     0.000 C 
HETATM   26  C17 UNL     1      26.765   8.618  46.470  1.00  0.00     0.002 C 
HETATM   27  C18 UNL     1      25.761   8.095  47.477  1.00  0.00     0.025 C 
ENDBRANCH  19  22
ENDBRANCH  12  16
BRANCH  15  28
HETATM   28  O3  UNL     1      26.359   1.061  54.295  1.00  0.00    -0.380 OA
HETATM   29  C22 UNL     1      26.846   0.328  55.388  1.00  0.00     0.202 C 
ENDBRANCH  15  28
BRANCH   1  30
HETATM   30  O1  UNL     1      26.647  -1.643  52.015  1.00  0.00    -0.357 OA
HETATM   31  C1  UNL     1      27.541  -2.457  52.747  1.00  0.00     0.209 C 
ENDBRANCH   1  30
TORSDOF 4
ENDMDL
MODEL 2
REMARK VINA RESULT:      -8.5      2.606      9.716
REMARK  4 active torsions:
REMARK  status: ('A' for Active; 'I' for Inactive)
REMARK    1  A    between atoms: O1_2  and  C2_3 
REMARK    2  A    between atoms: C11_14  and  N3_15 
REMARK       I    between atoms: N3_15  and  C12_16 
REMARK       I    between atoms: C12_16  and  N4_18 
REMARK    3  A    between atoms: N4_18  and  C13_19 
REMARK    4  A    between atoms: C21_27  and  O3_28 
ROOT
HETATM    1  C2  UNL     1      25.163   7.689  47.336  1.00  0.00     0.079 C 
HETATM    2  C3  UNL     1      26.411   7.726  47.704  1.00  0.00     0.050 C 
HETATM    3  C4  UNL     1      27.836   7.768  47.922  1.00  0.00     0.009 A 
HETATM    4  C5  UNL     1      28.627   8.854  47.777  1.00  0.00     0.131 A 
HETATM    5  N1  UNL     1      29.923   8.671  48.055  1.00  0.00    -0.253 NA
HETATM    6  C6  UNL     1      30.411   7.503  48.444  1.00  0.00     0.232 A 
HETATM    7  N2  UNL     1      29.622   6.402  48.593  1.00  0.00    -0.245 NA
HETATM    8  C7  UNL     1      28.281   6.511  48.329  1.00  0.00     0.056 A 
HETATM    9  C8  UNL     1      27.933   5.141  48.638  1.00  0.00     0.075 C 
HETATM   10  C9  UNL     1      27.020   4.271  48.938  1.00  0.00    -0.012 C 
HETATM   11  C10 UNL     1      25.803   3.531  49.259  1.00  0.00     0.026 C 
HETATM   12  C11 UNL     1      24.516   3.759  49.410  1.00  0.00     0.035 C 
HETATM   13  C19 UNL     1      23.727   4.988  49.267  1.00  0.00     0.028 C 
HETATM   14  C20 UNL     1      23.934   6.278  48.950  1.00  0.00     0.014 C 
HETATM   15  C21 UNL     1      24.302   7.657  48.586  1.00  0.00     0.200 C 
ENDROOT
BRANCH  12  16
HETATM   16  N3  UNL     1      23.607   2.739  49.741  1.00  0.00    -0.309 N 
HETATM   17  C12 UNL     1      23.406   2.439  51.117  1.00  0.00     0.321 C 
HETATM   18  O2  UNL     1      24.145   3.221  51.806  1.00  0.00    -0.247 OA
HETATM   19  N4  UNL     1      22.494   1.405  51.541  1.00  0.00    -0.338 N 
HETATM   20  H11 UNL     1      22.014   0.923  50.758  1.00  0.00     0.164 HD
HETATM   21  H10 UNL     1      23.084   2.205  48.988  1.00  0.00     0.170 HD
BRANCH  19  22
HETATM   22  C13 UNL     1      22.406   1.219  52.987  1.00  0.00     0.086 C 
HETATM   23  C14 UNL     1      20.969   1.029  53.452  1.00  0.00     0.025 C 
HETATM   24  C15 UNL     1      21.020   0.053  54.630  1.00  0.00     0.002 C 
HETATM   25  C16 UNL     1      21.274  -1.316  54.011  1.00  0.00     0.000 C 
HETATM   26  C17 UNL     1      22.603  -1.268  53.322  1.00  0.00     0.002 C 
HETATM   27  C18 UNL     1      23.284   0.083  53.405  1.00  0.00     0.025 C 
ENDBRANCH  19  22
ENDBRANCH  12  16
BRANCH  15  28
HETATM   28  O3  UNL     1      24.909   8.272  49.671  1.00  0.00    -0.380 OA
HETATM   29  C22 UNL     1      24.107   8.097  50.809  1.00  0.00     0.202 C 
ENDBRANCH  15  28
BRANCH   1  30
HETATM   30  O1  UNL     1      24.262   7.662  46.234  1.00  0.00    -0.357 OA
HETATM   31  C1  UNL     1      23.349   8.736  46.138  1.00  0.00     0.209 C 
ENDBRANCH   1  30
TORSDOF 4
ENDMDL
MODEL 3
REMARK VINA RESULT:      -8.4      4.001      9.263
REMARK  4 active torsions:
REMARK  status: ('A' for Active; 'I' for Inactive)
REMARK    1  A    between atoms: O1_2  and  C2_3 
REMARK    2  A    between atoms: C11_14  and  N3_15 
REMARK       I    between atoms: N3_15  and  C12_16 
REMARK       I    between atoms: C12_16  and  N4_18 
REMARK    3  A    between atoms: N4_18  and  C13_19 
REMARK    4  A    between atoms: C21_27  and  O3_28 
ROOT
HETATM    1  C2  UNL     1      24.044   2.022  51.242  1.00  0.00     0.079 C 
HETATM    2  C3  UNL     1      25.096   1.752  51.959  1.00  0.00     0.050 C 
HETATM    3  C4  UNL     1      26.329   1.359  52.596  1.00  0.00     0.009 A 
HETATM    4  C5  UNL     1      27.541   1.918  52.387  1.00  0.00     0.131 A 
HETATM    5  N1  UNL     1      28.549   1.408  53.105  1.00  0.00    -0.253 NA
HETATM    6  C6  UNL     1      28.380   0.417  53.967  1.00  0.00     0.232 A 
HETATM    7  N2  UNL     1      27.162  -0.154  54.185  1.00  0.00    -0.245 NA
HETATM    8  C7  UNL     1      26.079   0.316  53.487  1.00  0.00     0.056 A 
HETATM    9  C8  UNL     1      25.100  -0.574  54.071  1.00  0.00     0.075 C 
HETATM   10  C9  UNL     1      23.855  -0.844  54.315  1.00  0.00    -0.012 C 
HETATM   11  C10 UNL     1      22.401  -0.887  54.441  1.00  0.00     0.026 C 
HETATM   12  C11 UNL     1      21.356  -0.166  54.097  1.00  0.00     0.035 C 
HETATM   13  C19 UNL     1      21.250   1.087  53.341  1.00  0.00     0.028 C 
HETATM   14  C20 UNL     1      22.072   1.958  52.729  1.00  0.00     0.014 C 
HETATM   15  C21 UNL     1      23.081   2.825  52.099  1.00  0.00     0.200 C 
ENDROOT
BRANCH  12  16
HETATM   16  N3  UNL     1      20.042  -0.551  54.415  1.00  0.00    -0.309 N 
HETATM   17  C12 UNL     1      19.131  -0.776  53.346  1.00  0.00     0.321 C 
HETATM   18  O2  UNL     1      19.750  -0.569  52.246  1.00  0.00    -0.247 OA
HETATM   19  N4  UNL     1      17.764  -1.169  53.585  1.00  0.00    -0.338 N 
HETATM   20  H11 UNL     1      17.528  -1.269  54.589  1.00  0.00     0.164 HD
HETATM   21  H10 UNL     1      19.733  -0.671  55.423  1.00  0.00     0.170 HD
BRANCH  19  22
HETATM   22  C13 UNL     1      16.959  -1.355  52.381  1.00  0.00     0.086 C 
HETATM   23  C14 UNL     1      15.901  -2.435  52.562  1.00  0.00     0.025 C 
HETATM   24  C15 UNL     1      14.685  -1.991  51.745  1.00  0.00     0.002 C 
HETATM   25  C16 UNL     1      14.045  -0.866  52.549  1.00  0.00     0.000 C 
HETATM   26  C17 UNL     1      15.039   0.251  52.644  1.00  0.00     0.002 C 
HETATM   27  C18 UNL     1      16.360  -0.049  51.966  1.00  0.00     0.025 C 
ENDBRANCH  19  22
ENDBRANCH  12  16
BRANCH  15  28
HETATM   28  O3  UNL     1      23.726   3.566  53.078  1.00  0.00    -0.380 OA
HETATM   29  C22 UNL     1      23.490   4.931  52.853  1.00  0.00     0.202 C 
ENDBRANCH  15  28
BRANCH   1  30
HETATM   30  O1  UNL     1      23.414   1.872  49.975  1.00  0.00    -0.357 OA
HETATM   31  C1  UNL     1      23.181   3.056  49.240  1.00  0.00     0.209 C 
ENDBRANCH   1  30
TORSDOF 4
ENDMDL
MODEL 4
REMARK VINA RESULT:      -8.4      2.125      3.889
REMARK  4 active torsions:
REMARK  status: ('A' for Active; 'I' for Inactive)
REMARK    1  A    between atoms: O1_2  and  C2_3 
REMARK    2  A    between atoms: C11_14  and  N3_15 
REMARK       I    between atoms: N3_15  and  C12_16 
REMARK       I    between atoms: C12_16  and  N4_18 
REMARK    3  A    between atoms: N4_18  and  C13_19 
REMARK    4  A    between atoms: C21_27  and  O3_28 
ROOT
HETATM    1  C2  UNL     1      21.852   2.776  51.808  1.00  0.00     0.079 C 
HETATM    2  C3  UNL     1      22.186   1.715  52.484  1.00  0.00     0.050 C 
HETATM    3  C4  UNL     1      22.513   0.643  53.391  1.00  0.00     0.009 A 
HETATM    4  C5  UNL     1      21.626  -0.132  54.052  1.00  0.00     0.131 A 
HETATM    5  N1  UNL     1      22.152  -1.087  54.829  1.00  0.00    -0.253 NA
HETATM    6  C6  UNL     1      23.458  -1.266  54.952  1.00  0.00     0.232 A 
HETATM    7  N2  UNL     1      24.362  -0.489  54.290  1.00  0.00    -0.245 NA
HETATM    8  C7  UNL     1      23.899   0.509  53.472  1.00  0.00     0.056 A 
HETATM    9  C8  UNL     1      25.192   0.987  53.035  1.00  0.00     0.075 C 
HETATM   10  C9  UNL     1      25.892   1.659  52.174  1.00  0.00    -0.012 C 
HETATM   11  C10 UNL     1      26.409   2.465  51.072  1.00  0.00     0.026 C 
HETATM   12  C11 UNL     1      25.957   3.101  50.014  1.00  0.00     0.035 C 
HETATM   13  C19 UNL     1      24.593   3.282  49.501  1.00  0.00     0.028 C 
HETATM   14  C20 UNL     1      23.342   2.927  49.842  1.00  0.00     0.014 C 
HETATM   15  C21 UNL     1      22.030   2.472  50.331  1.00  0.00     0.200 C 
ENDROOT
BRANCH  12  16
HETATM   16  N3  UNL     1      26.806   3.801  49.139  1.00  0.00    -0.309 N 
HETATM   17  C12 UNL     1      26.757   5.223  49.151  1.00  0.00     0.321 C 
HETATM   18  O2  UNL     1      25.891   5.584  50.019  1.00  0.00    -0.247 OA
HETATM   19  N4  UNL     1      27.591   6.017  48.282  1.00  0.00    -0.338 N 
HETATM   20  H11 UNL     1      28.213   5.455  47.672  1.00  0.00     0.164 HD
HETATM   21  H10 UNL     1      27.466   3.288  48.487  1.00  0.00     0.170 HD
BRANCH  19  22
HETATM   22  C13 UNL     1      27.415   7.461  48.413  1.00  0.00     0.086 C 
HETATM   23  C14 UNL     1      28.715   8.164  48.780  1.00  0.00     0.025 C 
HETATM   24  C15 UNL     1      28.684   9.525  48.081  1.00  0.00     0.002 C 
HETATM   25  C16 UNL     1      28.954   9.232  46.610  1.00  0.00     0.000 C 
HETATM   26  C17 UNL     1      27.842   8.366  46.103  1.00  0.00     0.002 C 
HETATM   27  C18 UNL     1      26.815   8.013  47.160  1.00  0.00     0.025 C 
ENDBRANCH  19  22
ENDBRANCH  12  16
BRANCH  15  28
HETATM   28  O3  UNL     1      21.872   1.125  50.039  1.00  0.00    -0.380 OA
HETATM   29  C22 UNL     1      21.489   0.986  48.696  1.00  0.00     0.202 C 
ENDBRANCH  15  28
BRANCH   1  30
HETATM   30  O1  UNL     1      21.390   4.121  51.882  1.00  0.00    -0.357 OA
HETATM   31  C1  UNL     1      20.205   4.421  51.172  1.00  0.00     0.209 C 
ENDBRANCH   1  30
TORSDOF 4
ENDMDL
MODEL 5
REMARK VINA RESULT:      -7.9      3.754      8.069
REMARK  4 active torsions:
REMARK  status: ('A' for Active; 'I' for Inactive)
REMARK    1  A    between atoms: O1_2  and  C2_3 
REMARK    2  A    between atoms: C11_14  and  N3_15 
REMARK       I    between atoms: N3_15  and  C12_16 
REMARK       I    between atoms: C12_16  and  N4_18 
REMARK    3  A    between atoms: N4_18  and  C13_19 
REMARK    4  A    between atoms: C21_27  and  O3_28 
ROOT
HETATM    1  C2  UNL     1      21.251   5.773  48.828  1.00  0.00     0.079 C 
HETATM    2  C3  UNL     1      20.183   5.172  49.266  1.00  0.00     0.050 C 
HETATM    3  C4  UNL     1      18.938   4.683  49.804  1.00  0.00     0.009 A 
HETATM    4  C5  UNL     1      17.727   4.786  49.215  1.00  0.00     0.131 A 
HETATM    5  N1  UNL     1      16.705   4.239  49.885  1.00  0.00    -0.253 NA
HETATM    6  C6  UNL     1      16.860   3.637  51.054  1.00  0.00     0.232 A 
HETATM    7  N2  UNL     1      18.077   3.529  51.658  1.00  0.00    -0.245 NA
HETATM    8  C7  UNL     1      19.174   4.062  51.031  1.00  0.00     0.056 A 
HETATM    9  C8  UNL     1      20.146   3.682  52.032  1.00  0.00     0.075 C 
HETATM   10  C9  UNL     1      21.386   3.475  52.350  1.00  0.00    -0.012 C 
HETATM   11  C10 UNL     1      22.837   3.322  52.417  1.00  0.00     0.026 C 
HETATM   12  C11 UNL     1      23.884   3.454  51.633  1.00  0.00     0.035 C 
HETATM   13  C19 UNL     1      23.998   3.883  50.234  1.00  0.00     0.028 C 
HETATM   14  C20 UNL     1      23.185   4.290  49.244  1.00  0.00     0.014 C 
HETATM   15  C21 UNL     1      22.184   4.721  48.253  1.00  0.00     0.200 C 
ENDROOT
BRANCH  12  16
HETATM   16  N3  UNL     1      25.192   3.201  52.079  1.00  0.00    -0.309 N 
HETATM   17  C12 UNL     1      25.485   1.913  52.607  1.00  0.00     0.321 C 
HETATM   18  O2  UNL     1      24.418   1.211  52.556  1.00  0.00    -0.247 OA
HETATM   19  N4  UNL     1      26.800   1.574  53.090  1.00  0.00    -0.338 N 
HETATM   20  H11 UNL     1      27.488   2.345  53.008  1.00  0.00     0.164 HD
HETATM   21  H10 UNL     1      25.944   3.948  52.025  1.00  0.00     0.170 HD
BRANCH  19  22
HETATM   22  C13 UNL     1      26.933   0.214  53.606  1.00  0.00     0.086 C 
HETATM   23  C14 UNL     1      27.267  -0.785  52.505  1.00  0.00     0.025 C 
HETATM   24  C15 UNL     1      28.179  -1.838  53.138  1.00  0.00     0.002 C 
HETATM   25  C16 UNL     1      29.535  -1.160  53.292  1.00  0.00     0.000 C 
HETATM   26  C17 UNL     1      29.364   0.001  54.223  1.00  0.00     0.002 C 
HETATM   27  C18 UNL     1      27.941   0.187  54.709  1.00  0.00     0.025 C 
ENDBRANCH  19  22
ENDBRANCH  12  16
BRANCH  15  28
HETATM   28  O3  UNL     1      21.506   3.612  47.771  1.00  0.00    -0.380 OA
HETATM   29  C22 UNL     1      21.890   3.379  46.441  1.00  0.00     0.202 C 
ENDBRANCH  15  28
BRANCH   1  30
HETATM   30  O1  UNL     1      21.917   7.021  48.668  1.00  0.00    -0.357 OA
HETATM   31  C1  UNL     1      22.244   7.398  47.346  1.00  0.00     0.209 C 
ENDBRANCH   1  30
TORSDOF 4
ENDMDL
MODEL 6
REMARK VINA RESULT:      -7.6      2.891      3.486
REMARK  4 active torsions:
REMARK  status: ('A' for Active; 'I' for Inactive)
REMARK    1  A    between atoms: O1_2  and  C2_3 
REMARK    2  A    between atoms: C11_14  and  N3_15 
REMARK       I    between atoms: N3_15  and  C12_16 
REMARK       I    between atoms: C12_16  and  N4_18 
REMARK    3  A    between atoms: N4_18  and  C13_19 
REMARK    4  A    between atoms: C21_27  and  O3_28 
ROOT
HETATM    1  C2  UNL     1      25.159   0.797  52.355  1.00  0.00     0.079 C 
HETATM    2  C3  UNL     1      24.081   0.346  52.928  1.00  0.00     0.050 C 
HETATM    3  C4  UNL     1      22.962  -0.330  53.538  1.00  0.00     0.009 A 
HETATM    4  C5  UNL     1      22.943  -0.868  54.776  1.00  0.00     0.131 A 
HETATM    5  N1  UNL     1      21.786  -1.430  55.148  1.00  0.00    -0.253 NA
HETATM    6  C6  UNL     1      20.723  -1.466  54.359  1.00  0.00     0.232 A 
HETATM    7  N2  UNL     1      20.733  -0.926  53.107  1.00  0.00    -0.245 NA
HETATM    8  C7  UNL     1      21.882  -0.329  52.655  1.00  0.00     0.056 A 
HETATM    9  C8  UNL     1      21.374   0.061  51.359  1.00  0.00     0.075 C 
HETATM   10  C9  UNL     1      21.486   0.807  50.303  1.00  0.00    -0.012 C 
HETATM   11  C10 UNL     1      21.858   1.758  49.259  1.00  0.00     0.026 C 
HETATM   12  C11 UNL     1      22.787   2.659  49.026  1.00  0.00     0.035 C 
HETATM   13  C19 UNL     1      23.953   3.074  49.815  1.00  0.00     0.028 C 
HETATM   14  C20 UNL     1      24.532   2.757  50.986  1.00  0.00     0.014 C 
HETATM   15  C21 UNL     1      25.061   2.311  52.286  1.00  0.00     0.200 C 
ENDROOT
BRANCH  12  16
HETATM   16  N3  UNL     1      22.816   3.419  47.845  1.00  0.00    -0.309 N 
HETATM   17  C12 UNL     1      22.249   4.724  47.871  1.00  0.00     0.321 C 
HETATM   18  O2  UNL     1      21.808   4.941  49.052  1.00  0.00    -0.247 OA
HETATM   19  N4  UNL     1      22.234   5.567  46.702  1.00  0.00    -0.338 N 
HETATM   20  H11 UNL     1      22.671   5.133  45.868  1.00  0.00     0.164 HD
HETATM   21  H10 UNL     1      23.247   3.034  46.955  1.00  0.00     0.170 HD
BRANCH  19  22
HETATM   22  C13 UNL     1      21.611   6.874  46.895  1.00  0.00     0.086 C 
HETATM   23  C14 UNL     1      22.620   7.930  47.327  1.00  0.00     0.025 C 
HETATM   24  C15 UNL     1      22.168   9.247  46.691  1.00  0.00     0.002 C 
HETATM   25  C16 UNL     1      22.530   9.131  45.216  1.00  0.00     0.000 C 
HETATM   26  C17 UNL     1      21.752   7.986  44.641  1.00  0.00     0.002 C 
HETATM   27  C18 UNL     1      20.879   7.274  45.654  1.00  0.00     0.025 C 
ENDBRANCH  19  22
ENDBRANCH  12  16
BRANCH  15  28
HETATM   28  O3  UNL     1      24.286   2.844  53.305  1.00  0.00    -0.380 OA
HETATM   29  C22 UNL     1      23.913   4.153  52.964  1.00  0.00     0.202 C 
ENDBRANCH  15  28
BRANCH   1  30
HETATM   30  O1  UNL     1      26.403   0.454  51.755  1.00  0.00    -0.357 OA
HETATM   31  C1  UNL     1      27.167  -0.540  52.408  1.00  0.00     0.209 C 
ENDBRANCH   1  30
TORSDOF 4
ENDMDL
MODEL 7
REMARK VINA RESULT:      -7.5      3.136     10.946
REMARK  4 active torsions:
REMARK  status: ('A' for Active; 'I' for Inactive)
REMARK    1  A    between atoms: O1_2  and  C2_3 
REMARK    2  A    between atoms: C11_14  and  N3_15 
REMARK       I    between atoms: N3_15  and  C12_16 
REMARK       I    between atoms: C12_16  and  N4_18 
REMARK    3  A    between atoms: N4_18  and  C13_19 
REMARK    4  A    between atoms: C21_27  and  O3_28 
ROOT
HETATM    1  C2  UNL     1      28.366  11.180  48.170  1.00  0.00     0.079 C 
HETATM    2  C3  UNL     1      28.429  10.887  46.903  1.00  0.00     0.050 C 
HETATM    3  C4  UNL     1      28.402  10.729  45.470  1.00  0.00     0.009 A 
HETATM    4  C5  UNL     1      29.177  11.394  44.586  1.00  0.00     0.131 A 
HETATM    5  N1  UNL     1      28.999  11.072  43.299  1.00  0.00    -0.253 NA
HETATM    6  C6  UNL     1      28.119  10.164  42.906  1.00  0.00     0.232 A 
HETATM    7  N2  UNL     1      27.331   9.489  43.790  1.00  0.00    -0.245 NA
HETATM    8  C7  UNL     1      27.457   9.762  45.128  1.00  0.00     0.056 A 
HETATM    9  C8  UNL     1      26.462   8.819  45.590  1.00  0.00     0.075 C 
HETATM   10  C9  UNL     1      25.963   8.123  46.564  1.00  0.00    -0.012 C 
HETATM   11  C10 UNL     1      25.623   7.471  47.825  1.00  0.00     0.026 C 
HETATM   12  C11 UNL     1      26.047   7.441  49.070  1.00  0.00     0.035 C 
HETATM   13  C19 UNL     1      27.135   8.162  49.740  1.00  0.00     0.028 C 
HETATM   14  C20 UNL     1      28.074   9.071  49.426  1.00  0.00     0.014 C 
HETATM   15  C21 UNL     1      29.048  10.067  48.947  1.00  0.00     0.200 C 
ENDROOT
BRANCH  12  16
HETATM   16  N3  UNL     1      25.432   6.646  50.053  1.00  0.00    -0.309 N 
HETATM   17  C12 UNL     1      25.614   5.237  49.988  1.00  0.00     0.321 C 
HETATM   18  O2  UNL     1      26.355   4.979  48.978  1.00  0.00    -0.247 OA
HETATM   19  N4  UNL     1      25.015   4.350  50.954  1.00  0.00    -0.338 N 
HETATM   20  H11 UNL     1      24.458   4.838  51.680  1.00  0.00     0.164 HD
HETATM   21  H10 UNL     1      24.847   7.081  50.823  1.00  0.00     0.170 HD
BRANCH  19  22
HETATM   22  C13 UNL     1      25.295   2.933  50.743  1.00  0.00     0.086 C 
HETATM   23  C14 UNL     1      26.551   2.483  51.477  1.00  0.00     0.025 C 
HETATM   24  C15 UNL     1      26.299   1.040  51.924  1.00  0.00     0.002 C 
HETATM   25  C16 UNL     1      25.335   1.143  53.100  1.00  0.00     0.000 C 
HETATM   26  C17 UNL     1      24.065   1.757  52.599  1.00  0.00     0.002 C 
HETATM   27  C18 UNL     1      24.102   2.118  51.127  1.00  0.00     0.025 C 
ENDBRANCH  19  22
ENDBRANCH  12  16
BRANCH  15  28
HETATM   28  O3  UNL     1      30.035   9.428  48.212  1.00  0.00    -0.380 OA
HETATM   29  C22 UNL     1      30.890   8.741  49.088  1.00  0.00     0.202 C 
ENDBRANCH  15  28
BRANCH   1  30
HETATM   30  O1  UNL     1      27.915  12.120  49.140  1.00  0.00    -0.357 OA
HETATM   31  C1  UNL     1      27.898  13.476  48.745  1.00  0.00     0.209 C 
ENDBRANCH   1  30
TORSDOF 4
ENDMDL
MODEL 8
REMARK VINA RESULT:      -7.3      2.736      9.990
REMARK  4 active torsions:
REMARK  status: ('A' for Active; 'I' for Inactive)
REMARK    1  A    between atoms: O1_2  and  C2_3 
REMARK    2  A    between atoms: C11_14  and  N3_15 
REMARK       I    between atoms: N3_15  and  C12_16 
REMARK       I    between atoms: C12_16  and  N4_18 
REMARK    3  A    between atoms: N4_18  and  C13_19 
REMARK    4  A    between atoms: C21_27  and  O3_28 
ROOT
HETATM    1  C2  UNL     1      28.588   9.129  48.339  1.00  0.00     0.079 C 
HETATM    2  C3  UNL     1      27.591   9.561  47.623  1.00  0.00     0.050 C 
HETATM    3  C4  UNL     1      26.461  10.173  46.968  1.00  0.00     0.009 A 
HETATM    4  C5  UNL     1      26.477  11.342  46.293  1.00  0.00     0.131 A 
HETATM    5  N1  UNL     1      25.313  11.712  45.744  1.00  0.00    -0.253 NA
HETATM    6  C6  UNL     1      24.210  10.987  45.852  1.00  0.00     0.232 A 
HETATM    7  N2  UNL     1      24.184   9.807  46.532  1.00  0.00    -0.245 NA
HETATM    8  C7  UNL     1      25.339   9.359  47.121  1.00  0.00     0.056 A 
HETATM    9  C8  UNL     1      24.792   8.135  47.663  1.00  0.00     0.075 C 
HETATM   10  C9  UNL     1      24.996   6.948  48.146  1.00  0.00    -0.012 C 
HETATM   11  C10 UNL     1      25.520   5.680  48.645  1.00  0.00     0.026 C 
HETATM   12  C11 UNL     1      26.682   5.091  48.823  1.00  0.00     0.035 C 
HETATM   13  C19 UNL     1      28.052   5.559  48.582  1.00  0.00     0.028 C 
HETATM   14  C20 UNL     1      28.665   6.667  48.131  1.00  0.00     0.014 C 
HETATM   15  C21 UNL     1      29.205   7.939  47.622  1.00  0.00     0.200 C 
ENDROOT
BRANCH  12  16
HETATM   16  N3  UNL     1      26.792   3.794  49.355  1.00  0.00    -0.309 N 
HETATM   17  C12 UNL     1      26.036   3.479  50.517  1.00  0.00     0.321 C 
HETATM   18  O2  UNL     1      25.367   4.516  50.850  1.00  0.00    -0.247 OA
HETATM   19  N4  UNL     1      26.095   2.173  51.128  1.00  0.00    -0.338 N 
HETATM   20  H11 UNL     1      26.726   1.511  50.639  1.00  0.00     0.164 HD
HETATM   21  H10 UNL     1      27.422   3.068  48.905  1.00  0.00     0.170 HD
BRANCH  19  22
HETATM   22  C13 UNL     1      25.262   2.014  52.317  1.00  0.00     0.086 C 
HETATM   23  C14 UNL     1      24.150   0.995  52.104  1.00  0.00     0.025 C 
HETATM   24  C15 UNL     1      23.946   0.290  53.447  1.00  0.00     0.002 C 
HETATM   25  C16 UNL     1      25.134  -0.652  53.595  1.00  0.00     0.000 C 
HETATM   26  C17 UNL     1      26.378   0.182  53.634  1.00  0.00     0.002 C 
HETATM   27  C18 UNL     1      26.120   1.668  53.492  1.00  0.00     0.025 C 
ENDBRANCH  19  22
ENDBRANCH  12  16
BRANCH  15  28
HETATM   28  O3  UNL     1      29.033   7.994  46.248  1.00  0.00    -0.380 OA
HETATM   29  C22 UNL     1      30.289   8.096  45.630  1.00  0.00     0.202 C 
ENDBRANCH  15  28
BRANCH   1  30
HETATM   30  O1  UNL     1      29.346   9.308  49.530  1.00  0.00    -0.357 OA
HETATM   31  C1  UNL     1      30.720   9.596  49.368  1.00  0.00     0.209 C 
ENDBRANCH   1  30
TORSDOF 4
ENDMDL
MODEL 9
REMARK VINA RESULT:      -7.3      7.265     10.549
REMARK  4 active torsions:
REMARK  status: ('A' for Active; 'I' for Inactive)
REMARK    1  A    between atoms: O1_2  and  C2_3 
REMARK    2  A    between atoms: C11_14  and  N3_15 
REMARK       I    between atoms: N3_15  and  C12_16 
REMARK       I    between atoms: C12_16  and  N4_18 
REMARK    3  A    between atoms: N4_18  and  C13_19 
REMARK    4  A    between atoms: C21_27  and  O3_28 
ROOT
HETATM    1  C2  UNL     1      25.159   9.098  46.714  1.00  0.00     0.079 C 
HETATM    2  C3  UNL     1      25.288  10.293  47.211  1.00  0.00     0.050 C 
HETATM    3  C4  UNL     1      25.440  11.680  47.579  1.00  0.00     0.009 A 
HETATM    4  C5  UNL     1      24.479  12.626  47.511  1.00  0.00     0.131 A 
HETATM    5  N1  UNL     1      24.835  13.848  47.926  1.00  0.00    -0.253 NA
HETATM    6  C6  UNL     1      26.051  14.123  48.372  1.00  0.00     0.232 A 
HETATM    7  N2  UNL     1      27.028  13.176  48.444  1.00  0.00    -0.245 NA
HETATM    8  C7  UNL     1      26.738  11.898  48.039  1.00  0.00     0.056 A 
HETATM    9  C8  UNL     1      28.039  11.331  48.318  1.00  0.00     0.075 C 
HETATM   10  C9  UNL     1      28.767  10.277  48.526  1.00  0.00    -0.012 C 
HETATM   11  C10 UNL     1      29.323   8.942  48.722  1.00  0.00     0.026 C 
HETATM   12  C11 UNL     1      28.915   7.692  48.734  1.00  0.00     0.035 C 
HETATM   13  C19 UNL     1      27.592   7.103  48.500  1.00  0.00     0.028 C 
HETATM   14  C20 UNL     1      26.350   7.521  48.198  1.00  0.00     0.014 C 
HETATM   15  C21 UNL     1      25.044   8.115  47.866  1.00  0.00     0.200 C 
ENDROOT
BRANCH  12  16
HETATM   16  N3  UNL     1      29.791   6.619  48.973  1.00  0.00    -0.309 N 
HETATM   17  C12 UNL     1      30.610   6.169  47.901  1.00  0.00     0.321 C 
HETATM   18  O2  UNL     1      30.357   6.892  46.877  1.00  0.00    -0.247 OA
HETATM   19  N4  UNL     1      31.532   5.071  48.060  1.00  0.00    -0.338 N 
HETATM   20  H11 UNL     1      31.535   4.663  49.014  1.00  0.00     0.164 HD
HETATM   21  H10 UNL     1      29.843   6.154  49.926  1.00  0.00     0.170 HD
BRANCH  19  22
HETATM   22  C13 UNL     1      32.294   4.730  46.862  1.00  0.00     0.086 C 
HETATM   23  C14 UNL     1      33.691   5.336  46.881  1.00  0.00     0.025 C 
HETATM   24  C15 UNL     1      34.609   4.330  46.183  1.00  0.00     0.002 C 
HETATM   25  C16 UNL     1      34.804   3.196  47.183  1.00  0.00     0.000 C 
HETATM   26  C17 UNL     1      33.465   2.579  47.443  1.00  0.00     0.002 C 
HETATM   27  C18 UNL     1      32.330   3.245  46.691  1.00  0.00     0.025 C 
ENDBRANCH  19  22
ENDBRANCH  12  16
BRANCH  15  28
HETATM   28  O3  UNL     1      24.496   8.687  49.005  1.00  0.00    -0.380 OA
HETATM   29  C22 UNL     1      23.530   7.820  49.537  1.00  0.00     0.202 C 
ENDBRANCH  15  28
BRANCH   1  30
HETATM   30  O1  UNL     1      25.084   8.321  45.523  1.00  0.00    -0.357 OA
HETATM   31  C1  UNL     1      25.914   8.723  44.453  1.00  0.00     0.209 C 
ENDBRANCH   1  30
TORSDOF 4
ENDMDL
