MODEL 1
REMARK VINA RESULT:      -7.0      0.000      0.000
REMARK  5 active torsions:
REMARK  status: ('A' for Active; 'I' for Inactive)
REMARK    1  A    between atoms: O1_2  and  C2_3 
REMARK    2  A    between atoms: C4_5  and  N1_6 
REMARK    3  A    between atoms: N1_6  and  C5_7 
REMARK    4  A    between atoms: N2_8  and  C6_9 
REMARK    5  A    between atoms: C13_17  and  O2_18 
ROOT
HETATM    1  C2  UNL     1      24.539   0.281  53.149  1.00  0.00     0.079 A 
HETATM    2  C3  UNL     1      24.118   0.960  52.005  1.00  0.00     0.066 A 
HETATM    3  C4  UNL     1      24.826   2.067  51.582  1.00  0.00     0.038 A 
HETATM    4  C12 UNL     1      25.940   2.525  52.259  1.00  0.00     0.066 A 
HETATM    5  C13 UNL     1      26.377   1.864  53.403  1.00  0.00     0.079 A 
HETATM    6  C15 UNL     1      25.662   0.751  53.823  1.00  0.00     0.005 A 
HETATM    7  C16 UNL     1      26.018  -0.063  55.038  1.00  0.00     0.054 C 
ENDROOT
BRANCH   3   8
HETATM    8  N1  UNL     1      24.450   2.821  50.410  1.00  0.00    -0.351 N 
HETATM    9  H5  UNL     1      23.452   2.791  50.060  1.00  0.00     0.166 HD
BRANCH   8  10
HETATM   10  C5  UNL     1      25.511   3.581  49.798  1.00  0.00     0.208 C 
HETATM   11  N2  UNL     1      25.289   4.811  49.483  1.00  0.00    -0.244 NA
BRANCH  11  12
HETATM   12  C6  UNL     1      26.326   5.570  48.880  1.00  0.00     0.058 A 
HETATM   13  C7  UNL     1      26.327   6.864  48.405  1.00  0.00     0.033 A 
HETATM   14  C8  UNL     1      27.478   7.384  47.852  1.00  0.00     0.026 A 
HETATM   15  C9  UNL     1      28.634   6.658  47.754  1.00  0.00     0.034 A 
HETATM   16 CL1  UNL     1      30.022   7.432  47.033  1.00  0.00    -0.084 Cl
HETATM   17  C10 UNL     1      28.646   5.370  48.222  1.00  0.00     0.026 A 
HETATM   18  C11 UNL     1      27.498   4.813  48.788  1.00  0.00     0.033 A 
ENDBRANCH  11  12
ENDBRANCH   8  10
ENDBRANCH   3   8
BRANCH   1  19
HETATM   19  O1  UNL     1      23.822  -0.831  53.566  1.00  0.00    -0.355 OA
HETATM   20  C1  UNL     1      22.429  -0.935  53.430  1.00  0.00     0.210 C 
ENDBRANCH   1  19
BRANCH   5  21
HETATM   21  O2  UNL     1      27.442   2.147  54.212  1.00  0.00    -0.355 OA
HETATM   22  C14 UNL     1      28.761   2.349  53.744  1.00  0.00     0.210 C 
ENDBRANCH   5  21
TORSDOF 5
ENDMDL
MODEL 2
REMARK VINA RESULT:      -6.9      1.010      3.017
REMARK  5 active torsions:
REMARK  status: ('A' for Active; 'I' for Inactive)
REMARK    1  A    between atoms: O1_2  and  C2_3 
REMARK    2  A    between atoms: C4_5  and  N1_6 
REMARK    3  A    between atoms: N1_6  and  C5_7 
REMARK    4  A    between atoms: N2_8  and  C6_9 
REMARK    5  A    between atoms: C13_17  and  O2_18 
ROOT
HETATM    1  C2  UNL     1      25.618   1.569  53.616  1.00  0.00     0.079 A 
HETATM    2  C3  UNL     1      25.103   2.652  52.901  1.00  0.00     0.066 A 
HETATM    3  C4  UNL     1      23.881   2.522  52.273  1.00  0.00     0.038 A 
HETATM    4  C12 UNL     1      23.150   1.351  52.331  1.00  0.00     0.066 A 
HETATM    5  C13 UNL     1      23.644   0.259  53.037  1.00  0.00     0.079 A 
HETATM    6  C15 UNL     1      24.874   0.395  53.667  1.00  0.00     0.005 A 
HETATM    7  C16 UNL     1      25.529  -0.698  54.466  1.00  0.00     0.054 C 
ENDROOT
BRANCH   3   8
HETATM    8  N1  UNL     1      23.286   3.596  51.514  1.00  0.00    -0.351 N 
HETATM    9  H5  UNL     1      22.234   3.674  51.443  1.00  0.00     0.166 HD
BRANCH   8  10
HETATM   10  C5  UNL     1      24.219   4.506  50.895  1.00  0.00     0.208 C 
HETATM   11  N2  UNL     1      24.821   4.135  49.818  1.00  0.00    -0.244 NA
BRANCH  11  12
HETATM   12  C6  UNL     1      25.742   5.022  49.199  1.00  0.00     0.058 A 
HETATM   13  C7  UNL     1      25.559   6.288  48.688  1.00  0.00     0.033 A 
HETATM   14  C8  UNL     1      26.626   6.957  48.127  1.00  0.00     0.026 A 
HETATM   15  C9  UNL     1      27.876   6.405  48.056  1.00  0.00     0.034 A 
HETATM   16 CL1  UNL     1      29.143   7.354  47.320  1.00  0.00    -0.084 Cl
HETATM   17  C10 UNL     1      28.072   5.146  48.560  1.00  0.00     0.026 A 
HETATM   18  C11 UNL     1      27.013   4.442  49.135  1.00  0.00     0.033 A 
ENDBRANCH  11  12
ENDBRANCH   8  10
ENDBRANCH   3   8
BRANCH   1  19
HETATM   19  O1  UNL     1      26.847   1.709  54.244  1.00  0.00    -0.355 OA
HETATM   20  C1  UNL     1      28.009   2.108  53.565  1.00  0.00     0.210 C 
ENDBRANCH   1  19
BRANCH   5  21
HETATM   21  O2  UNL     1      23.089  -0.977  53.218  1.00  0.00    -0.355 OA
HETATM   22  C14 UNL     1      21.758  -1.194  53.644  1.00  0.00     0.210 C 
ENDBRANCH   5  21
TORSDOF 5
ENDMDL
MODEL 3
REMARK VINA RESULT:      -6.8      2.115      3.172
REMARK  5 active torsions:
REMARK  status: ('A' for Active; 'I' for Inactive)
REMARK    1  A    between atoms: O1_2  and  C2_3 
REMARK    2  A    between atoms: C4_5  and  N1_6 
REMARK    3  A    between atoms: N1_6  and  C5_7 
REMARK    4  A    between atoms: N2_8  and  C6_9 
REMARK    5  A    between atoms: C13_17  and  O2_18 
ROOT
HETATM    1  C2  UNL     1      20.797   0.034  53.256  1.00  0.00     0.079 A 
HETATM    2  C3  UNL     1      20.751   1.154  52.424  1.00  0.00     0.066 A 
HETATM    3  C4  UNL     1      21.926   1.802  52.104  1.00  0.00     0.038 A 
HETATM    4  C12 UNL     1      23.151   1.375  52.581  1.00  0.00     0.066 A 
HETATM    5  C13 UNL     1      23.221   0.261  53.411  1.00  0.00     0.079 A 
HETATM    6  C15 UNL     1      22.036  -0.387  53.731  1.00  0.00     0.005 A 
HETATM    7  C16 UNL     1      21.958  -1.603  54.613  1.00  0.00     0.054 C 
ENDROOT
BRANCH   3   8
HETATM    8  N1  UNL     1      21.957   2.968  51.253  1.00  0.00    -0.351 N 
HETATM    9  H5  UNL     1      21.060   3.478  51.023  1.00  0.00     0.166 HD
BRANCH   8  10
HETATM   10  C5  UNL     1      23.263   3.349  50.774  1.00  0.00     0.208 C 
HETATM   11  N2  UNL     1      23.362   4.373  49.999  1.00  0.00    -0.244 NA
BRANCH  11  12
HETATM   12  C6  UNL     1      24.642   4.759  49.520  1.00  0.00     0.058 A 
HETATM   13  C7  UNL     1      25.059   5.930  48.926  1.00  0.00     0.033 A 
HETATM   14  C8  UNL     1      26.376   6.066  48.541  1.00  0.00     0.026 A 
HETATM   15  C9  UNL     1      27.297   5.072  48.728  1.00  0.00     0.034 A 
HETATM   16 CL1  UNL     1      28.933   5.368  48.196  1.00  0.00    -0.084 Cl
HETATM   17  C10 UNL     1      26.895   3.902  49.318  1.00  0.00     0.026 A 
HETATM   18  C11 UNL     1      25.569   3.731  49.719  1.00  0.00     0.033 A 
ENDBRANCH  11  12
ENDBRANCH   8  10
ENDBRANCH   3   8
BRANCH   1  19
HETATM   19  O1  UNL     1      19.611  -0.611  53.572  1.00  0.00    -0.355 OA
HETATM   20  C1  UNL     1      18.511  -0.654  52.701  1.00  0.00     0.210 C 
ENDBRANCH   1  19
BRANCH   5  21
HETATM   21  O2  UNL     1      24.315  -0.322  53.986  1.00  0.00    -0.355 OA
HETATM   22  C14 UNL     1      25.466  -0.726  53.270  1.00  0.00     0.210 C 
ENDBRANCH   5  21
TORSDOF 5
ENDMDL
MODEL 4
REMARK VINA RESULT:      -6.8      1.759      3.903
REMARK  5 active torsions:
REMARK  status: ('A' for Active; 'I' for Inactive)
REMARK    1  A    between atoms: O1_2  and  C2_3 
REMARK    2  A    between atoms: C4_5  and  N1_6 
REMARK    3  A    between atoms: N1_6  and  C5_7 
REMARK    4  A    between atoms: N2_8  and  C6_9 
REMARK    5  A    between atoms: C13_17  and  O2_18 
ROOT
HETATM    1  C2  UNL     1      23.762   0.090  53.459  1.00  0.00     0.079 A 
HETATM    2  C3  UNL     1      23.790   0.967  52.373  1.00  0.00     0.066 A 
HETATM    3  C4  UNL     1      22.618   1.237  51.697  1.00  0.00     0.038 A 
HETATM    4  C12 UNL     1      21.414   0.663  52.062  1.00  0.00     0.066 A 
HETATM    5  C13 UNL     1      21.363  -0.214  53.140  1.00  0.00     0.079 A 
HETATM    6  C15 UNL     1      22.545  -0.482  53.817  1.00  0.00     0.005 A 
HETATM    7  C16 UNL     1      22.640  -1.406  55.000  1.00  0.00     0.054 C 
ENDROOT
BRANCH   3   8
HETATM    8  N1  UNL     1      22.569   2.130  50.564  1.00  0.00    -0.351 N 
HETATM    9  H5  UNL     1      21.642   2.353  50.106  1.00  0.00     0.166 HD
BRANCH   8  10
HETATM   10  C5  UNL     1      23.841   2.662  50.142  1.00  0.00     0.208 C 
HETATM   11  N2  UNL     1      23.906   3.898  49.784  1.00  0.00    -0.244 NA
BRANCH  11  12
HETATM   12  C6  UNL     1      25.154   4.434  49.366  1.00  0.00     0.058 A 
HETATM   13  C7  UNL     1      26.406   3.861  49.330  1.00  0.00     0.033 A 
HETATM   14  C8  UNL     1      27.479   4.599  48.877  1.00  0.00     0.026 A 
HETATM   15  C9  UNL     1      27.348   5.894  48.456  1.00  0.00     0.034 A 
HETATM   16 CL1  UNL     1      28.784   6.720  47.906  1.00  0.00    -0.084 Cl
HETATM   17  C10 UNL     1      26.107   6.476  48.487  1.00  0.00     0.026 A 
HETATM   18  C11 UNL     1      25.000   5.757  48.940  1.00  0.00     0.033 A 
ENDBRANCH  11  12
ENDBRANCH   8  10
ENDBRANCH   3   8
BRANCH   1  19
HETATM   19  O1  UNL     1      24.945  -0.174  54.133  1.00  0.00    -0.355 OA
HETATM   20  C1  UNL     1      26.177  -0.332  53.479  1.00  0.00     0.210 C 
ENDBRANCH   1  19
BRANCH   5  21
HETATM   21  O2  UNL     1      20.290  -0.883  53.660  1.00  0.00    -0.355 OA
HETATM   22  C14 UNL     1      18.957  -0.700  53.228  1.00  0.00     0.210 C 
ENDBRANCH   5  21
TORSDOF 5
ENDMDL
MODEL 5
REMARK VINA RESULT:      -6.6      5.377      8.564
REMARK  5 active torsions:
REMARK  status: ('A' for Active; 'I' for Inactive)
REMARK    1  A    between atoms: O1_2  and  C2_3 
REMARK    2  A    between atoms: C4_5  and  N1_6 
REMARK    3  A    between atoms: N1_6  and  C5_7 
REMARK    4  A    between atoms: N2_8  and  C6_9 
REMARK    5  A    between atoms: C13_17  and  O2_18 
ROOT
HETATM    1  C2  UNL     1      26.243  -0.003  53.499  1.00  0.00     0.079 A 
HETATM    2  C3  UNL     1      25.221  -0.688  54.159  1.00  0.00     0.066 A 
HETATM    3  C4  UNL     1      23.908  -0.405  53.841  1.00  0.00     0.038 A 
HETATM    4  C12 UNL     1      23.574   0.538  52.887  1.00  0.00     0.066 A 
HETATM    5  C13 UNL     1      24.575   1.233  52.217  1.00  0.00     0.079 A 
HETATM    6  C15 UNL     1      25.894   0.944  52.541  1.00  0.00     0.005 A 
HETATM    7  C16 UNL     1      27.079   1.612  51.898  1.00  0.00     0.054 C 
ENDROOT
BRANCH   3   8
HETATM    8  N1  UNL     1      22.799  -1.069  54.483  1.00  0.00    -0.351 N 
HETATM    9  H5  UNL     1      22.902  -1.437  55.469  1.00  0.00     0.166 HD
BRANCH   8  10
HETATM   10  C5  UNL     1      21.600  -1.175  53.689  1.00  0.00     0.208 C 
HETATM   11  N2  UNL     1      20.482  -0.793  54.204  1.00  0.00    -0.244 NA
BRANCH  11  12
HETATM   12  C6  UNL     1      19.293  -0.893  53.432  1.00  0.00     0.058 A 
HETATM   13  C7  UNL     1      18.175  -1.677  53.610  1.00  0.00     0.033 A 
HETATM   14  C8  UNL     1      17.135  -1.594  52.708  1.00  0.00     0.026 A 
HETATM   15  C9  UNL     1      17.170  -0.751  51.630  1.00  0.00     0.034 A 
HETATM   16 CL1  UNL     1      15.789  -0.739  50.562  1.00  0.00    -0.084 Cl
HETATM   17  C10 UNL     1      18.277   0.034  51.442  1.00  0.00     0.026 A 
HETATM   18  C11 UNL     1      19.348  -0.027  52.336  1.00  0.00     0.033 A 
ENDBRANCH  11  12
ENDBRANCH   8  10
ENDBRANCH   3   8
BRANCH   1  19
HETATM   19  O1  UNL     1      27.559  -0.295  53.825  1.00  0.00    -0.355 OA
HETATM   20  C1  UNL     1      28.199   0.231  54.958  1.00  0.00     0.210 C 
ENDBRANCH   1  19
BRANCH   5  21
HETATM   21  O2  UNL     1      24.464   2.194  51.252  1.00  0.00    -0.355 OA
HETATM   22  C14 UNL     1      23.785   3.421  51.431  1.00  0.00     0.210 C 
ENDBRANCH   5  21
TORSDOF 5
ENDMDL
MODEL 6
REMARK VINA RESULT:      -6.6      4.738      6.621
REMARK  5 active torsions:
REMARK  status: ('A' for Active; 'I' for Inactive)
REMARK    1  A    between atoms: O1_2  and  C2_3 
REMARK    2  A    between atoms: C4_5  and  N1_6 
REMARK    3  A    between atoms: N1_6  and  C5_7 
REMARK    4  A    between atoms: N2_8  and  C6_9 
REMARK    5  A    between atoms: C13_17  and  O2_18 
ROOT
HETATM    1  C2  UNL     1      20.873  -0.386  53.301  1.00  0.00     0.079 A 
HETATM    2  C3  UNL     1      22.008   0.322  52.903  1.00  0.00     0.066 A 
HETATM    3  C4  UNL     1      21.896   1.257  51.894  1.00  0.00     0.038 A 
HETATM    4  C12 UNL     1      20.693   1.514  51.265  1.00  0.00     0.066 A 
HETATM    5  C13 UNL     1      19.549   0.821  51.646  1.00  0.00     0.079 A 
HETATM    6  C15 UNL     1      19.666  -0.119  52.661  1.00  0.00     0.005 A 
HETATM    7  C16 UNL     1      18.517  -0.941  53.177  1.00  0.00     0.054 C 
ENDROOT
BRANCH   3   8
HETATM    8  N1  UNL     1      23.026   2.025  51.426  1.00  0.00    -0.351 N 
HETATM    9  H5  UNL     1      22.869   2.939  50.918  1.00  0.00     0.166 HD
BRANCH   8  10
HETATM   10  C5  UNL     1      24.319   1.454  51.707  1.00  0.00     0.208 C 
HETATM   11  N2  UNL     1      25.055   2.004  52.611  1.00  0.00    -0.244 NA
BRANCH  11  12
HETATM   12  C6  UNL     1      26.332   1.451  52.896  1.00  0.00     0.058 A 
HETATM   13  C7  UNL     1      27.511   2.065  53.259  1.00  0.00     0.033 A 
HETATM   14  C8  UNL     1      28.635   1.298  53.484  1.00  0.00     0.026 A 
HETATM   15  C9  UNL     1      28.626  -0.065  53.360  1.00  0.00     0.034 A 
HETATM   16 CL1  UNL     1      30.115  -0.920  53.672  1.00  0.00    -0.084 Cl
HETATM   17  C10 UNL     1      27.459  -0.687  53.000  1.00  0.00     0.026 A 
HETATM   18  C11 UNL     1      26.303   0.060  52.764  1.00  0.00     0.033 A 
ENDBRANCH  11  12
ENDBRANCH   8  10
ENDBRANCH   3   8
BRANCH   1  19
HETATM   19  O1  UNL     1      20.994  -1.323  54.316  1.00  0.00    -0.355 OA
HETATM   20  C1  UNL     1      22.191  -1.537  55.018  1.00  0.00     0.210 C 
ENDBRANCH   1  19
BRANCH   5  21
HETATM   21  O2  UNL     1      18.275   0.920  51.160  1.00  0.00    -0.355 OA
HETATM   22  C14 UNL     1      17.956   1.381  49.862  1.00  0.00     0.210 C 
ENDBRANCH   5  21
TORSDOF 5
ENDMDL
MODEL 7
REMARK VINA RESULT:      -6.6      1.016      3.036
REMARK  5 active torsions:
REMARK  status: ('A' for Active; 'I' for Inactive)
REMARK    1  A    between atoms: O1_2  and  C2_3 
REMARK    2  A    between atoms: C4_5  and  N1_6 
REMARK    3  A    between atoms: N1_6  and  C5_7 
REMARK    4  A    between atoms: N2_8  and  C6_9 
REMARK    5  A    between atoms: C13_17  and  O2_18 
ROOT
HETATM    1  C2  UNL     1      26.472   0.767  52.577  1.00  0.00     0.079 A 
HETATM    2  C3  UNL     1      26.359   1.782  51.625  1.00  0.00     0.066 A 
HETATM    3  C4  UNL     1      25.106   2.257  51.294  1.00  0.00     0.038 A 
HETATM    4  C12 UNL     1      23.957   1.757  51.878  1.00  0.00     0.066 A 
HETATM    5  C13 UNL     1      24.045   0.745  52.828  1.00  0.00     0.079 A 
HETATM    6  C15 UNL     1      25.308   0.271  53.157  1.00  0.00     0.005 A 
HETATM    7  C16 UNL     1      25.557  -0.816  54.167  1.00  0.00     0.054 C 
ENDROOT
BRANCH   3   8
HETATM    8  N1  UNL     1      24.910   3.302  50.318  1.00  0.00    -0.351 N 
HETATM    9  H5  UNL     1      23.933   3.549  49.996  1.00  0.00     0.166 HD
BRANCH   8  10
HETATM   10  C5  UNL     1      26.114   3.944  49.851  1.00  0.00     0.208 C 
HETATM   11  N2  UNL     1      26.010   4.920  49.016  1.00  0.00    -0.244 NA
BRANCH  11  12
HETATM   12  C6  UNL     1      27.188   5.561  48.548  1.00  0.00     0.058 A 
HETATM   13  C7  UNL     1      28.483   5.099  48.463  1.00  0.00     0.033 A 
HETATM   14  C8  UNL     1      29.469   5.925  47.967  1.00  0.00     0.026 A 
HETATM   15  C9  UNL     1      29.208   7.202  47.550  1.00  0.00     0.034 A 
HETATM   16 CL1  UNL     1      30.544   8.148  46.942  1.00  0.00    -0.084 Cl
HETATM   17  C10 UNL     1      27.924   7.674  47.630  1.00  0.00     0.026 A 
HETATM   18  C11 UNL     1      26.903   6.863  48.128  1.00  0.00     0.033 A 
ENDBRANCH  11  12
ENDBRANCH   8  10
ENDBRANCH   3   8
BRANCH   1  19
HETATM   19  O1  UNL     1      27.735   0.297  52.903  1.00  0.00    -0.355 OA
HETATM   20  C1  UNL     1      28.705   1.092  53.532  1.00  0.00     0.210 C 
ENDBRANCH   1  19
BRANCH   5  21
HETATM   21  O2  UNL     1      23.047   0.116  53.518  1.00  0.00    -0.355 OA
HETATM   22  C14 UNL     1      21.858  -0.368  52.925  1.00  0.00     0.210 C 
ENDBRANCH   5  21
TORSDOF 5
ENDMDL
MODEL 8
REMARK VINA RESULT:      -6.3      4.292      8.301
REMARK  5 active torsions:
REMARK  status: ('A' for Active; 'I' for Inactive)
REMARK    1  A    between atoms: O1_2  and  C2_3 
REMARK    2  A    between atoms: C4_5  and  N1_6 
REMARK    3  A    between atoms: N1_6  and  C5_7 
REMARK    4  A    between atoms: N2_8  and  C6_9 
REMARK    5  A    between atoms: C13_17  and  O2_18 
ROOT
HETATM    1  C2  UNL     1      26.463   7.368  47.829  1.00  0.00     0.079 A 
HETATM    2  C3  UNL     1      27.187   6.328  48.415  1.00  0.00     0.066 A 
HETATM    3  C4  UNL     1      26.505   5.296  49.027  1.00  0.00     0.038 A 
HETATM    4  C12 UNL     1      25.124   5.261  49.077  1.00  0.00     0.066 A 
HETATM    5  C13 UNL     1      24.382   6.286  48.500  1.00  0.00     0.079 A 
HETATM    6  C15 UNL     1      25.073   7.322  47.886  1.00  0.00     0.005 A 
HETATM    7  C16 UNL     1      24.406   8.494  47.220  1.00  0.00     0.054 C 
ENDROOT
BRANCH   3   8
HETATM    8  N1  UNL     1      27.184   4.189  49.657  1.00  0.00    -0.351 N 
HETATM    9  H5  UNL     1      28.231   4.083  49.552  1.00  0.00     0.166 HD
BRANCH   8  10
HETATM   10  C5  UNL     1      26.340   3.291  50.404  1.00  0.00     0.208 C 
HETATM   11  N2  UNL     1      26.894   2.362  51.105  1.00  0.00    -0.244 NA
BRANCH  11  12
HETATM   12  C6  UNL     1      26.073   1.471  51.846  1.00  0.00     0.058 A 
HETATM   13  C7  UNL     1      26.365   0.251  52.417  1.00  0.00     0.033 A 
HETATM   14  C8  UNL     1      25.381  -0.436  53.096  1.00  0.00     0.026 A 
HETATM   15  C9  UNL     1      24.109   0.052  53.228  1.00  0.00     0.034 A 
HETATM   16 CL1  UNL     1      22.955  -0.914  54.111  1.00  0.00    -0.084 Cl
HETATM   17  C10 UNL     1      23.805   1.264  52.665  1.00  0.00     0.026 A 
HETATM   18  C11 UNL     1      24.779   1.985  51.970  1.00  0.00     0.033 A 
ENDBRANCH  11  12
ENDBRANCH   8  10
ENDBRANCH   3   8
BRANCH   1  19
HETATM   19  O1  UNL     1      27.157   8.400  47.216  1.00  0.00    -0.355 OA
HETATM   20  C1  UNL     1      28.049   9.235  47.907  1.00  0.00     0.210 C 
ENDBRANCH   1  19
BRANCH   5  21
HETATM   21  O2  UNL     1      23.026   6.444  48.439  1.00  0.00    -0.355 OA
HETATM   22  C14 UNL     1      22.147   5.513  47.839  1.00  0.00     0.210 C 
ENDBRANCH   5  21
TORSDOF 5
ENDMDL
MODEL 9
REMARK VINA RESULT:      -6.3      4.282      7.849
REMARK  5 active torsions:
REMARK  status: ('A' for Active; 'I' for Inactive)
REMARK    1  A    between atoms: O1_2  and  C2_3 
REMARK    2  A    between atoms: C4_5  and  N1_6 
REMARK    3  A    between atoms: N1_6  and  C5_7 
REMARK    4  A    between atoms: N2_8  and  C6_9 
REMARK    5  A    between atoms: C13_17  and  O2_18 
ROOT
HETATM    1  C2  UNL     1      24.534   6.513  48.366  1.00  0.00     0.079 A 
HETATM    2  C3  UNL     1      25.136   5.408  48.970  1.00  0.00     0.066 A 
HETATM    3  C4  UNL     1      26.512   5.308  48.968  1.00  0.00     0.038 A 
HETATM    4  C12 UNL     1      27.315   6.271  48.387  1.00  0.00     0.066 A 
HETATM    5  C13 UNL     1      26.737   7.381  47.779  1.00  0.00     0.079 A 
HETATM    6  C15 UNL     1      25.352   7.477  47.783  1.00  0.00     0.005 A 
HETATM    7  C16 UNL     1      24.590   8.619  47.168  1.00  0.00     0.054 C 
ENDROOT
BRANCH   3   8
HETATM    8  N1  UNL     1      27.205   4.194  49.570  1.00  0.00    -0.351 N 
HETATM    9  H5  UNL     1      28.252   4.101  49.460  1.00  0.00     0.166 HD
BRANCH   8  10
HETATM   10  C5  UNL     1      26.372   3.269  50.299  1.00  0.00     0.208 C 
HETATM   11  N2  UNL     1      26.929   2.465  51.137  1.00  0.00    -0.244 NA
BRANCH  11  12
HETATM   12  C6  UNL     1      26.119   1.549  51.862  1.00  0.00     0.058 A 
HETATM   13  C7  UNL     1      26.413   0.301  52.366  1.00  0.00     0.033 A 
HETATM   14  C8  UNL     1      25.441  -0.405  53.042  1.00  0.00     0.026 A 
HETATM   15  C9  UNL     1      24.180   0.091  53.236  1.00  0.00     0.034 A 
HETATM   16 CL1  UNL     1      23.040  -0.902  54.108  1.00  0.00    -0.084 Cl
HETATM   17  C10 UNL     1      23.875   1.331  52.738  1.00  0.00     0.026 A 
HETATM   18  C11 UNL     1      24.836   2.072  52.048  1.00  0.00     0.033 A 
ENDBRANCH  11  12
ENDBRANCH   8  10
ENDBRANCH   3   8
BRANCH   1  19
HETATM   19  O1  UNL     1      23.150   6.605  48.373  1.00  0.00    -0.355 OA
HETATM   20  C1  UNL     1      22.311   5.498  48.172  1.00  0.00     0.210 C 
ENDBRANCH   1  19
BRANCH   5  21
HETATM   21  O2  UNL     1      27.339   8.436  47.153  1.00  0.00    -0.355 OA
HETATM   22  C14 UNL     1      28.526   9.055  47.608  1.00  0.00     0.210 C 
ENDBRANCH   5  21
TORSDOF 5
ENDMDL
