MODEL 1
REMARK VINA RESULT:      -8.8      0.000      0.000
REMARK  5 active torsions:
REMARK  status: ('A' for Active; 'I' for Inactive)
REMARK    1  A    between atoms: C6_6  and  C7_7 
REMARK    2  A    between atoms: C7_7  and  C8_8 
REMARK    3  A    between atoms: C8_8  and  C9_9 
REMARK    4  A    between atoms: N2_17  and  C15_18 
REMARK    5  A    between atoms: C16_20  and  O1_21 
ROOT
HETATM    1  C1  UNL     1      24.904  -0.919  55.056  1.00  0.00     0.070 C 
HETATM    2  C2  UNL     1      24.516  -0.235  53.814  1.00  0.00     0.035 C 
HETATM    3  C3  UNL     1      23.210  -0.089  53.557  1.00  0.00     0.027 C 
HETATM    4  C4  UNL     1      22.553   0.550  52.397  1.00  0.00     0.004 C 
HETATM    5  C5  UNL     1      23.172   1.326  51.498  1.00  0.00     0.029 C 
HETATM    6  C6  UNL     1      24.566   1.721  51.428  1.00  0.00     0.055 C 
HETATM    7  N1  UNL     1      25.602   1.238  52.080  1.00  0.00    -0.170 NA
HETATM    8  N2  UNL     1      25.594   0.205  53.017  1.00  0.00    -0.214 N 
ENDROOT
BRANCH   6   9
HETATM    9  C7  UNL     1      24.844   2.808  50.506  1.00  0.00     0.065 C 
BRANCH   9  10
HETATM   10  C8  UNL     1      26.246   3.078  50.143  1.00  0.00     0.044 C 
BRANCH  10  11
HETATM   11  C9  UNL     1      26.484   4.363  49.443  1.00  0.00    -0.058 A 
HETATM   12  C10 UNL     1      27.713   4.639  48.832  1.00  0.00     0.008 A 
HETATM   13  C11 UNL     1      27.921   5.857  48.186  1.00  0.00     0.019 A 
HETATM   14  C12 UNL     1      26.925   6.798  48.142  1.00  0.00     0.011 A 
HETATM   15 BR1  UNL     1      27.262   8.465  47.242  1.00  0.00    -0.051 Br
HETATM   16  C13 UNL     1      25.695   6.582  48.725  1.00  0.00     0.019 A 
HETATM   17  C14 UNL     1      25.495   5.356  49.372  1.00  0.00     0.008 A 
ENDBRANCH  10  11
ENDBRANCH   9  10
ENDBRANCH   6   9
BRANCH   8  18
HETATM   18  C15 UNL     1      26.869  -0.410  53.111  1.00  0.00     0.196 A 
HETATM   19  N3  UNL     1      27.136  -1.725  52.928  1.00  0.00    -0.198 NA
HETATM   20  C16 UNL     1      28.425  -2.016  53.092  1.00  0.00     0.171 A 
HETATM   21  C17 UNL     1      29.534  -1.097  53.435  1.00  0.00     0.111 A 
HETATM   22  S1  UNL     1      28.490   0.394  53.519  1.00  0.00    -0.058 SA
BRANCH  20  23
HETATM   23  O1  UNL     1      28.597  -3.402  52.881  1.00  0.00    -0.344 OA
HETATM   24  H15 UNL     1      27.960  -3.908  52.280  1.00  0.00     0.219 HD
ENDBRANCH  20  23
ENDBRANCH   8  18
TORSDOF 5
ENDMDL
MODEL 2
REMARK VINA RESULT:      -8.7      1.753      2.185
REMARK  5 active torsions:
REMARK  status: ('A' for Active; 'I' for Inactive)
REMARK    1  A    between atoms: C6_6  and  C7_7 
REMARK    2  A    between atoms: C7_7  and  C8_8 
REMARK    3  A    between atoms: C8_8  and  C9_9 
REMARK    4  A    between atoms: N2_17  and  C15_18 
REMARK    5  A    between atoms: C16_20  and  O1_21 
ROOT
HETATM    1  C1  UNL     1      25.016  -0.947  55.170  1.00  0.00     0.070 C 
HETATM    2  C2  UNL     1      24.455  -0.246  54.006  1.00  0.00     0.035 C 
HETATM    3  C3  UNL     1      23.220  -0.577  53.608  1.00  0.00     0.027 C 
HETATM    4  C4  UNL     1      22.426  -0.038  52.483  1.00  0.00     0.004 C 
HETATM    5  C5  UNL     1      22.726   1.074  51.798  1.00  0.00     0.029 C 
HETATM    6  C6  UNL     1      23.839   1.988  51.969  1.00  0.00     0.055 C 
HETATM    7  N1  UNL     1      24.943   1.834  52.669  1.00  0.00    -0.170 NA
HETATM    8  N2  UNL     1      25.303   0.723  53.430  1.00  0.00    -0.214 N 
ENDROOT
BRANCH   6   9
HETATM    9  C7  UNL     1      23.703   3.251  51.265  1.00  0.00     0.065 C 
BRANCH   9  10
HETATM   10  C8  UNL     1      23.954   3.276  49.815  1.00  0.00     0.044 C 
BRANCH  10  11
HETATM   11  C9  UNL     1      25.068   4.153  49.379  1.00  0.00    -0.058 A 
HETATM   12  C10 UNL     1      24.834   5.467  48.956  1.00  0.00     0.008 A 
HETATM   13  C11 UNL     1      25.893   6.273  48.542  1.00  0.00     0.019 A 
HETATM   14  C12 UNL     1      27.175   5.789  48.544  1.00  0.00     0.011 A 
HETATM   15 BR1  UNL     1      28.603   6.940  47.959  1.00  0.00    -0.051 Br
HETATM   16  C13 UNL     1      27.466   4.505  48.950  1.00  0.00     0.019 A 
HETATM   17  C14 UNL     1      26.396   3.702  49.365  1.00  0.00     0.008 A 
ENDBRANCH  10  11
ENDBRANCH   9  10
ENDBRANCH   6   9
BRANCH   8  18
HETATM   18  C15 UNL     1      26.711   0.650  53.594  1.00  0.00     0.196 A 
HETATM   19  N3  UNL     1      27.502   1.612  54.124  1.00  0.00    -0.198 NA
HETATM   20  C16 UNL     1      28.789   1.268  54.140  1.00  0.00     0.171 A 
HETATM   21  C17 UNL     1      29.406   0.011  53.663  1.00  0.00     0.111 A 
HETATM   22  S1  UNL     1      27.838  -0.746  53.123  1.00  0.00    -0.058 SA
BRANCH  20  23
HETATM   23  O1  UNL     1      29.525   2.333  54.708  1.00  0.00    -0.344 OA
HETATM   24  H15 UNL     1      30.533   2.353  54.632  1.00  0.00     0.219 HD
ENDBRANCH  20  23
ENDBRANCH   8  18
TORSDOF 5
ENDMDL
MODEL 3
REMARK VINA RESULT:      -8.3      4.071      7.063
REMARK  5 active torsions:
REMARK  status: ('A' for Active; 'I' for Inactive)
REMARK    1  A    between atoms: C6_6  and  C7_7 
REMARK    2  A    between atoms: C7_7  and  C8_8 
REMARK    3  A    between atoms: C8_8  and  C9_9 
REMARK    4  A    between atoms: N2_17  and  C15_18 
REMARK    5  A    between atoms: C16_20  and  O1_21 
ROOT
HETATM    1  C1  UNL     1      26.759   2.011  51.210  1.00  0.00     0.070 C 
HETATM    2  C2  UNL     1      25.524   1.688  51.937  1.00  0.00     0.035 C 
HETATM    3  C3  UNL     1      24.545   2.602  51.953  1.00  0.00     0.027 C 
HETATM    4  C4  UNL     1      23.217   2.537  52.600  1.00  0.00     0.004 C 
HETATM    5  C5  UNL     1      22.660   1.423  53.093  1.00  0.00     0.029 C 
HETATM    6  C6  UNL     1      23.178   0.069  53.120  1.00  0.00     0.055 C 
HETATM    7  N1  UNL     1      24.401  -0.359  52.886  1.00  0.00    -0.170 NA
HETATM    8  N2  UNL     1      25.509   0.416  52.547  1.00  0.00    -0.214 N 
ENDROOT
BRANCH   6   9
HETATM    9  C7  UNL     1      22.199  -0.951  53.450  1.00  0.00     0.065 C 
BRANCH   9  10
HETATM   10  C8  UNL     1      20.979  -0.546  54.168  1.00  0.00     0.044 C 
BRANCH  10  11
HETATM   11  C9  UNL     1      19.719  -0.659  53.393  1.00  0.00    -0.058 A 
HETATM   12  C10 UNL     1      19.484   0.143  52.269  1.00  0.00     0.008 A 
HETATM   13  C11 UNL     1      18.291   0.028  51.559  1.00  0.00     0.019 A 
HETATM   14  C12 UNL     1      17.334  -0.871  51.951  1.00  0.00     0.011 A 
HETATM   15 BR1  UNL     1      15.700  -0.989  50.940  1.00  0.00    -0.051 Br
HETATM   16  C13 UNL     1      17.509  -1.686  53.048  1.00  0.00     0.019 A 
HETATM   17  C14 UNL     1      18.712  -1.564  53.756  1.00  0.00     0.008 A 
ENDBRANCH  10  11
ENDBRANCH   9  10
ENDBRANCH   6   9
BRANCH   8  18
HETATM   18  C15 UNL     1      26.718  -0.242  52.890  1.00  0.00     0.196 A 
HETATM   19  N3  UNL     1      27.005  -1.547  52.672  1.00  0.00    -0.198 NA
HETATM   20  C16 UNL     1      28.215  -1.889  53.112  1.00  0.00     0.171 A 
HETATM   21  C17 UNL     1      29.221  -1.032  53.777  1.00  0.00     0.111 A 
HETATM   22  S1  UNL     1      28.206   0.480  53.731  1.00  0.00    -0.058 SA
BRANCH  20  23
HETATM   23  O1  UNL     1      28.415  -3.261  52.838  1.00  0.00    -0.344 OA
HETATM   24  H15 UNL     1      27.765  -3.950  53.191  1.00  0.00     0.219 HD
ENDBRANCH  20  23
ENDBRANCH   8  18
TORSDOF 5
ENDMDL
MODEL 4
REMARK VINA RESULT:      -8.3      3.834      6.819
REMARK  5 active torsions:
REMARK  status: ('A' for Active; 'I' for Inactive)
REMARK    1  A    between atoms: C6_6  and  C7_7 
REMARK    2  A    between atoms: C7_7  and  C8_8 
REMARK    3  A    between atoms: C8_8  and  C9_9 
REMARK    4  A    between atoms: N2_17  and  C15_18 
REMARK    5  A    between atoms: C16_20  and  O1_21 
ROOT
HETATM    1  C1  UNL     1      22.675   2.375  47.865  1.00  0.00     0.070 C 
HETATM    2  C2  UNL     1      22.337   1.979  49.239  1.00  0.00     0.035 C 
HETATM    3  C3  UNL     1      21.195   1.307  49.437  1.00  0.00     0.027 C 
HETATM    4  C4  UNL     1      20.621   0.795  50.700  1.00  0.00     0.004 C 
HETATM    5  C5  UNL     1      21.282   0.706  51.861  1.00  0.00     0.029 C 
HETATM    6  C6  UNL     1      22.653   1.065  52.169  1.00  0.00     0.055 C 
HETATM    7  N1  UNL     1      23.507   1.774  51.462  1.00  0.00    -0.170 NA
HETATM    8  N2  UNL     1      23.280   2.358  50.216  1.00  0.00    -0.214 N 
ENDROOT
BRANCH   6   9
HETATM    9  C7  UNL     1      23.144   0.561  53.441  1.00  0.00     0.065 C 
BRANCH   9  10
HETATM   10  C8  UNL     1      23.851  -0.730  53.457  1.00  0.00     0.044 C 
BRANCH  10  11
HETATM   11  C9  UNL     1      25.330  -0.642  53.523  1.00  0.00    -0.058 A 
HETATM   12  C10 UNL     1      25.968   0.138  54.495  1.00  0.00     0.008 A 
HETATM   13  C11 UNL     1      27.359   0.215  54.535  1.00  0.00     0.019 A 
HETATM   14  C12 UNL     1      28.119  -0.470  53.623  1.00  0.00     0.011 A 
HETATM   15 BR1  UNL     1      30.036  -0.328  53.717  1.00  0.00    -0.051 Br
HETATM   16  C13 UNL     1      27.547  -1.253  52.644  1.00  0.00     0.019 A 
HETATM   17  C14 UNL     1      26.148  -1.325  52.611  1.00  0.00     0.008 A 
ENDBRANCH  10  11
ENDBRANCH   9  10
ENDBRANCH   6   9
BRANCH   8  18
HETATM   18  C15 UNL     1      24.158   3.452  49.997  1.00  0.00     0.196 A 
HETATM   19  N3  UNL     1      25.494   3.372  49.788  1.00  0.00    -0.198 NA
HETATM   20  C16 UNL     1      26.060   4.567  49.624  1.00  0.00     0.171 A 
HETATM   21  C17 UNL     1      25.412   5.897  49.645  1.00  0.00     0.111 A 
HETATM   22  S1  UNL     1      23.734   5.257  49.953  1.00  0.00    -0.058 SA
BRANCH  20  23
HETATM   23  O1  UNL     1      27.444   4.375  49.415  1.00  0.00    -0.344 OA
HETATM   24  H15 UNL     1      28.092   4.459  50.186  1.00  0.00     0.219 HD
ENDBRANCH  20  23
ENDBRANCH   8  18
TORSDOF 5
ENDMDL
MODEL 5
REMARK VINA RESULT:      -8.2      1.358      2.236
REMARK  5 active torsions:
REMARK  status: ('A' for Active; 'I' for Inactive)
REMARK    1  A    between atoms: C6_6  and  C7_7 
REMARK    2  A    between atoms: C7_7  and  C8_8 
REMARK    3  A    between atoms: C8_8  and  C9_9 
REMARK    4  A    between atoms: N2_17  and  C15_18 
REMARK    5  A    between atoms: C16_20  and  O1_21 
ROOT
HETATM    1  C1  UNL     1      24.208   0.692  53.498  1.00  0.00     0.070 C 
HETATM    2  C2  UNL     1      24.505   1.356  52.221  1.00  0.00     0.035 C 
HETATM    3  C3  UNL     1      23.477   1.817  51.497  1.00  0.00     0.027 C 
HETATM    4  C4  UNL     1      23.491   2.516  50.194  1.00  0.00     0.004 C 
HETATM    5  C5  UNL     1      24.583   3.032  49.614  1.00  0.00     0.029 C 
HETATM    6  C6  UNL     1      25.956   3.044  50.083  1.00  0.00     0.055 C 
HETATM    7  N1  UNL     1      26.507   2.358  51.062  1.00  0.00    -0.170 NA
HETATM    8  N2  UNL     1      25.876   1.438  51.898  1.00  0.00    -0.214 N 
ENDROOT
BRANCH   6   9
HETATM    9  C7  UNL     1      26.837   3.947  49.363  1.00  0.00     0.065 C 
BRANCH   9  10
HETATM   10  C8  UNL     1      26.365   5.313  49.085  1.00  0.00     0.044 C 
BRANCH  10  11
HETATM   11  C9  UNL     1      27.311   6.169  48.329  1.00  0.00    -0.058 A 
HETATM   12  C10 UNL     1      28.670   5.845  48.239  1.00  0.00     0.008 A 
HETATM   13  C11 UNL     1      29.545   6.667  47.531  1.00  0.00     0.019 A 
HETATM   14  C12 UNL     1      29.086   7.802  46.915  1.00  0.00     0.011 A 
HETATM   15 BR1  UNL     1      30.334   8.907  45.954  1.00  0.00    -0.051 Br
HETATM   16  C13 UNL     1      27.760   8.172  46.970  1.00  0.00     0.019 A 
HETATM   17  C14 UNL     1      26.887   7.340  47.683  1.00  0.00     0.008 A 
ENDBRANCH  10  11
ENDBRANCH   9  10
ENDBRANCH   6   9
BRANCH   8  18
HETATM   18  C15 UNL     1      26.810   0.521  52.446  1.00  0.00     0.196 A 
HETATM   19  N3  UNL     1      26.763  -0.828  52.335  1.00  0.00    -0.198 NA
HETATM   20  C16 UNL     1      27.770  -1.432  52.964  1.00  0.00     0.171 A 
HETATM   21  C17 UNL     1      28.873  -0.811  53.729  1.00  0.00     0.111 A 
HETATM   22  S1  UNL     1      28.314   0.903  53.462  1.00  0.00    -0.058 SA
BRANCH  20  23
HETATM   23  O1  UNL     1      27.629  -2.826  52.787  1.00  0.00    -0.344 OA
HETATM   24  H15 UNL     1      27.169  -3.385  53.493  1.00  0.00     0.219 HD
ENDBRANCH  20  23
ENDBRANCH   8  18
TORSDOF 5
ENDMDL
MODEL 6
REMARK VINA RESULT:      -8.1      4.736      7.985
REMARK  5 active torsions:
REMARK  status: ('A' for Active; 'I' for Inactive)
REMARK    1  A    between atoms: C6_6  and  C7_7 
REMARK    2  A    between atoms: C7_7  and  C8_8 
REMARK    3  A    between atoms: C8_8  and  C9_9 
REMARK    4  A    between atoms: N2_17  and  C15_18 
REMARK    5  A    between atoms: C16_20  and  O1_21 
ROOT
HETATM    1  C1  UNL     1      29.098   7.771  46.741  1.00  0.00     0.070 C 
HETATM    2  C2  UNL     1      28.194   7.017  47.621  1.00  0.00     0.035 C 
HETATM    3  C3  UNL     1      26.956   7.490  47.808  1.00  0.00     0.027 C 
HETATM    4  C4  UNL     1      25.859   6.938  48.631  1.00  0.00     0.004 C 
HETATM    5  C5  UNL     1      25.842   5.705  49.155  1.00  0.00     0.029 C 
HETATM    6  C6  UNL     1      26.832   4.650  49.059  1.00  0.00     0.055 C 
HETATM    7  N1  UNL     1      28.079   4.715  48.642  1.00  0.00    -0.170 NA
HETATM    8  N2  UNL     1      28.750   5.846  48.180  1.00  0.00    -0.214 N 
ENDROOT
BRANCH   6   9
HETATM    9  C7  UNL     1      26.371   3.341  49.485  1.00  0.00     0.065 C 
BRANCH   9  10
HETATM   10  C8  UNL     1      26.745   2.868  50.829  1.00  0.00     0.044 C 
BRANCH  10  11
HETATM   11  C9  UNL     1      25.731   2.028  51.511  1.00  0.00    -0.058 A 
HETATM   12  C10 UNL     1      24.362   2.215  51.284  1.00  0.00     0.008 A 
HETATM   13  C11 UNL     1      23.424   1.421  51.941  1.00  0.00     0.019 A 
HETATM   14  C12 UNL     1      23.831   0.448  52.817  1.00  0.00     0.011 A 
HETATM   15 BR1  UNL     1      22.497  -0.620  53.703  1.00  0.00    -0.051 Br
HETATM   16  C13 UNL     1      25.164   0.219  53.080  1.00  0.00     0.019 A 
HETATM   17  C14 UNL     1      26.099   1.021  52.415  1.00  0.00     0.008 A 
ENDBRANCH  10  11
ENDBRANCH   9  10
ENDBRANCH   6   9
BRANCH   8  18
HETATM   18  C15 UNL     1      30.154   5.704  48.326  1.00  0.00     0.196 A 
HETATM   19  N3  UNL     1      30.913   4.710  47.806  1.00  0.00    -0.198 NA
HETATM   20  C16 UNL     1      32.202   4.830  48.119  1.00  0.00     0.171 A 
HETATM   21  C17 UNL     1      32.852   5.881  48.932  1.00  0.00     0.111 A 
HETATM   22  S1  UNL     1      31.316   6.804  49.264  1.00  0.00    -0.058 SA
BRANCH  20  23
HETATM   23  O1  UNL     1      32.902   3.751  47.533  1.00  0.00    -0.344 OA
HETATM   24  H15 UNL     1      33.197   3.801  46.567  1.00  0.00     0.219 HD
ENDBRANCH  20  23
ENDBRANCH   8  18
TORSDOF 5
ENDMDL
MODEL 7
REMARK VINA RESULT:      -8.1      4.668      7.401
REMARK  5 active torsions:
REMARK  status: ('A' for Active; 'I' for Inactive)
REMARK    1  A    between atoms: C6_6  and  C7_7 
REMARK    2  A    between atoms: C7_7  and  C8_8 
REMARK    3  A    between atoms: C8_8  and  C9_9 
REMARK    4  A    between atoms: N2_17  and  C15_18 
REMARK    5  A    between atoms: C16_20  and  O1_21 
ROOT
HETATM    1  C1  UNL     1      22.667   3.497  48.145  1.00  0.00     0.070 C 
HETATM    2  C2  UNL     1      22.405   2.713  49.361  1.00  0.00     0.035 C 
HETATM    3  C3  UNL     1      21.712   1.574  49.237  1.00  0.00     0.027 C 
HETATM    4  C4  UNL     1      21.312   0.606  50.281  1.00  0.00     0.004 C 
HETATM    5  C5  UNL     1      21.796   0.585  51.530  1.00  0.00     0.029 C 
HETATM    6  C6  UNL     1      22.781   1.450  52.151  1.00  0.00     0.055 C 
HETATM    7  N1  UNL     1      23.264   2.599  51.727  1.00  0.00    -0.170 NA
HETATM    8  N2  UNL     1      22.931   3.264  50.548  1.00  0.00    -0.214 N 
ENDROOT
BRANCH   6   9
HETATM    9  C7  UNL     1      23.302   0.968  53.418  1.00  0.00     0.065 C 
BRANCH   9  10
HETATM   10  C8  UNL     1      23.886  -0.382  53.468  1.00  0.00     0.044 C 
BRANCH  10  11
HETATM   11  C9  UNL     1      25.366  -0.431  53.558  1.00  0.00    -0.058 A 
HETATM   12  C10 UNL     1      26.056   0.284  54.544  1.00  0.00     0.008 A 
HETATM   13  C11 UNL     1      27.448   0.233  54.607  1.00  0.00     0.019 A 
HETATM   14  C12 UNL     1      28.156  -0.517  53.704  1.00  0.00     0.011 A 
HETATM   15 BR1  UNL     1      30.076  -0.552  53.830  1.00  0.00    -0.051 Br
HETATM   16  C13 UNL     1      27.531  -1.241  52.712  1.00  0.00     0.019 A 
HETATM   17  C14 UNL     1      26.133  -1.184  52.657  1.00  0.00     0.008 A 
ENDBRANCH  10  11
ENDBRANCH   9  10
ENDBRANCH   6   9
BRANCH   8  18
HETATM   18  C15 UNL     1      23.195   4.654  50.653  1.00  0.00     0.196 A 
HETATM   19  N3  UNL     1      24.413   5.225  50.799  1.00  0.00    -0.198 NA
HETATM   20  C16 UNL     1      24.352   6.553  50.883  1.00  0.00     0.171 A 
HETATM   21  C17 UNL     1      23.153   7.418  50.833  1.00  0.00     0.111 A 
HETATM   22  S1  UNL     1      21.970   6.047  50.636  1.00  0.00    -0.058 SA
BRANCH  20  23
HETATM   23  O1  UNL     1      25.668   7.048  51.032  1.00  0.00    -0.344 OA
HETATM   24  H15 UNL     1      26.180   7.383  50.227  1.00  0.00     0.219 HD
ENDBRANCH  20  23
ENDBRANCH   8  18
TORSDOF 5
ENDMDL
MODEL 8
REMARK VINA RESULT:      -7.9      5.881      7.893
REMARK  5 active torsions:
REMARK  status: ('A' for Active; 'I' for Inactive)
REMARK    1  A    between atoms: C6_6  and  C7_7 
REMARK    2  A    between atoms: C7_7  and  C8_8 
REMARK    3  A    between atoms: C8_8  and  C9_9 
REMARK    4  A    between atoms: N2_17  and  C15_18 
REMARK    5  A    between atoms: C16_20  and  O1_21 
ROOT
HETATM    1  C1  UNL     1      18.093  -0.682  52.454  1.00  0.00     0.070 C 
HETATM    2  C2  UNL     1      19.448  -0.211  52.773  1.00  0.00     0.035 C 
HETATM    3  C3  UNL     1      20.143  -0.877  53.704  1.00  0.00     0.027 C 
HETATM    4  C4  UNL     1      21.509  -0.620  54.209  1.00  0.00     0.004 C 
HETATM    5  C5  UNL     1      22.397   0.201  53.634  1.00  0.00     0.029 C 
HETATM    6  C6  UNL     1      22.264   1.006  52.435  1.00  0.00     0.055 C 
HETATM    7  N1  UNL     1      21.179   1.311  51.754  1.00  0.00    -0.170 NA
HETATM    8  N2  UNL     1      19.873   0.916  52.038  1.00  0.00    -0.214 N 
ENDROOT
BRANCH   6   9
HETATM    9  C7  UNL     1      23.511   1.544  51.921  1.00  0.00     0.065 C 
BRANCH   9  10
HETATM   10  C8  UNL     1      24.465   2.135  52.874  1.00  0.00     0.044 C 
BRANCH  10  11
HETATM   11  C9  UNL     1      25.744   1.401  53.029  1.00  0.00    -0.058 A 
HETATM   12  C10 UNL     1      25.909   0.113  52.505  1.00  0.00     0.008 A 
HETATM   13  C11 UNL     1      27.116  -0.564  52.669  1.00  0.00     0.019 A 
HETATM   14  C12 UNL     1      28.155   0.022  53.345  1.00  0.00     0.011 A 
HETATM   15 BR1  UNL     1      29.800  -0.956  53.548  1.00  0.00    -0.051 Br
HETATM   16  C13 UNL     1      28.050   1.287  53.882  1.00  0.00     0.019 A 
HETATM   17  C14 UNL     1      26.834   1.960  53.712  1.00  0.00     0.008 A 
ENDBRANCH  10  11
ENDBRANCH   9  10
ENDBRANCH   6   9
BRANCH   8  18
HETATM   18  C15 UNL     1      18.932   1.814  51.471  1.00  0.00     0.196 A 
HETATM   19  N3  UNL     1      18.256   2.783  52.133  1.00  0.00    -0.198 NA
HETATM   20  C16 UNL     1      17.429   3.465  51.343  1.00  0.00     0.171 A 
HETATM   21  C17 UNL     1      17.188   3.280  49.895  1.00  0.00     0.111 A 
HETATM   22  S1  UNL     1      18.362   1.900  49.708  1.00  0.00    -0.058 SA
BRANCH  20  23
HETATM   23  O1  UNL     1      16.778   4.446  52.125  1.00  0.00    -0.344 OA
HETATM   24  H15 UNL     1      16.638   4.296  53.115  1.00  0.00     0.219 HD
ENDBRANCH  20  23
ENDBRANCH   8  18
TORSDOF 5
ENDMDL
MODEL 9
REMARK VINA RESULT:      -7.7      5.096      7.966
REMARK  5 active torsions:
REMARK  status: ('A' for Active; 'I' for Inactive)
REMARK    1  A    between atoms: C6_6  and  C7_7 
REMARK    2  A    between atoms: C7_7  and  C8_8 
REMARK    3  A    between atoms: C8_8  and  C9_9 
REMARK    4  A    between atoms: N2_17  and  C15_18 
REMARK    5  A    between atoms: C16_20  and  O1_21 
ROOT
HETATM    1  C1  UNL     1      22.825   8.182  49.325  1.00  0.00     0.070 C 
HETATM    2  C2  UNL     1      23.026   6.972  50.134  1.00  0.00     0.035 C 
HETATM    3  C3  UNL     1      21.973   6.472  50.792  1.00  0.00     0.027 C 
HETATM    4  C4  UNL     1      21.897   5.282  51.666  1.00  0.00     0.004 C 
HETATM    5  C5  UNL     1      22.843   4.338  51.758  1.00  0.00     0.029 C 
HETATM    6  C6  UNL     1      24.113   4.238  51.066  1.00  0.00     0.055 C 
HETATM    7  N1  UNL     1      24.753   5.150  50.365  1.00  0.00    -0.170 NA
HETATM    8  N2  UNL     1      24.341   6.459  50.119  1.00  0.00    -0.214 N 
ENDROOT
BRANCH   6   9
HETATM    9  C7  UNL     1      24.761   2.942  51.166  1.00  0.00     0.065 C 
BRANCH   9  10
HETATM   10  C8  UNL     1      24.781   2.268  52.475  1.00  0.00     0.044 C 
BRANCH  10  11
HETATM   11  C9  UNL     1      26.002   1.476  52.761  1.00  0.00    -0.058 A 
HETATM   12  C10 UNL     1      27.159   2.083  53.263  1.00  0.00     0.008 A 
HETATM   13  C11 UNL     1      28.299   1.323  53.518  1.00  0.00     0.019 A 
HETATM   14  C12 UNL     1      28.301  -0.027  53.281  1.00  0.00     0.011 A 
HETATM   15 BR1  UNL     1      29.902  -1.031  53.645  1.00  0.00    -0.051 Br
HETATM   16  C13 UNL     1      27.192  -0.679  52.788  1.00  0.00     0.019 A 
HETATM   17  C14 UNL     1      26.050   0.092  52.535  1.00  0.00     0.008 A 
ENDBRANCH  10  11
ENDBRANCH   9  10
ENDBRANCH   6   9
BRANCH   8  18
HETATM   18  C15 UNL     1      25.447   7.297  49.821  1.00  0.00     0.196 A 
HETATM   19  N3  UNL     1      26.031   8.177  50.668  1.00  0.00    -0.198 NA
HETATM   20  C16 UNL     1      27.044   8.836  50.107  1.00  0.00     0.171 A 
HETATM   21  C17 UNL     1      27.565   8.708  48.728  1.00  0.00     0.111 A 
HETATM   22  S1  UNL     1      26.371   7.430  48.218  1.00  0.00    -0.058 SA
BRANCH  20  23
HETATM   23  O1  UNL     1      27.581   9.722  51.067  1.00  0.00    -0.344 OA
HETATM   24  H15 UNL     1      28.089  10.545  50.771  1.00  0.00     0.219 HD
ENDBRANCH  20  23
ENDBRANCH   8  18
TORSDOF 5
ENDMDL
