MODEL 1
REMARK VINA RESULT:      -8.3      0.000      0.000
REMARK  4 active torsions:
REMARK  status: ('A' for Active; 'I' for Inactive)
REMARK    1  A    between atoms: C2_2  and  O2_4 
REMARK    2  A    between atoms: O2_4  and  C3_5 
REMARK    3  A    between atoms: C8_10  and  C9_11 
REMARK       I    between atoms: C9_11  and  N1_13 
REMARK    4  A    between atoms: N1_13  and  C10_14 
ROOT
HETATM    1  C3  UNL     1      20.278  -0.090  52.899  1.00  0.00     0.106 A 
HETATM    2  C4  UNL     1      20.065  -1.104  53.806  1.00  0.00     0.040 A 
HETATM    3  C5  UNL     1      21.160  -1.656  54.439  1.00  0.00     0.004 A 
HETATM    4  C6  UNL     1      22.401  -1.150  54.115  1.00  0.00     0.015 A 
HETATM    5  C7  UNL     1      22.613  -0.137  53.207  1.00  0.00     0.012 A 
HETATM    6  C8  UNL     1      23.878   0.354  52.900  1.00  0.00     0.076 A 
HETATM    7  P1  UNL     1      23.473   1.661  51.653  1.00  0.00     0.080 P 
HETATM    8  N2  UNL     1      21.738   1.416  51.680  1.00  0.00    -0.348 N 
HETATM    9  C16 UNL     1      20.812   2.162  50.888  1.00  0.00     0.155 C 
HETATM   10  C17 UNL     1      21.524   0.403  52.588  1.00  0.00     0.079 A 
ENDROOT
BRANCH   6  11
HETATM   11  C9  UNL     1      25.184   0.050  53.327  1.00  0.00     0.260 C 
HETATM   12  O3  UNL     1      25.384  -0.130  54.553  1.00  0.00    -0.267 OA
HETATM   13  N1  UNL     1      26.243  -0.049  52.390  1.00  0.00    -0.323 N 
HETATM   14  H7  UNL     1      26.060   0.103  51.379  1.00  0.00     0.169 HD
BRANCH  13  15
HETATM   15  C10 UNL     1      27.566  -0.361  52.860  1.00  0.00     0.035 A 
HETATM   16  C11 UNL     1      28.357   0.706  53.241  1.00  0.00     0.029 A 
HETATM   17  C12 UNL     1      29.629   0.384  53.691  1.00  0.00     0.002 A 
HETATM   18  C13 UNL     1      30.106  -0.923  53.767  1.00  0.00     0.000 A 
HETATM   19  C14 UNL     1      29.242  -1.934  53.364  1.00  0.00     0.002 A 
HETATM   20  C15 UNL     1      27.968  -1.674  52.908  1.00  0.00     0.029 A 
ENDBRANCH  13  15
ENDBRANCH   6  11
BRANCH   1  21
HETATM   21  O2  UNL     1      19.118   0.397  52.320  1.00  0.00    -0.277 OA
BRANCH  21  22
HETATM   22  C2  UNL     1      17.989  -0.404  52.299  1.00  0.00     0.260 C 
HETATM   23  C1  UNL     1      16.780  -1.272  52.447  1.00  0.00     0.126 C 
HETATM   24  O1  UNL     1      18.259  -0.138  51.079  1.00  0.00    -0.265 OA
ENDBRANCH  21  22
ENDBRANCH   1  21
TORSDOF 4
ENDMDL
MODEL 2
REMARK VINA RESULT:      -8.2      1.845      3.196
REMARK  4 active torsions:
REMARK  status: ('A' for Active; 'I' for Inactive)
REMARK    1  A    between atoms: C2_2  and  O2_4 
REMARK    2  A    between atoms: O2_4  and  C3_5 
REMARK    3  A    between atoms: C8_10  and  C9_11 
REMARK       I    between atoms: C9_11  and  N1_13 
REMARK    4  A    between atoms: N1_13  and  C10_14 
ROOT
HETATM    1  C3  UNL     1      21.119   2.651  52.445  1.00  0.00     0.106 A 
HETATM    2  C4  UNL     1      21.861   3.790  52.229  1.00  0.00     0.040 A 
HETATM    3  C5  UNL     1      23.229   3.721  52.396  1.00  0.00     0.004 A 
HETATM    4  C6  UNL     1      23.760   2.505  52.772  1.00  0.00     0.015 A 
HETATM    5  C7  UNL     1      23.017   1.367  52.989  1.00  0.00     0.012 A 
HETATM    6  C8  UNL     1      23.582   0.153  53.367  1.00  0.00     0.076 A 
HETATM    7  P1  UNL     1      22.083  -0.928  53.486  1.00  0.00     0.080 P 
HETATM    8  N2  UNL     1      20.924   0.306  53.037  1.00  0.00    -0.348 N 
HETATM    9  C16 UNL     1      19.516   0.085  52.943  1.00  0.00     0.155 C 
HETATM   10  C17 UNL     1      21.667   1.446  52.820  1.00  0.00     0.079 A 
ENDROOT
BRANCH   6  11
HETATM   11  C9  UNL     1      24.893  -0.286  53.626  1.00  0.00     0.260 C 
HETATM   12  O3  UNL     1      25.167  -0.699  54.779  1.00  0.00    -0.267 OA
HETATM   13  N1  UNL     1      25.876  -0.259  52.605  1.00  0.00    -0.323 N 
HETATM   14  H7  UNL     1      25.632   0.087  51.656  1.00  0.00     0.169 HD
BRANCH  13  15
HETATM   15  C10 UNL     1      27.207  -0.715  52.903  1.00  0.00     0.035 A 
HETATM   16  C11 UNL     1      27.455  -2.063  52.729  1.00  0.00     0.029 A 
HETATM   17  C12 UNL     1      28.745  -2.482  53.022  1.00  0.00     0.002 A 
HETATM   18  C13 UNL     1      29.748  -1.621  53.462  1.00  0.00     0.000 A 
HETATM   19  C14 UNL     1      29.410  -0.281  53.609  1.00  0.00     0.002 A 
HETATM   20  C15 UNL     1      28.146   0.192  53.333  1.00  0.00     0.029 A 
ENDBRANCH  13  15
ENDBRANCH   6  11
BRANCH   1  21
HETATM   21  O2  UNL     1      19.758   2.823  52.252  1.00  0.00    -0.277 OA
BRANCH  21  22
HETATM   22  C2  UNL     1      19.323   3.705  51.276  1.00  0.00     0.260 C 
HETATM   23  C1  UNL     1      19.008   4.636  50.149  1.00  0.00     0.126 C 
HETATM   24  O1  UNL     1      18.355   3.579  52.099  1.00  0.00    -0.265 OA
ENDBRANCH  21  22
ENDBRANCH   1  21
TORSDOF 4
ENDMDL
MODEL 3
REMARK VINA RESULT:      -8.0      1.965      2.434
REMARK  4 active torsions:
REMARK  status: ('A' for Active; 'I' for Inactive)
REMARK    1  A    between atoms: C2_2  and  O2_4 
REMARK    2  A    between atoms: O2_4  and  C3_5 
REMARK    3  A    between atoms: C8_10  and  C9_11 
REMARK       I    between atoms: C9_11  and  N1_13 
REMARK    4  A    between atoms: N1_13  and  C10_14 
ROOT
HETATM    1  C3  UNL     1      20.775   2.062  52.545  1.00  0.00     0.106 A 
HETATM    2  C4  UNL     1      20.473   0.788  52.972  1.00  0.00     0.040 A 
HETATM    3  C5  UNL     1      21.509  -0.109  53.137  1.00  0.00     0.004 A 
HETATM    4  C6  UNL     1      22.784   0.338  52.860  1.00  0.00     0.015 A 
HETATM    5  C7  UNL     1      23.084   1.612  52.432  1.00  0.00     0.012 A 
HETATM    6  C8  UNL     1      24.381   2.034  52.160  1.00  0.00     0.076 A 
HETATM    7  P1  UNL     1      24.096   3.790  51.648  1.00  0.00     0.080 P 
HETATM    8  N2  UNL     1      22.355   3.764  51.845  1.00  0.00    -0.348 N 
HETATM    9  C16 UNL     1      21.504   4.883  51.591  1.00  0.00     0.155 C 
HETATM   10  C17 UNL     1      22.053   2.490  52.273  1.00  0.00     0.079 A 
ENDROOT
BRANCH   6  11
HETATM   11  C9  UNL     1      25.648   1.423  52.210  1.00  0.00     0.260 C 
HETATM   12  O3  UNL     1      26.372   1.468  51.187  1.00  0.00    -0.267 OA
HETATM   13  N1  UNL     1      26.088   0.774  53.391  1.00  0.00    -0.323 N 
HETATM   14  H7  UNL     1      25.475   0.746  54.229  1.00  0.00     0.169 HD
BRANCH  13  15
HETATM   15  C10 UNL     1      27.388   0.160  53.409  1.00  0.00     0.035 A 
HETATM   16  C11 UNL     1      27.447  -1.177  53.066  1.00  0.00     0.029 A 
HETATM   17  C12 UNL     1      28.710  -1.752  53.089  1.00  0.00     0.002 A 
HETATM   18  C13 UNL     1      29.864  -1.048  53.431  1.00  0.00     0.000 A 
HETATM   19  C14 UNL     1      29.711   0.292  53.762  1.00  0.00     0.002 A 
HETATM   20  C15 UNL     1      28.482   0.915  53.756  1.00  0.00     0.029 A 
ENDBRANCH  13  15
ENDBRANCH   6  11
BRANCH   1  21
HETATM   21  O2  UNL     1      19.669   2.885  52.411  1.00  0.00    -0.277 OA
BRANCH  21  22
HETATM   22  C2  UNL     1      18.594   2.449  51.654  1.00  0.00     0.260 C 
HETATM   23  C1  UNL     1      17.522   1.833  50.812  1.00  0.00     0.126 C 
HETATM   24  O1  UNL     1      18.284   3.615  52.074  1.00  0.00    -0.265 OA
ENDBRANCH  21  22
ENDBRANCH   1  21
TORSDOF 4
ENDMDL
MODEL 4
REMARK VINA RESULT:      -7.7      1.969      7.989
REMARK  4 active torsions:
REMARK  status: ('A' for Active; 'I' for Inactive)
REMARK    1  A    between atoms: C2_2  and  O2_4 
REMARK    2  A    between atoms: O2_4  and  C3_5 
REMARK    3  A    between atoms: C8_10  and  C9_11 
REMARK       I    between atoms: C9_11  and  N1_13 
REMARK    4  A    between atoms: N1_13  and  C10_14 
ROOT
HETATM    1  C3  UNL     1      25.949   0.991  52.666  1.00  0.00     0.106 A 
HETATM    2  C4  UNL     1      25.970  -0.023  53.597  1.00  0.00     0.040 A 
HETATM    3  C5  UNL     1      24.765  -0.551  54.017  1.00  0.00     0.004 A 
HETATM    4  C6  UNL     1      23.616  -0.020  53.469  1.00  0.00     0.015 A 
HETATM    5  C7  UNL     1      23.597   0.995  52.538  1.00  0.00     0.012 A 
HETATM    6  C8  UNL     1      22.421   1.511  52.003  1.00  0.00     0.076 A 
HETATM    7  P1  UNL     1      23.078   2.804  50.852  1.00  0.00     0.080 P 
HETATM    8  N2  UNL     1      24.772   2.523  51.199  1.00  0.00    -0.348 N 
HETATM    9  C16 UNL     1      25.844   3.248  50.594  1.00  0.00     0.155 C 
HETATM   10  C17 UNL     1      24.793   1.508  52.130  1.00  0.00     0.079 A 
ENDROOT
BRANCH   6  11
HETATM   11  C9  UNL     1      21.053   1.237  52.183  1.00  0.00     0.260 C 
HETATM   12  O3  UNL     1      20.383   2.002  52.918  1.00  0.00    -0.267 OA
HETATM   13  N1  UNL     1      20.452   0.122  51.546  1.00  0.00    -0.323 N 
HETATM   14  H7  UNL     1      21.022  -0.502  50.941  1.00  0.00     0.169 HD
BRANCH  13  15
HETATM   15  C10 UNL     1      19.052  -0.130  51.751  1.00  0.00     0.035 A 
HETATM   16  C11 UNL     1      18.708  -0.843  52.884  1.00  0.00     0.029 A 
HETATM   17  C12 UNL     1      17.352  -1.076  53.064  1.00  0.00     0.002 A 
HETATM   18  C13 UNL     1      16.375  -0.630  52.176  1.00  0.00     0.000 A 
HETATM   19  C14 UNL     1      16.811   0.080  51.063  1.00  0.00     0.002 A 
HETATM   20  C15 UNL     1      18.144   0.340  50.833  1.00  0.00     0.029 A 
ENDBRANCH  13  15
ENDBRANCH   6  11
BRANCH   1  21
HETATM   21  O2  UNL     1      27.206   1.451  52.311  1.00  0.00    -0.277 OA
BRANCH  21  22
HETATM   22  C2  UNL     1      28.292   1.124  53.105  1.00  0.00     0.260 C 
HETATM   23  C1  UNL     1      29.398   0.612  53.973  1.00  0.00     0.126 C 
HETATM   24  O1  UNL     1      28.439   2.353  52.791  1.00  0.00    -0.265 OA
ENDBRANCH  21  22
ENDBRANCH   1  21
TORSDOF 4
ENDMDL
MODEL 5
REMARK VINA RESULT:      -7.5      6.788      9.007
REMARK  4 active torsions:
REMARK  status: ('A' for Active; 'I' for Inactive)
REMARK    1  A    between atoms: C2_2  and  O2_4 
REMARK    2  A    between atoms: O2_4  and  C3_5 
REMARK    3  A    between atoms: C8_10  and  C9_11 
REMARK       I    between atoms: C9_11  and  N1_13 
REMARK    4  A    between atoms: N1_13  and  C10_14 
ROOT
HETATM    1  C3  UNL     1      27.209   7.365  48.215  1.00  0.00     0.106 A 
HETATM    2  C4  UNL     1      28.371   6.731  47.836  1.00  0.00     0.040 A 
HETATM    3  C5  UNL     1      28.543   5.410  48.199  1.00  0.00     0.004 A 
HETATM    4  C6  UNL     1      27.530   4.816  48.922  1.00  0.00     0.015 A 
HETATM    5  C7  UNL     1      26.369   5.451  49.301  1.00  0.00     0.012 A 
HETATM    6  C8  UNL     1      25.365   4.825  50.032  1.00  0.00     0.076 A 
HETATM    7  P1  UNL     1      24.127   6.191  50.200  1.00  0.00     0.080 P 
HETATM    8  N2  UNL     1      25.048   7.391  49.316  1.00  0.00    -0.348 N 
HETATM    9  C16 UNL     1      24.606   8.730  49.087  1.00  0.00     0.155 C 
HETATM   10  C17 UNL     1      26.210   6.756  48.937  1.00  0.00     0.079 A 
ENDROOT
BRANCH   6  11
HETATM   11  C9  UNL     1      25.192   3.534  50.563  1.00  0.00     0.260 C 
HETATM   12  O3  UNL     1      24.353   2.774  50.022  1.00  0.00    -0.267 OA
HETATM   13  N1  UNL     1      25.949   3.109  51.683  1.00  0.00    -0.323 N 
HETATM   14  H7  UNL     1      26.639   3.751  52.120  1.00  0.00     0.169 HD
BRANCH  13  15
HETATM   15  C10 UNL     1      25.747   1.783  52.202  1.00  0.00     0.035 A 
HETATM   16  C11 UNL     1      26.665   0.822  51.826  1.00  0.00     0.029 A 
HETATM   17  C12 UNL     1      26.453  -0.450  52.337  1.00  0.00     0.002 A 
HETATM   18  C13 UNL     1      25.390  -0.768  53.180  1.00  0.00     0.000 A 
HETATM   19  C14 UNL     1      24.514   0.260  53.506  1.00  0.00     0.002 A 
HETATM   20  C15 UNL     1      24.675   1.542  53.029  1.00  0.00     0.029 A 
ENDBRANCH  13  15
ENDBRANCH   6  11
BRANCH   1  21
HETATM   21  O2  UNL     1      27.132   8.686  47.803  1.00  0.00    -0.277 OA
BRANCH  21  22
HETATM   22  C2  UNL     1      28.119   9.573  48.199  1.00  0.00     0.260 C 
HETATM   23  C1  UNL     1      29.244  10.405  48.728  1.00  0.00     0.126 C 
HETATM   24  O1  UNL     1      27.398  10.198  47.351  1.00  0.00    -0.265 OA
ENDBRANCH  21  22
ENDBRANCH   1  21
TORSDOF 4
ENDMDL
MODEL 6
REMARK VINA RESULT:      -7.2      5.880      8.415
REMARK  4 active torsions:
REMARK  status: ('A' for Active; 'I' for Inactive)
REMARK    1  A    between atoms: C2_2  and  O2_4 
REMARK    2  A    between atoms: O2_4  and  C3_5 
REMARK    3  A    between atoms: C8_10  and  C9_11 
REMARK       I    between atoms: C9_11  and  N1_13 
REMARK    4  A    between atoms: N1_13  and  C10_14 
ROOT
HETATM    1  C3  UNL     1      26.358   6.438  49.191  1.00  0.00     0.106 A 
HETATM    2  C4  UNL     1      27.347   5.604  48.721  1.00  0.00     0.040 A 
HETATM    3  C5  UNL     1      27.228   4.250  48.956  1.00  0.00     0.004 A 
HETATM    4  C6  UNL     1      26.117   3.824  49.653  1.00  0.00     0.015 A 
HETATM    5  C7  UNL     1      25.128   4.658  50.124  1.00  0.00     0.012 A 
HETATM    6  C8  UNL     1      24.018   4.200  50.824  1.00  0.00     0.076 A 
HETATM    7  P1  UNL     1      23.112   5.780  51.154  1.00  0.00     0.080 P 
HETATM    8  N2  UNL     1      24.266   6.829  50.356  1.00  0.00    -0.348 N 
HETATM    9  C16 UNL     1      24.127   8.248  50.262  1.00  0.00     0.155 C 
HETATM   10  C17 UNL     1      25.256   5.995  49.884  1.00  0.00     0.079 A 
ENDROOT
BRANCH   6  11
HETATM   11  C9  UNL     1      23.570   2.932  51.241  1.00  0.00     0.260 C 
HETATM   12  O3  UNL     1      23.269   2.088  50.363  1.00  0.00    -0.267 OA
HETATM   13  N1  UNL     1      23.463   2.624  52.620  1.00  0.00    -0.323 N 
HETATM   14  H7  UNL     1      23.716   3.336  53.334  1.00  0.00     0.169 HD
BRANCH  13  15
HETATM   15  C10 UNL     1      23.001   1.321  53.012  1.00  0.00     0.035 A 
HETATM   16  C11 UNL     1      23.969   0.364  53.251  1.00  0.00     0.029 A 
HETATM   17  C12 UNL     1      23.503  -0.887  53.628  1.00  0.00     0.002 A 
HETATM   18  C13 UNL     1      22.150  -1.189  53.767  1.00  0.00     0.000 A 
HETATM   19  C14 UNL     1      21.245  -0.167  53.508  1.00  0.00     0.002 A 
HETATM   20  C15 UNL     1      21.650   1.094  53.130  1.00  0.00     0.029 A 
ENDBRANCH  13  15
ENDBRANCH   6  11
BRANCH   1  21
HETATM   21  O2  UNL     1      26.569   7.777  48.903  1.00  0.00    -0.277 OA
BRANCH  21  22
HETATM   22  C2  UNL     1      27.170   8.120  47.704  1.00  0.00     0.260 C 
HETATM   23  C1  UNL     1      27.835   8.323  46.379  1.00  0.00     0.126 C 
HETATM   24  O1  UNL     1      26.861   9.220  48.275  1.00  0.00    -0.265 OA
ENDBRANCH  21  22
ENDBRANCH   1  21
TORSDOF 4
ENDMDL
MODEL 7
REMARK VINA RESULT:      -6.9      8.589     10.069
REMARK  4 active torsions:
REMARK  status: ('A' for Active; 'I' for Inactive)
REMARK    1  A    between atoms: C2_2  and  O2_4 
REMARK    2  A    between atoms: O2_4  and  C3_5 
REMARK    3  A    between atoms: C8_10  and  C9_11 
REMARK       I    between atoms: C9_11  and  N1_13 
REMARK    4  A    between atoms: N1_13  and  C10_14 
ROOT
HETATM    1  C3  UNL     1      26.347   7.314  49.172  1.00  0.00     0.106 A 
HETATM    2  C4  UNL     1      25.920   6.007  49.231  1.00  0.00     0.040 A 
HETATM    3  C5  UNL     1      26.805   5.012  48.867  1.00  0.00     0.004 A 
HETATM    4  C6  UNL     1      28.065   5.403  48.466  1.00  0.00     0.015 A 
HETATM    5  C7  UNL     1      28.491   6.711  48.407  1.00  0.00     0.012 A 
HETATM    6  C8  UNL     1      29.770   7.074  47.998  1.00  0.00     0.076 A 
HETATM    7  P1  UNL     1      29.692   8.918  48.144  1.00  0.00     0.080 P 
HETATM    8  N2  UNL     1      28.036   8.993  48.709  1.00  0.00    -0.348 N 
HETATM    9  C16 UNL     1      27.349  10.208  49.019  1.00  0.00     0.155 C 
HETATM   10  C17 UNL     1      27.609   7.685  48.769  1.00  0.00     0.079 A 
ENDROOT
BRANCH   6  11
HETATM   11  C9  UNL     1      30.906   6.365  47.567  1.00  0.00     0.260 C 
HETATM   12  O3  UNL     1      31.395   6.647  46.447  1.00  0.00    -0.267 OA
HETATM   13  N1  UNL     1      31.478   5.357  48.383  1.00  0.00    -0.323 N 
HETATM   14  H7  UNL     1      31.059   5.136  49.308  1.00  0.00     0.169 HD
BRANCH  13  15
HETATM   15  C10 UNL     1      32.639   4.651  47.913  1.00  0.00     0.035 A 
HETATM   16  C11 UNL     1      32.412   3.521  47.150  1.00  0.00     0.029 A 
HETATM   17  C12 UNL     1      33.544   2.854  46.706  1.00  0.00     0.002 A 
HETATM   18  C13 UNL     1      34.841   3.274  46.993  1.00  0.00     0.000 A 
HETATM   19  C14 UNL     1      34.976   4.421  47.766  1.00  0.00     0.002 A 
HETATM   20  C15 UNL     1      33.888   5.124  48.235  1.00  0.00     0.029 A 
ENDBRANCH  13  15
ENDBRANCH   6  11
BRANCH   1  21
HETATM   21  O2  UNL     1      25.386   8.236  49.556  1.00  0.00    -0.277 OA
BRANCH  21  22
HETATM   22  C2  UNL     1      24.185   7.780  50.072  1.00  0.00     0.260 C 
HETATM   23  C1  UNL     1      22.980   7.167  50.712  1.00  0.00     0.126 C 
HETATM   24  O1  UNL     1      23.897   8.779  49.331  1.00  0.00    -0.265 OA
ENDBRANCH  21  22
ENDBRANCH   1  21
TORSDOF 4
ENDMDL
MODEL 8
REMARK VINA RESULT:      -6.7     10.626     12.145
REMARK  4 active torsions:
REMARK  status: ('A' for Active; 'I' for Inactive)
REMARK    1  A    between atoms: C2_2  and  O2_4 
REMARK    2  A    between atoms: O2_4  and  C3_5 
REMARK    3  A    between atoms: C8_10  and  C9_11 
REMARK       I    between atoms: C9_11  and  N1_13 
REMARK    4  A    between atoms: N1_13  and  C10_14 
ROOT
HETATM    1  C3  UNL     1      28.397  10.596  48.797  1.00  0.00     0.106 A 
HETATM    2  C4  UNL     1      29.535  11.351  48.976  1.00  0.00     0.040 A 
HETATM    3  C5  UNL     1      30.755  10.707  48.971  1.00  0.00     0.004 A 
HETATM    4  C6  UNL     1      30.749   9.341  48.785  1.00  0.00     0.015 A 
HETATM    5  C7  UNL     1      29.611   8.586  48.607  1.00  0.00     0.012 A 
HETATM    6  C8  UNL     1      29.636   7.208  48.422  1.00  0.00     0.076 A 
HETATM    7  P1  UNL     1      27.832   6.828  48.250  1.00  0.00     0.080 P 
HETATM    8  N2  UNL     1      27.273   8.477  48.435  1.00  0.00    -0.348 N 
HETATM    9  C16 UNL     1      25.898   8.866  48.397  1.00  0.00     0.155 C 
HETATM   10  C17 UNL     1      28.411   9.233  48.613  1.00  0.00     0.079 A 
ENDROOT
BRANCH   6  11
HETATM   11  C9  UNL     1      30.655   6.240  48.360  1.00  0.00     0.260 C 
HETATM   12  O3  UNL     1      30.884   5.549  49.382  1.00  0.00    -0.267 OA
HETATM   13  N1  UNL     1      31.402   6.055  47.169  1.00  0.00    -0.323 N 
HETATM   14  H7  UNL     1      31.199   6.637  46.333  1.00  0.00     0.169 HD
BRANCH  13  15
HETATM   15  C10 UNL     1      32.437   5.058  47.140  1.00  0.00     0.035 A 
HETATM   16  C11 UNL     1      33.705   5.468  47.503  1.00  0.00     0.029 A 
HETATM   17  C12 UNL     1      34.690   4.491  47.468  1.00  0.00     0.002 A 
HETATM   18  C13 UNL     1      34.443   3.171  47.096  1.00  0.00     0.000 A 
HETATM   19  C14 UNL     1      33.139   2.846  46.747  1.00  0.00     0.002 A 
HETATM   20  C15 UNL     1      32.121   3.774  46.763  1.00  0.00     0.029 A 
ENDBRANCH  13  15
ENDBRANCH   6  11
BRANCH   1  21
HETATM   21  O2  UNL     1      27.225  11.334  48.819  1.00  0.00    -0.277 OA
BRANCH  21  22
HETATM   22  C2  UNL     1      27.245  12.641  48.361  1.00  0.00     0.260 C 
HETATM   23  C1  UNL     1      27.437  14.035  47.855  1.00  0.00     0.126 C 
HETATM   24  O1  UNL     1      26.019  12.359  48.580  1.00  0.00    -0.265 OA
ENDBRANCH  21  22
ENDBRANCH   1  21
TORSDOF 4
ENDMDL
MODEL 9
REMARK VINA RESULT:      -6.6      2.503      8.206
REMARK  4 active torsions:
REMARK  status: ('A' for Active; 'I' for Inactive)
REMARK    1  A    between atoms: C2_2  and  O2_4 
REMARK    2  A    between atoms: O2_4  and  C3_5 
REMARK    3  A    between atoms: C8_10  and  C9_11 
REMARK       I    between atoms: C9_11  and  N1_13 
REMARK    4  A    between atoms: N1_13  and  C10_14 
ROOT
HETATM    1  C3  UNL     1      25.024   0.409  52.734  1.00  0.00     0.106 A 
HETATM    2  C4  UNL     1      24.531  -0.594  53.539  1.00  0.00     0.040 A 
HETATM    3  C5  UNL     1      23.177  -0.612  53.807  1.00  0.00     0.004 A 
HETATM    4  C6  UNL     1      22.407   0.384  53.245  1.00  0.00     0.015 A 
HETATM    5  C7  UNL     1      22.901   1.387  52.442  1.00  0.00     0.012 A 
HETATM    6  C8  UNL     1      22.099   2.380  51.889  1.00  0.00     0.076 A 
HETATM    7  P1  UNL     1      23.343   3.377  50.948  1.00  0.00     0.080 P 
HETATM    8  N2  UNL     1      24.732   2.400  51.379  1.00  0.00    -0.348 N 
HETATM    9  C16 UNL     1      26.066   2.666  50.940  1.00  0.00     0.155 C 
HETATM   10  C17 UNL     1      24.240   1.395  52.183  1.00  0.00     0.079 A 
ENDROOT
BRANCH   6  11
HETATM   11  C9  UNL     1      20.724   2.678  51.937  1.00  0.00     0.260 C 
HETATM   12  O3  UNL     1      20.267   3.213  52.976  1.00  0.00    -0.267 OA
HETATM   13  N1  UNL     1      19.883   2.377  50.837  1.00  0.00    -0.323 N 
HETATM   14  H7  UNL     1      20.279   1.933  49.985  1.00  0.00     0.169 HD
BRANCH  13  15
HETATM   15  C10 UNL     1      18.483   2.694  50.919  1.00  0.00     0.035 A 
HETATM   16  C11 UNL     1      18.110   3.965  50.525  1.00  0.00     0.029 A 
HETATM   17  C12 UNL     1      16.755   4.251  50.612  1.00  0.00     0.002 A 
HETATM   18  C13 UNL     1      15.807   3.334  51.063  1.00  0.00     0.000 A 
HETATM   19  C14 UNL     1      16.271   2.079  51.438  1.00  0.00     0.002 A 
HETATM   20  C15 UNL     1      17.605   1.739  51.373  1.00  0.00     0.029 A 
ENDBRANCH  13  15
ENDBRANCH   6  11
BRANCH   1  21
HETATM   21  O2  UNL     1      26.391   0.340  52.526  1.00  0.00    -0.277 OA
BRANCH  21  22
HETATM   22  C2  UNL     1      27.235   0.255  53.621  1.00  0.00     0.260 C 
HETATM   23  C1  UNL     1      28.016   0.228  54.896  1.00  0.00     0.126 C 
HETATM   24  O1  UNL     1      27.902  -0.182  52.623  1.00  0.00    -0.265 OA
ENDBRANCH  21  22
ENDBRANCH   1  21
TORSDOF 4
ENDMDL
