MODEL 1
REMARK VINA RESULT:      -9.3      0.000      0.000
REMARK  8 active torsions:
REMARK  status: ('A' for Active; 'I' for Inactive)
REMARK    1  A    between atoms: C2_2  and  C3_3 
REMARK    2  A    between atoms: C4_4  and  C5_5 
REMARK    3  A    between atoms: C6_6  and  C7_7 
REMARK    4  A    between atoms: C7_7  and  C8_8 
REMARK    5  A    between atoms: N1_11  and  C10_12 
REMARK    6  A    between atoms: C11_14  and  O1_15 
REMARK    7  A    between atoms: C13_19  and  C14_20 
REMARK    8  A    between atoms: C17_23  and  O2_24 
ROOT
HETATM    1  C8  UNL     1      24.383   2.129  52.329  1.00  0.00     0.076 C 
HETATM    2  C9  UNL     1      23.751   3.302  53.005  1.00  0.00     0.036 C 
HETATM    3  S1  UNL     1      26.182   2.182  52.730  1.00  0.00    -0.009 SA
HETATM    4  N1  UNL     1      26.268   0.468  53.138  1.00  0.00    -0.179 N 
HETATM    5  N3  UNL     1      24.985   0.060  53.307  1.00  0.00    -0.161 NA
HETATM    6  C13 UNL     1      24.048   0.815  52.936  1.00  0.00     0.086 C 
ENDROOT
BRANCH   1   7
HETATM    7  C7  UNL     1      24.236   2.113  50.829  1.00  0.00     0.055 C 
BRANCH   7   8
HETATM    8  C6  UNL     1      24.054   3.452  50.244  1.00  0.00    -0.025 C 
HETATM    9  C5  UNL     1      25.052   4.076  49.640  1.00  0.00    -0.004 C 
BRANCH   9  10
HETATM   10  C4  UNL     1      26.432   3.806  49.344  1.00  0.00    -0.000 C 
HETATM   11  C3  UNL     1      27.409   4.535  48.865  1.00  0.00    -0.001 C 
BRANCH  11  12
HETATM   12  C2  UNL     1      27.214   5.934  48.507  1.00  0.00    -0.010 C 
HETATM   13  C1  UNL     1      28.203   6.671  48.036  1.00  0.00     0.011 C 
ENDBRANCH  11  12
ENDBRANCH   9  10
ENDBRANCH   7   8
ENDBRANCH   1   7
BRANCH   6  14
HETATM   14  C14 UNL     1      22.670   0.319  53.138  1.00  0.00    -0.008 A 
HETATM   15  C15 UNL     1      22.374  -0.521  54.161  1.00  0.00     0.016 A 
HETATM   16  C16 UNL     1      21.116  -1.027  54.410  1.00  0.00     0.037 A 
HETATM   17  C17 UNL     1      20.062  -0.663  53.565  1.00  0.00     0.065 A 
HETATM   18  C18 UNL     1      20.310   0.187  52.514  1.00  0.00     0.037 A 
HETATM   19  C19 UNL     1      21.590   0.639  52.344  1.00  0.00     0.016 A 
BRANCH  17  20
HETATM   20  O2  UNL     1      18.767  -1.136  53.757  1.00  0.00    -0.361 OA
HETATM   21  H17 UNL     1      18.357  -1.717  53.034  1.00  0.00     0.217 HD
ENDBRANCH  17  20
ENDBRANCH   6  14
BRANCH   4  22
HETATM   22  C10 UNL     1      27.419  -0.386  53.276  1.00  0.00     0.202 A 
HETATM   23  N2  UNL     1      27.565  -1.756  53.208  1.00  0.00    -0.198 NA
HETATM   24  C11 UNL     1      28.815  -2.128  53.391  1.00  0.00     0.171 A 
HETATM   25  C12 UNL     1      30.075  -1.185  53.663  1.00  0.00     0.111 A 
HETATM   26  S2  UNL     1      29.039   0.403  53.598  1.00  0.00    -0.057 SA
BRANCH  24  27
HETATM   27  O1  UNL     1      28.776  -3.540  53.289  1.00  0.00    -0.344 OA
HETATM   28  H13 UNL     1      28.376  -4.119  54.018  1.00  0.00     0.219 HD
ENDBRANCH  24  27
ENDBRANCH   4  22
TORSDOF 8
ENDMDL
MODEL 2
REMARK VINA RESULT:      -9.0      1.847      2.934
REMARK  8 active torsions:
REMARK  status: ('A' for Active; 'I' for Inactive)
REMARK    1  A    between atoms: C2_2  and  C3_3 
REMARK    2  A    between atoms: C4_4  and  C5_5 
REMARK    3  A    between atoms: C6_6  and  C7_7 
REMARK    4  A    between atoms: C7_7  and  C8_8 
REMARK    5  A    between atoms: N1_11  and  C10_12 
REMARK    6  A    between atoms: C11_14  and  O1_15 
REMARK    7  A    between atoms: C13_19  and  C14_20 
REMARK    8  A    between atoms: C17_23  and  O2_24 
ROOT
HETATM    1  C8  UNL     1      24.381   2.141  52.379  1.00  0.00     0.076 C 
HETATM    2  C9  UNL     1      23.768   3.325  53.053  1.00  0.00     0.036 C 
HETATM    3  S1  UNL     1      26.186   2.183  52.752  1.00  0.00    -0.009 SA
HETATM    4  N1  UNL     1      26.265   0.473  53.175  1.00  0.00    -0.179 N 
HETATM    5  N3  UNL     1      24.981   0.076  53.368  1.00  0.00    -0.161 NA
HETATM    6  C13 UNL     1      24.045   0.836  53.005  1.00  0.00     0.086 C 
ENDROOT
BRANCH   1   7
HETATM    7  C7  UNL     1      24.210   2.111  50.882  1.00  0.00     0.055 C 
BRANCH   7   8
HETATM    8  C6  UNL     1      23.693   3.373  50.326  1.00  0.00    -0.025 C 
HETATM    9  C5  UNL     1      23.072   3.402  49.159  1.00  0.00    -0.004 C 
BRANCH   9  10
HETATM   10  C4  UNL     1      22.702   2.455  48.143  1.00  0.00    -0.000 C 
HETATM   11  C3  UNL     1      21.851   1.461  48.105  1.00  0.00    -0.001 C 
BRANCH  11  12
HETATM   12  C2  UNL     1      21.031   1.113  49.258  1.00  0.00    -0.010 C 
HETATM   13  C1  UNL     1      19.819   1.612  49.419  1.00  0.00     0.011 C 
ENDBRANCH  11  12
ENDBRANCH   9  10
ENDBRANCH   7   8
ENDBRANCH   1   7
BRANCH   6  14
HETATM   14  C14 UNL     1      22.666   0.353  53.232  1.00  0.00    -0.008 A 
HETATM   15  C15 UNL     1      22.435  -0.801  53.908  1.00  0.00     0.016 A 
HETATM   16  C16 UNL     1      21.179  -1.315  54.156  1.00  0.00     0.037 A 
HETATM   17  C17 UNL     1      20.059  -0.619  53.689  1.00  0.00     0.065 A 
HETATM   18  C18 UNL     1      20.241   0.556  53.000  1.00  0.00     0.037 A 
HETATM   19  C19 UNL     1      21.524   0.990  52.801  1.00  0.00     0.016 A 
BRANCH  17  20
HETATM   20  O2  UNL     1      18.763  -1.080  53.904  1.00  0.00    -0.361 OA
HETATM   21  H17 UNL     1      18.623  -2.078  54.018  1.00  0.00     0.217 HD
ENDBRANCH  17  20
ENDBRANCH   6  14
BRANCH   4  22
HETATM   22  C10 UNL     1      27.412  -0.389  53.304  1.00  0.00     0.202 A 
HETATM   23  N2  UNL     1      27.552  -1.758  53.206  1.00  0.00    -0.198 NA
HETATM   24  C11 UNL     1      28.799  -2.140  53.391  1.00  0.00     0.171 A 
HETATM   25  C12 UNL     1      30.060  -1.208  53.695  1.00  0.00     0.111 A 
HETATM   26  S2  UNL     1      29.031   0.386  53.658  1.00  0.00    -0.057 SA
BRANCH  24  27
HETATM   27  O1  UNL     1      28.756  -3.548  53.257  1.00  0.00    -0.344 OA
HETATM   28  H13 UNL     1      28.274  -3.999  52.488  1.00  0.00     0.219 HD
ENDBRANCH  24  27
ENDBRANCH   4  22
TORSDOF 8
ENDMDL
MODEL 3
REMARK VINA RESULT:      -8.0      2.621      3.640
REMARK  8 active torsions:
REMARK  status: ('A' for Active; 'I' for Inactive)
REMARK    1  A    between atoms: C2_2  and  C3_3 
REMARK    2  A    between atoms: C4_4  and  C5_5 
REMARK    3  A    between atoms: C6_6  and  C7_7 
REMARK    4  A    between atoms: C7_7  and  C8_8 
REMARK    5  A    between atoms: N1_11  and  C10_12 
REMARK    6  A    between atoms: C11_14  and  O1_15 
REMARK    7  A    between atoms: C13_19  and  C14_20 
REMARK    8  A    between atoms: C17_23  and  O2_24 
ROOT
HETATM    1  C8  UNL     1      23.102   2.457  51.879  1.00  0.00     0.076 C 
HETATM    2  C9  UNL     1      22.052   3.462  52.228  1.00  0.00     0.036 C 
HETATM    3  S1  UNL     1      24.734   3.235  52.240  1.00  0.00    -0.009 SA
HETATM    4  N1  UNL     1      25.362   1.819  53.083  1.00  0.00    -0.179 N 
HETATM    5  N3  UNL     1      24.285   1.042  53.361  1.00  0.00    -0.161 NA
HETATM    6  C13 UNL     1      23.183   1.304  52.812  1.00  0.00     0.086 C 
ENDROOT
BRANCH   1   7
HETATM    7  C7  UNL     1      23.099   2.019  50.437  1.00  0.00     0.055 C 
BRANCH   7   8
HETATM    8  C6  UNL     1      23.488   3.086  49.500  1.00  0.00    -0.025 C 
HETATM    9  C5  UNL     1      22.858   3.248  48.348  1.00  0.00    -0.004 C 
BRANCH   9  10
HETATM   10  C4  UNL     1      21.772   2.618  47.648  1.00  0.00    -0.000 C 
HETATM   11  C3  UNL     1      20.474   2.609  47.821  1.00  0.00    -0.001 C 
BRANCH  11  12
HETATM   12  C2  UNL     1      19.844   3.345  48.909  1.00  0.00    -0.010 C 
HETATM   13  C1  UNL     1      19.346   2.725  49.964  1.00  0.00     0.011 C 
ENDBRANCH  11  12
ENDBRANCH   9  10
ENDBRANCH   7   8
ENDBRANCH   1   7
BRANCH   6  14
HETATM   14  C14 UNL     1      22.044   0.422  53.146  1.00  0.00    -0.008 A 
HETATM   15  C15 UNL     1      22.188  -0.598  54.029  1.00  0.00     0.016 A 
HETATM   16  C16 UNL     1      21.174  -1.462  54.387  1.00  0.00     0.037 A 
HETATM   17  C17 UNL     1      19.909  -1.293  53.814  1.00  0.00     0.065 A 
HETATM   18  C18 UNL     1      19.712  -0.273  52.914  1.00  0.00     0.037 A 
HETATM   19  C19 UNL     1      20.776   0.535  52.619  1.00  0.00     0.016 A 
BRANCH  17  20
HETATM   20  O2  UNL     1      18.840  -2.128  54.130  1.00  0.00    -0.361 OA
HETATM   21  H17 UNL     1      19.040  -3.001  54.608  1.00  0.00     0.217 HD
ENDBRANCH  17  20
ENDBRANCH   6  14
BRANCH   4  22
HETATM   22  C10 UNL     1      26.719   1.486  53.432  1.00  0.00     0.202 A 
HETATM   23  N2  UNL     1      27.735   2.231  53.997  1.00  0.00    -0.198 NA
HETATM   24  C11 UNL     1      28.836   1.524  54.152  1.00  0.00     0.171 A 
HETATM   25  C12 UNL     1      29.062  -0.009  53.766  1.00  0.00     0.111 A 
HETATM   26  S2  UNL     1      27.295  -0.220  53.110  1.00  0.00    -0.057 SA
BRANCH  24  27
HETATM   27  O1  UNL     1      29.753   2.432  54.733  1.00  0.00    -0.344 OA
HETATM   28  H13 UNL     1      29.452   3.180  55.346  1.00  0.00     0.219 HD
ENDBRANCH  24  27
ENDBRANCH   4  22
TORSDOF 8
ENDMDL
MODEL 4
REMARK VINA RESULT:      -7.8      3.499      6.520
REMARK  8 active torsions:
REMARK  status: ('A' for Active; 'I' for Inactive)
REMARK    1  A    between atoms: C2_2  and  C3_3 
REMARK    2  A    between atoms: C4_4  and  C5_5 
REMARK    3  A    between atoms: C6_6  and  C7_7 
REMARK    4  A    between atoms: C7_7  and  C8_8 
REMARK    5  A    between atoms: N1_11  and  C10_12 
REMARK    6  A    between atoms: C11_14  and  O1_15 
REMARK    7  A    between atoms: C13_19  and  C14_20 
REMARK    8  A    between atoms: C17_23  and  O2_24 
ROOT
HETATM    1  C8  UNL     1      23.595   3.533  50.638  1.00  0.00     0.076 C 
HETATM    2  C9  UNL     1      22.602   3.942  51.677  1.00  0.00     0.036 C 
HETATM    3  S1  UNL     1      24.119   5.067  49.760  1.00  0.00    -0.009 SA
HETATM    4  N1  UNL     1      25.837   4.672  49.836  1.00  0.00    -0.179 N 
HETATM    5  N3  UNL     1      25.953   3.690  50.765  1.00  0.00    -0.161 NA
HETATM    6  C13 UNL     1      24.914   3.113  51.180  1.00  0.00     0.086 C 
ENDROOT
BRANCH   1   7
HETATM    7  C7  UNL     1      23.070   2.561  49.613  1.00  0.00     0.055 C 
BRANCH   7   8
HETATM    8  C6  UNL     1      21.606   2.605  49.462  1.00  0.00    -0.025 C 
HETATM    9  C5  UNL     1      20.844   1.612  49.890  1.00  0.00    -0.004 C 
BRANCH   9  10
HETATM   10  C4  UNL     1      21.038   0.345  50.541  1.00  0.00    -0.000 C 
HETATM   11  C3  UNL     1      20.979  -0.043  51.790  1.00  0.00    -0.001 C 
BRANCH  11  12
HETATM   12  C2  UNL     1      20.662   0.887  52.865  1.00  0.00    -0.010 C 
HETATM   13  C1  UNL     1      20.831   0.561  54.133  1.00  0.00     0.011 C 
ENDBRANCH  11  12
ENDBRANCH   9  10
ENDBRANCH   7   8
ENDBRANCH   1   7
BRANCH   6  14
HETATM   14  C14 UNL     1      25.098   2.047  52.187  1.00  0.00    -0.008 A 
HETATM   15  C15 UNL     1      26.047   2.154  53.150  1.00  0.00     0.016 A 
HETATM   16  C16 UNL     1      26.279   1.200  54.119  1.00  0.00     0.037 A 
HETATM   17  C17 UNL     1      25.497   0.041  54.127  1.00  0.00     0.065 A 
HETATM   18  C18 UNL     1      24.522  -0.115  53.171  1.00  0.00     0.037 A 
HETATM   19  C19 UNL     1      24.362   0.883  52.250  1.00  0.00     0.016 A 
BRANCH  17  20
HETATM   20  O2  UNL     1      25.677  -0.963  55.075  1.00  0.00    -0.361 OA
HETATM   21  H17 UNL     1      25.581  -1.927  54.776  1.00  0.00     0.217 HD
ENDBRANCH  17  20
ENDBRANCH   6  14
BRANCH   4  22
HETATM   22  C10 UNL     1      26.939   5.229  49.096  1.00  0.00     0.202 A 
HETATM   23  N2  UNL     1      28.189   4.731  48.789  1.00  0.00    -0.198 NA
HETATM   24  C11 UNL     1      28.897   5.582  48.076  1.00  0.00     0.171 A 
HETATM   25  C12 UNL     1      28.450   7.033  47.579  1.00  0.00     0.111 A 
HETATM   26  S2  UNL     1      26.738   6.904  48.386  1.00  0.00    -0.057 SA
BRANCH  24  27
HETATM   27  O1  UNL     1      30.127   4.916  47.858  1.00  0.00    -0.344 OA
HETATM   28  H13 UNL     1      31.010   5.303  48.169  1.00  0.00     0.219 HD
ENDBRANCH  24  27
ENDBRANCH   4  22
TORSDOF 8
ENDMDL
MODEL 5
REMARK VINA RESULT:      -7.8      4.625      7.966
REMARK  8 active torsions:
REMARK  status: ('A' for Active; 'I' for Inactive)
REMARK    1  A    between atoms: C2_2  and  C3_3 
REMARK    2  A    between atoms: C4_4  and  C5_5 
REMARK    3  A    between atoms: C6_6  and  C7_7 
REMARK    4  A    between atoms: C7_7  and  C8_8 
REMARK    5  A    between atoms: N1_11  and  C10_12 
REMARK    6  A    between atoms: C11_14  and  O1_15 
REMARK    7  A    between atoms: C13_19  and  C14_20 
REMARK    8  A    between atoms: C17_23  and  O2_24 
ROOT
HETATM    1  C8  UNL     1      20.908   1.790  50.563  1.00  0.00     0.076 C 
HETATM    2  C9  UNL     1      21.460   0.724  49.674  1.00  0.00     0.036 C 
HETATM    3  S1  UNL     1      19.400   2.454  49.735  1.00  0.00    -0.009 SA
HETATM    4  N1  UNL     1      18.421   2.402  51.200  1.00  0.00    -0.179 N 
HETATM    5  N3  UNL     1      19.093   1.607  52.070  1.00  0.00    -0.161 NA
HETATM    6  C13 UNL     1      20.283   1.286  51.813  1.00  0.00     0.086 C 
ENDROOT
BRANCH   1   7
HETATM    7  C7  UNL     1      21.846   2.941  50.823  1.00  0.00     0.055 C 
BRANCH   7   8
HETATM    8  C6  UNL     1      23.212   2.706  50.326  1.00  0.00    -0.025 C 
HETATM    9  C5  UNL     1      24.197   2.398  51.152  1.00  0.00    -0.004 C 
BRANCH   9  10
HETATM   10  C4  UNL     1      24.357   2.196  52.566  1.00  0.00    -0.000 C 
HETATM   11  C3  UNL     1      24.934   1.264  53.284  1.00  0.00    -0.001 C 
BRANCH  11  12
HETATM   12  C2  UNL     1      25.597   0.125  52.664  1.00  0.00    -0.010 C 
HETATM   13  C1  UNL     1      26.836   0.209  52.214  1.00  0.00     0.011 C 
ENDBRANCH  11  12
ENDBRANCH   9  10
ENDBRANCH   7   8
ENDBRANCH   1   7
BRANCH   6  14
HETATM   14  C14 UNL     1      20.970   0.423  52.797  1.00  0.00    -0.008 A 
HETATM   15  C15 UNL     1      20.822   0.631  54.130  1.00  0.00     0.016 A 
HETATM   16  C16 UNL     1      21.433  -0.129  55.105  1.00  0.00     0.037 A 
HETATM   17  C17 UNL     1      22.262  -1.187  54.717  1.00  0.00     0.065 A 
HETATM   18  C18 UNL     1      22.444  -1.439  53.378  1.00  0.00     0.037 A 
HETATM   19  C19 UNL     1      21.798  -0.633  52.481  1.00  0.00     0.016 A 
BRANCH  17  20
HETATM   20  O2  UNL     1      22.910  -1.995  55.648  1.00  0.00    -0.361 OA
HETATM   21  H17 UNL     1      23.920  -2.075  55.591  1.00  0.00     0.217 HD
ENDBRANCH  17  20
ENDBRANCH   6  14
BRANCH   4  22
HETATM   22  C10 UNL     1      17.165   3.046  51.488  1.00  0.00     0.202 A 
HETATM   23  N2  UNL     1      16.666   3.621  52.639  1.00  0.00    -0.198 NA
HETATM   24  C11 UNL     1      15.455   4.107  52.461  1.00  0.00     0.171 A 
HETATM   25  C12 UNL     1      14.591   4.083  51.118  1.00  0.00     0.111 A 
HETATM   26  S2  UNL     1      15.940   3.179  50.136  1.00  0.00    -0.057 SA
BRANCH  24  27
HETATM   27  O1  UNL     1      15.108   4.648  53.723  1.00  0.00    -0.344 OA
HETATM   28  H13 UNL     1      15.663   4.472  54.552  1.00  0.00     0.219 HD
ENDBRANCH  24  27
ENDBRANCH   4  22
TORSDOF 8
ENDMDL
MODEL 6
REMARK VINA RESULT:      -7.7      3.480      6.227
REMARK  8 active torsions:
REMARK  status: ('A' for Active; 'I' for Inactive)
REMARK    1  A    between atoms: C2_2  and  C3_3 
REMARK    2  A    between atoms: C4_4  and  C5_5 
REMARK    3  A    between atoms: C6_6  and  C7_7 
REMARK    4  A    between atoms: C7_7  and  C8_8 
REMARK    5  A    between atoms: N1_11  and  C10_12 
REMARK    6  A    between atoms: C11_14  and  O1_15 
REMARK    7  A    between atoms: C13_19  and  C14_20 
REMARK    8  A    between atoms: C17_23  and  O2_24 
ROOT
HETATM    1  C8  UNL     1      24.446   3.483  50.609  1.00  0.00     0.076 C 
HETATM    2  C9  UNL     1      23.595   3.340  49.390  1.00  0.00     0.036 C 
HETATM    3  S1  UNL     1      24.578   1.810  51.373  1.00  0.00    -0.009 SA
HETATM    4  N1  UNL     1      26.323   1.919  51.608  1.00  0.00    -0.179 N 
HETATM    5  N3  UNL     1      26.741   2.948  50.829  1.00  0.00    -0.161 NA
HETATM    6  C13 UNL     1      25.885   3.724  50.329  1.00  0.00     0.086 C 
ENDROOT
BRANCH   1   7
HETATM    7  C7  UNL     1      23.905   4.432  51.646  1.00  0.00     0.055 C 
BRANCH   7   8
HETATM    8  C6  UNL     1      22.449   4.632  51.555  1.00  0.00    -0.025 C 
HETATM    9  C5  UNL     1      21.940   5.793  51.177  1.00  0.00    -0.004 C 
BRANCH   9  10
HETATM   10  C4  UNL     1      22.443   7.079  50.777  1.00  0.00    -0.000 C 
HETATM   11  C3  UNL     1      22.438   7.736  49.645  1.00  0.00    -0.001 C 
BRANCH  11  12
HETATM   12  C2  UNL     1      21.833   7.179  48.442  1.00  0.00    -0.010 C 
HETATM   13  C1  UNL     1      22.548   6.509  47.556  1.00  0.00     0.011 C 
ENDBRANCH  11  12
ENDBRANCH   9  10
ENDBRANCH   7   8
ENDBRANCH   1   7
BRANCH   6  14
HETATM   14  C14 UNL     1      26.396   4.831  49.493  1.00  0.00    -0.008 A 
HETATM   15  C15 UNL     1      27.611   4.751  48.896  1.00  0.00     0.016 A 
HETATM   16  C16 UNL     1      28.154   5.743  48.106  1.00  0.00     0.037 A 
HETATM   17  C17 UNL     1      27.421   6.915  47.895  1.00  0.00     0.065 A 
HETATM   18  C18 UNL     1      26.184   7.045  48.478  1.00  0.00     0.037 A 
HETATM   19  C19 UNL     1      25.725   6.009  49.245  1.00  0.00     0.016 A 
BRANCH  17  20
HETATM   20  O2  UNL     1      27.908   7.957  47.110  1.00  0.00    -0.361 OA
HETATM   21  H17 UNL     1      28.244   7.737  46.178  1.00  0.00     0.217 HD
ENDBRANCH  17  20
ENDBRANCH   6  14
BRANCH   4  22
HETATM   22  C10 UNL     1      27.187   1.122  52.440  1.00  0.00     0.202 A 
HETATM   23  N2  UNL     1      27.333  -0.243  52.577  1.00  0.00    -0.198 NA
HETATM   24  C11 UNL     1      28.259  -0.554  53.462  1.00  0.00     0.171 A 
HETATM   25  C12 UNL     1      29.153   0.455  54.318  1.00  0.00     0.111 A 
HETATM   26  S2  UNL     1      28.349   1.993  53.553  1.00  0.00    -0.057 SA
BRANCH  24  27
HETATM   27  O1  UNL     1      28.271  -1.969  53.471  1.00  0.00    -0.344 OA
HETATM   28  H13 UNL     1      27.573  -2.508  53.969  1.00  0.00     0.219 HD
ENDBRANCH  24  27
ENDBRANCH   4  22
TORSDOF 8
ENDMDL
MODEL 7
REMARK VINA RESULT:      -7.6      5.708      8.834
REMARK  8 active torsions:
REMARK  status: ('A' for Active; 'I' for Inactive)
REMARK    1  A    between atoms: C2_2  and  C3_3 
REMARK    2  A    between atoms: C4_4  and  C5_5 
REMARK    3  A    between atoms: C6_6  and  C7_7 
REMARK    4  A    between atoms: C7_7  and  C8_8 
REMARK    5  A    between atoms: N1_11  and  C10_12 
REMARK    6  A    between atoms: C11_14  and  O1_15 
REMARK    7  A    between atoms: C13_19  and  C14_20 
REMARK    8  A    between atoms: C17_23  and  O2_24 
ROOT
HETATM    1  C8  UNL     1      19.920   1.880  50.842  1.00  0.00     0.076 C 
HETATM    2  C9  UNL     1      20.912   0.951  51.462  1.00  0.00     0.036 C 
HETATM    3  S1  UNL     1      18.245   1.285  51.331  1.00  0.00    -0.009 SA
HETATM    4  N1  UNL     1      17.668   2.890  51.777  1.00  0.00    -0.179 N 
HETATM    5  N3  UNL     1      18.776   3.667  51.890  1.00  0.00    -0.161 NA
HETATM    6  C13 UNL     1      19.875   3.231  51.458  1.00  0.00     0.086 C 
ENDROOT
BRANCH   1   7
HETATM    7  C7  UNL     1      19.975   1.947  49.337  1.00  0.00     0.055 C 
BRANCH   7   8
HETATM    8  C6  UNL     1      21.140   1.254  48.763  1.00  0.00    -0.025 C 
HETATM    9  C5  UNL     1      22.193   1.929  48.332  1.00  0.00    -0.004 C 
BRANCH   9  10
HETATM   10  C4  UNL     1      22.593   3.307  48.247  1.00  0.00    -0.000 C 
HETATM   11  C3  UNL     1      23.636   3.971  48.679  1.00  0.00    -0.001 C 
BRANCH  11  12
HETATM   12  C2  UNL     1      24.704   3.314  49.422  1.00  0.00    -0.010 C 
HETATM   13  C1  UNL     1      25.837   3.935  49.696  1.00  0.00     0.011 C 
ENDBRANCH  11  12
ENDBRANCH   9  10
ENDBRANCH   7   8
ENDBRANCH   1   7
BRANCH   6  14
HETATM   14  C14 UNL     1      21.048   4.120  51.601  1.00  0.00    -0.008 A 
HETATM   15  C15 UNL     1      22.123   3.742  52.337  1.00  0.00     0.016 A 
HETATM   16  C16 UNL     1      23.250   4.517  52.518  1.00  0.00     0.037 A 
HETATM   17  C17 UNL     1      23.308   5.776  51.912  1.00  0.00     0.065 A 
HETATM   18  C18 UNL     1      22.244   6.205  51.155  1.00  0.00     0.037 A 
HETATM   19  C19 UNL     1      21.168   5.369  51.031  1.00  0.00     0.016 A 
BRANCH  17  20
HETATM   20  O2  UNL     1      24.414   6.610  52.052  1.00  0.00    -0.361 OA
HETATM   21  H17 UNL     1      25.253   6.226  52.473  1.00  0.00     0.217 HD
ENDBRANCH  17  20
ENDBRANCH   6  14
BRANCH   4  22
HETATM   22  C10 UNL     1      16.322   3.355  51.990  1.00  0.00     0.202 A 
HETATM   23  N2  UNL     1      15.688   3.868  53.103  1.00  0.00    -0.198 NA
HETATM   24  C11 UNL     1      14.432   4.177  52.856  1.00  0.00     0.171 A 
HETATM   25  C12 UNL     1      13.651   4.017  51.472  1.00  0.00     0.111 A 
HETATM   26  S2  UNL     1      15.162   3.300  50.576  1.00  0.00    -0.057 SA
BRANCH  24  27
HETATM   27  O1  UNL     1      13.948   4.679  54.088  1.00  0.00    -0.344 OA
HETATM   28  H13 UNL     1      14.350   4.401  54.975  1.00  0.00     0.219 HD
ENDBRANCH  24  27
ENDBRANCH   4  22
TORSDOF 8
ENDMDL
MODEL 8
REMARK VINA RESULT:      -7.5      3.021      7.102
REMARK  8 active torsions:
REMARK  status: ('A' for Active; 'I' for Inactive)
REMARK    1  A    between atoms: C2_2  and  C3_3 
REMARK    2  A    between atoms: C4_4  and  C5_5 
REMARK    3  A    between atoms: C6_6  and  C7_7 
REMARK    4  A    between atoms: C7_7  and  C8_8 
REMARK    5  A    between atoms: N1_11  and  C10_12 
REMARK    6  A    between atoms: C11_14  and  O1_15 
REMARK    7  A    between atoms: C13_19  and  C14_20 
REMARK    8  A    between atoms: C17_23  and  O2_24 
ROOT
HETATM    1  C8  UNL     1      24.524   1.554  52.384  1.00  0.00     0.076 C 
HETATM    2  C9  UNL     1      24.252   1.465  53.850  1.00  0.00     0.036 C 
HETATM    3  S1  UNL     1      24.429   3.338  51.927  1.00  0.00    -0.009 SA
HETATM    4  N1  UNL     1      25.918   3.303  50.981  1.00  0.00    -0.179 N 
HETATM    5  N3  UNL     1      26.557   2.159  51.334  1.00  0.00    -0.161 NA
HETATM    6  C13 UNL     1      25.936   1.292  52.003  1.00  0.00     0.086 C 
ENDROOT
BRANCH   1   7
HETATM    7  C7  UNL     1      23.554   0.794  51.516  1.00  0.00     0.055 C 
BRANCH   7   8
HETATM    8  C6  UNL     1      22.474   0.143  52.277  1.00  0.00    -0.025 C 
HETATM    9  C5  UNL     1      21.218   0.200  51.867  1.00  0.00    -0.004 C 
BRANCH   9  10
HETATM   10  C4  UNL     1      20.499   0.776  50.763  1.00  0.00    -0.000 C 
HETATM   11  C3  UNL     1      19.241   0.759  50.401  1.00  0.00    -0.001 C 
BRANCH  11  12
HETATM   12  C2  UNL     1      18.233   0.048  51.176  1.00  0.00    -0.010 C 
HETATM   13  C1  UNL     1      17.063  -0.274  50.656  1.00  0.00     0.011 C 
ENDBRANCH  11  12
ENDBRANCH   9  10
ENDBRANCH   7   8
ENDBRANCH   1   7
BRANCH   6  14
HETATM   14  C14 UNL     1      26.678   0.063  52.356  1.00  0.00    -0.008 A 
HETATM   15  C15 UNL     1      27.868   0.129  53.006  1.00  0.00     0.016 A 
HETATM   16  C16 UNL     1      28.617  -0.972  53.364  1.00  0.00     0.037 A 
HETATM   17  C17 UNL     1      28.138  -2.248  53.047  1.00  0.00     0.065 A 
HETATM   18  C18 UNL     1      26.937  -2.368  52.390  1.00  0.00     0.037 A 
HETATM   19  C19 UNL     1      26.262  -1.220  52.074  1.00  0.00     0.016 A 
BRANCH  17  20
HETATM   20  O2  UNL     1      28.842  -3.402  53.379  1.00  0.00    -0.361 OA
HETATM   21  H17 UNL     1      28.884  -3.673  54.356  1.00  0.00     0.217 HD
ENDBRANCH  17  20
ENDBRANCH   6  14
BRANCH   4  22
HETATM   22  C10 UNL     1      26.413   4.249  50.015  1.00  0.00     0.202 A 
HETATM   23  N2  UNL     1      27.600   4.314  49.314  1.00  0.00    -0.198 NA
HETATM   24  C11 UNL     1      27.644   5.362  48.516  1.00  0.00     0.171 A 
HETATM   25  C12 UNL     1      26.513   6.472  48.317  1.00  0.00     0.111 A 
HETATM   26  S2  UNL     1      25.338   5.659  49.565  1.00  0.00    -0.057 SA
BRANCH  24  27
HETATM   27  O1  UNL     1      28.909   5.270  47.889  1.00  0.00    -0.344 OA
HETATM   28  H13 UNL     1      29.505   4.458  48.000  1.00  0.00     0.219 HD
ENDBRANCH  24  27
ENDBRANCH   4  22
TORSDOF 8
ENDMDL
MODEL 9
REMARK VINA RESULT:      -7.5      2.811      6.194
REMARK  8 active torsions:
REMARK  status: ('A' for Active; 'I' for Inactive)
REMARK    1  A    between atoms: C2_2  and  C3_3 
REMARK    2  A    between atoms: C4_4  and  C5_5 
REMARK    3  A    between atoms: C6_6  and  C7_7 
REMARK    4  A    between atoms: C7_7  and  C8_8 
REMARK    5  A    between atoms: N1_11  and  C10_12 
REMARK    6  A    between atoms: C11_14  and  O1_15 
REMARK    7  A    between atoms: C13_19  and  C14_20 
REMARK    8  A    between atoms: C17_23  and  O2_24 
ROOT
HETATM    1  C8  UNL     1      23.937   2.832  50.968  1.00  0.00     0.076 C 
HETATM    2  C9  UNL     1      24.920   2.897  49.845  1.00  0.00     0.036 C 
HETATM    3  S1  UNL     1      22.283   2.510  50.219  1.00  0.00    -0.009 SA
HETATM    4  N1  UNL     1      21.868   1.244  51.374  1.00  0.00    -0.179 N 
HETATM    5  N3  UNL     1      23.033   0.890  51.975  1.00  0.00    -0.161 NA
HETATM    6  C13 UNL     1      24.049   1.615  51.814  1.00  0.00     0.086 C 
ENDROOT
BRANCH   1   7
HETATM    7  C7  UNL     1      23.842   4.088  51.796  1.00  0.00     0.055 C 
BRANCH   7   8
HETATM    8  C6  UNL     1      22.918   5.089  51.236  1.00  0.00    -0.025 C 
HETATM    9  C5  UNL     1      23.328   6.314  50.951  1.00  0.00    -0.004 C 
BRANCH   9  10
HETATM   10  C4  UNL     1      24.557   7.055  51.032  1.00  0.00    -0.000 C 
HETATM   11  C3  UNL     1      25.616   7.130  50.265  1.00  0.00    -0.001 C 
BRANCH  11  12
HETATM   12  C2  UNL     1      25.722   6.360  49.033  1.00  0.00    -0.010 C 
HETATM   13  C1  UNL     1      26.866   5.822  48.652  1.00  0.00     0.011 C 
ENDBRANCH  11  12
ENDBRANCH   9  10
ENDBRANCH   7   8
ENDBRANCH   1   7
BRANCH   6  14
HETATM   14  C14 UNL     1      25.290   1.188  52.495  1.00  0.00    -0.008 A 
HETATM   15  C15 UNL     1      25.710   1.804  53.628  1.00  0.00     0.016 A 
HETATM   16  C16 UNL     1      26.856   1.463  54.316  1.00  0.00     0.037 A 
HETATM   17  C17 UNL     1      27.650   0.418  53.831  1.00  0.00     0.065 A 
HETATM   18  C18 UNL     1      27.266  -0.238  52.686  1.00  0.00     0.037 A 
HETATM   19  C19 UNL     1      26.114   0.168  52.070  1.00  0.00     0.016 A 
BRANCH  17  20
HETATM   20  O2  UNL     1      28.819   0.022  54.475  1.00  0.00    -0.361 OA
HETATM   21  H17 UNL     1      29.102   0.528  55.307  1.00  0.00     0.217 HD
ENDBRANCH  17  20
ENDBRANCH   6  14
BRANCH   4  22
HETATM   22  C10 UNL     1      20.586   0.660  51.675  1.00  0.00     0.202 A 
HETATM   23  N2  UNL     1      20.138  -0.075  52.753  1.00  0.00    -0.198 NA
HETATM   24  C11 UNL     1      18.871  -0.414  52.626  1.00  0.00     0.171 A 
HETATM   25  C12 UNL     1      17.894  -0.063  51.412  1.00  0.00     0.111 A 
HETATM   26  S2  UNL     1      19.234   0.889  50.464  1.00  0.00    -0.057 SA
BRANCH  24  27
HETATM   27  O1  UNL     1      18.588  -1.150  53.801  1.00  0.00    -0.344 OA
HETATM   28  H13 UNL     1      17.749  -0.990  54.345  1.00  0.00     0.219 HD
ENDBRANCH  24  27
ENDBRANCH   4  22
TORSDOF 8
ENDMDL
