MODEL 1
REMARK VINA RESULT:      -7.4      0.000      0.000
REMARK  5 active torsions:
REMARK  status: ('A' for Active; 'I' for Inactive)
REMARK    1  A    between atoms: N1_1  and  C1_2 
REMARK    2  A    between atoms: C1_2  and  C3_5 
REMARK    3  A    between atoms: C3_5  and  C4_6 
REMARK    4  A    between atoms: C7_9  and  N2_10 
REMARK    5  A    between atoms: N2_10  and  C8_11 
ROOT
HETATM    1  C4  UNL     1      25.989  -1.128  53.250  1.00  0.00     0.028 C 
HETATM    2  C5  UNL     1      25.045  -0.235  53.025  1.00  0.00     0.043 A 
HETATM    3  C6  UNL     1      23.708  -0.331  53.697  1.00  0.00     0.137 A 
HETATM    4  C7  UNL     1      22.850   0.793  53.264  1.00  0.00     0.111 A 
HETATM    5  N3  UNL     1      23.162   1.750  52.428  1.00  0.00    -0.228 NA
HETATM    6  C14 UNL     1      24.456   1.747  51.846  1.00  0.00     0.235 A 
HETATM    7  N4  UNL     1      25.319   0.829  52.127  1.00  0.00    -0.246 NA
ENDROOT
BRANCH   4   8
HETATM    8  N2  UNL     1      21.534   0.896  53.778  1.00  0.00    -0.344 N 
HETATM    9  H8  UNL     1      21.379   1.420  54.691  1.00  0.00     0.167 HD
BRANCH   8  10
HETATM   10  C8  UNL     1      20.361   0.361  53.185  1.00  0.00     0.035 A 
HETATM   11  C9  UNL     1      19.791   0.926  52.040  1.00  0.00     0.029 A 
HETATM   12  C10 UNL     1      18.659   0.428  51.438  1.00  0.00     0.004 A 
HETATM   13  C11 UNL     1      18.017  -0.666  51.938  1.00  0.00     0.024 A 
HETATM   14  C12 UNL     1      18.539  -1.261  53.067  1.00  0.00     0.036 A 
HETATM   15 CL1  UNL     1      17.730  -2.680  53.742  1.00  0.00    -0.084 Cl
HETATM   16  C13 UNL     1      19.660  -0.736  53.630  1.00  0.00     0.053 A 
ENDBRANCH   8  10
ENDBRANCH   4   8
BRANCH   1  17
HETATM   17  C3  UNL     1      27.287  -1.049  52.608  1.00  0.00     0.038 C 
BRANCH  17  18
HETATM   18  C1  UNL     1      28.299  -1.730  53.073  1.00  0.00     0.177 A 
HETATM   19  C2  UNL     1      29.516  -1.154  53.599  1.00  0.00     0.218 A 
HETATM   20  O1  UNL     1      29.524  -2.429  53.633  1.00  0.00    -0.342 OA
BRANCH  18  21
HETATM   21  N1  UNL     1      28.174  -3.142  53.050  1.00  0.00    -0.395 N 
HETATM   22  H1  UNL     1      27.826  -3.892  52.403  1.00  0.00     0.153 HD
HETATM   23  H2  UNL     1      28.135  -4.178  53.152  1.00  0.00     0.153 HD
ENDBRANCH  18  21
ENDBRANCH  17  18
ENDBRANCH   1  17
TORSDOF 5
ENDMDL
MODEL 2
REMARK VINA RESULT:      -7.4      5.686      8.304
REMARK  5 active torsions:
REMARK  status: ('A' for Active; 'I' for Inactive)
REMARK    1  A    between atoms: N1_1  and  C1_2 
REMARK    2  A    between atoms: C1_2  and  C3_5 
REMARK    3  A    between atoms: C3_5  and  C4_6 
REMARK    4  A    between atoms: C7_9  and  N2_10 
REMARK    5  A    between atoms: N2_10  and  C8_11 
ROOT
HETATM    1  C4  UNL     1      26.781   5.043  48.997  1.00  0.00     0.028 C 
HETATM    2  C5  UNL     1      26.076   4.369  49.886  1.00  0.00     0.043 A 
HETATM    3  C6  UNL     1      26.487   2.995  50.322  1.00  0.00     0.137 A 
HETATM    4  C7  UNL     1      25.524   2.479  51.318  1.00  0.00     0.111 A 
HETATM    5  N3  UNL     1      24.461   3.088  51.782  1.00  0.00    -0.228 NA
HETATM    6  C14 UNL     1      24.163   4.389  51.301  1.00  0.00     0.235 A 
HETATM    7  N4  UNL     1      24.912   4.973  50.427  1.00  0.00    -0.246 NA
ENDROOT
BRANCH   4   8
HETATM    8  N2  UNL     1      25.719   1.187  51.866  1.00  0.00    -0.344 N 
HETATM    9  H8  UNL     1      24.953   0.458  51.747  1.00  0.00     0.167 HD
BRANCH   8  10
HETATM   10  C8  UNL     1      26.865   0.745  52.576  1.00  0.00     0.035 A 
HETATM   11  C9  UNL     1      27.621   1.614  53.370  1.00  0.00     0.029 A 
HETATM   12  C10 UNL     1      28.732   1.214  54.075  1.00  0.00     0.004 A 
HETATM   13  C11 UNL     1      29.166  -0.078  54.037  1.00  0.00     0.024 A 
HETATM   14  C12 UNL     1      28.454  -0.975  53.268  1.00  0.00     0.036 A 
HETATM   15 CL1  UNL     1      28.992  -2.657  53.196  1.00  0.00    -0.084 Cl
HETATM   16  C13 UNL     1      27.362  -0.538  52.587  1.00  0.00     0.053 A 
ENDBRANCH   8  10
ENDBRANCH   4   8
BRANCH   1  17
HETATM   17  C3  UNL     1      26.396   6.374  48.565  1.00  0.00     0.038 C 
BRANCH  17  18
HETATM   18  C1  UNL     1      26.972   7.428  49.077  1.00  0.00     0.177 A 
HETATM   19  C2  UNL     1      28.015   8.196  48.436  1.00  0.00     0.218 A 
HETATM   20  O1  UNL     1      27.700   8.659  49.583  1.00  0.00    -0.342 OA
BRANCH  18  21
HETATM   21  N1  UNL     1      26.524   7.832  50.360  1.00  0.00    -0.395 N 
HETATM   22  H1  UNL     1      26.706   8.601  51.051  1.00  0.00     0.153 HD
HETATM   23  H2  UNL     1      26.118   8.026  51.298  1.00  0.00     0.153 HD
ENDBRANCH  18  21
ENDBRANCH  17  18
ENDBRANCH   1  17
TORSDOF 5
ENDMDL
MODEL 3
REMARK VINA RESULT:      -7.4      2.687      3.193
REMARK  5 active torsions:
REMARK  status: ('A' for Active; 'I' for Inactive)
REMARK    1  A    between atoms: N1_1  and  C1_2 
REMARK    2  A    between atoms: C1_2  and  C3_5 
REMARK    3  A    between atoms: C3_5  and  C4_6 
REMARK    4  A    between atoms: C7_9  and  N2_10 
REMARK    5  A    between atoms: N2_10  and  C8_11 
ROOT
HETATM    1  C4  UNL     1      25.763  -0.136  52.813  1.00  0.00     0.028 C 
HETATM    2  C5  UNL     1      24.837  -0.514  53.674  1.00  0.00     0.043 A 
HETATM    3  C6  UNL     1      23.381  -0.449  53.325  1.00  0.00     0.137 A 
HETATM    4  C7  UNL     1      22.573  -0.930  54.467  1.00  0.00     0.111 A 
HETATM    5  N3  UNL     1      23.013  -1.357  55.623  1.00  0.00    -0.228 NA
HETATM    6  C14 UNL     1      24.413  -1.378  55.850  1.00  0.00     0.235 A 
HETATM    7  N4  UNL     1      25.248  -0.987  54.946  1.00  0.00    -0.246 NA
ENDROOT
BRANCH   4   8
HETATM    8  N2  UNL     1      21.161  -0.951  54.355  1.00  0.00    -0.344 N 
HETATM    9  H8  UNL     1      20.606  -1.612  54.979  1.00  0.00     0.167 HD
BRANCH   8  10
HETATM   10  C8  UNL     1      20.380  -0.158  53.476  1.00  0.00     0.035 A 
HETATM   11  C9  UNL     1      19.264  -0.677  52.811  1.00  0.00     0.029 A 
HETATM   12  C10 UNL     1      18.483   0.067  51.957  1.00  0.00     0.004 A 
HETATM   13  C11 UNL     1      18.762   1.378  51.707  1.00  0.00     0.024 A 
HETATM   14  C12 UNL     1      19.852   1.938  52.338  1.00  0.00     0.036 A 
HETATM   15 CL1  UNL     1      20.242   3.635  52.034  1.00  0.00    -0.084 Cl
HETATM   16  C13 UNL     1      20.597   1.167  53.174  1.00  0.00     0.053 A 
ENDBRANCH   8  10
ENDBRANCH   4   8
BRANCH   1  17
HETATM   17  C3  UNL     1      27.177  -0.193  53.135  1.00  0.00     0.038 C 
BRANCH  17  18
HETATM   18  C1  UNL     1      27.766   0.820  53.710  1.00  0.00     0.177 A 
HETATM   19  C2  UNL     1      27.999   2.105  53.090  1.00  0.00     0.218 A 
HETATM   20  O1  UNL     1      28.436   2.053  54.288  1.00  0.00    -0.342 OA
BRANCH  18  21
HETATM   21  N1  UNL     1      28.203   0.623  55.044  1.00  0.00    -0.395 N 
HETATM   22  H1  UNL     1      28.407  -0.173  55.697  1.00  0.00     0.153 HD
HETATM   23  H2  UNL     1      28.530   0.609  56.032  1.00  0.00     0.153 HD
ENDBRANCH  18  21
ENDBRANCH  17  18
ENDBRANCH   1  17
TORSDOF 5
ENDMDL
MODEL 4
REMARK VINA RESULT:      -7.1      4.325      8.174
REMARK  5 active torsions:
REMARK  status: ('A' for Active; 'I' for Inactive)
REMARK    1  A    between atoms: N1_1  and  C1_2 
REMARK    2  A    between atoms: C1_2  and  C3_5 
REMARK    3  A    between atoms: C3_5  and  C4_6 
REMARK    4  A    between atoms: C7_9  and  N2_10 
REMARK    5  A    between atoms: N2_10  and  C8_11 
ROOT
HETATM    1  C4  UNL     1      20.638  -0.027  52.792  1.00  0.00     0.028 C 
HETATM    2  C5  UNL     1      21.913  -0.087  53.128  1.00  0.00     0.043 A 
HETATM    3  C6  UNL     1      22.959   0.640  52.337  1.00  0.00     0.137 A 
HETATM    4  C7  UNL     1      24.291   0.400  52.933  1.00  0.00     0.111 A 
HETATM    5  N3  UNL     1      24.567  -0.326  53.987  1.00  0.00    -0.228 NA
HETATM    6  C14 UNL     1      23.500  -0.972  54.664  1.00  0.00     0.235 A 
HETATM    7  N4  UNL     1      22.280  -0.857  54.261  1.00  0.00    -0.246 NA
ENDROOT
BRANCH   4   8
HETATM    8  N2  UNL     1      25.432   0.993  52.339  1.00  0.00    -0.344 N 
HETATM    9  H8  UNL     1      25.316   1.524  51.424  1.00  0.00     0.167 HD
BRANCH   8  10
HETATM   10  C8  UNL     1      26.755   0.957  52.850  1.00  0.00     0.035 A 
HETATM   11  C9  UNL     1      27.392   2.107  53.326  1.00  0.00     0.029 A 
HETATM   12  C10 UNL     1      28.671   2.104  53.832  1.00  0.00     0.004 A 
HETATM   13  C11 UNL     1      29.401   0.954  53.898  1.00  0.00     0.024 A 
HETATM   14  C12 UNL     1      28.818  -0.208  53.441  1.00  0.00     0.036 A 
HETATM   15 CL1  UNL     1      29.739  -1.715  53.511  1.00  0.00    -0.084 Cl
HETATM   16  C13 UNL     1      27.552  -0.161  52.949  1.00  0.00     0.053 A 
ENDBRANCH   8  10
ENDBRANCH   4   8
BRANCH   1  17
HETATM   17  C3  UNL     1      19.614  -0.725  53.547  1.00  0.00     0.038 C 
BRANCH  17  18
HETATM   18  C1  UNL     1      18.428  -0.914  53.036  1.00  0.00     0.177 A 
HETATM   19  C2  UNL     1      18.000  -0.445  51.737  1.00  0.00     0.218 A 
HETATM   20  O1  UNL     1      17.082  -1.080  52.355  1.00  0.00    -0.342 OA
BRANCH  18  21
HETATM   21  N1  UNL     1      17.504  -1.636  53.832  1.00  0.00    -0.395 N 
HETATM   22  H1  UNL     1      16.828  -1.455  54.615  1.00  0.00     0.153 HD
HETATM   23  H2  UNL     1      16.861  -2.272  54.349  1.00  0.00     0.153 HD
ENDBRANCH  18  21
ENDBRANCH  17  18
ENDBRANCH   1  17
TORSDOF 5
ENDMDL
MODEL 5
REMARK VINA RESULT:      -7.0      5.374      7.633
REMARK  5 active torsions:
REMARK  status: ('A' for Active; 'I' for Inactive)
REMARK    1  A    between atoms: N1_1  and  C1_2 
REMARK    2  A    between atoms: C1_2  and  C3_5 
REMARK    3  A    between atoms: C3_5  and  C4_6 
REMARK    4  A    between atoms: C7_9  and  N2_10 
REMARK    5  A    between atoms: N2_10  and  C8_11 
ROOT
HETATM    1  C4  UNL     1      26.796   0.405  51.894  1.00  0.00     0.028 C 
HETATM    2  C5  UNL     1      26.098   1.508  51.699  1.00  0.00     0.043 A 
HETATM    3  C6  UNL     1      26.217   2.286  50.423  1.00  0.00     0.137 A 
HETATM    4  C7  UNL     1      25.330   3.468  50.476  1.00  0.00     0.111 A 
HETATM    5  N3  UNL     1      24.543   3.824  51.459  1.00  0.00    -0.228 NA
HETATM    6  C14 UNL     1      24.506   3.015  52.624  1.00  0.00     0.235 A 
HETATM    7  N4  UNL     1      25.226   1.949  52.727  1.00  0.00    -0.246 NA
ENDROOT
BRANCH   4   8
HETATM    8  N2  UNL     1      25.287   4.350  49.368  1.00  0.00    -0.344 N 
HETATM    9  H8  UNL     1      24.426   4.346  48.741  1.00  0.00     0.167 HD
BRANCH   8  10
HETATM   10  C8  UNL     1      26.299   5.272  48.993  1.00  0.00     0.035 A 
HETATM   11  C9  UNL     1      26.068   6.651  48.973  1.00  0.00     0.029 A 
HETATM   12  C10 UNL     1      27.028   7.570  48.620  1.00  0.00     0.004 A 
HETATM   13  C11 UNL     1      28.284   7.176  48.263  1.00  0.00     0.024 A 
HETATM   14  C12 UNL     1      28.563   5.826  48.267  1.00  0.00     0.036 A 
HETATM   15 CL1  UNL     1      30.181   5.283  47.807  1.00  0.00    -0.084 Cl
HETATM   16  C13 UNL     1      27.585   4.952  48.622  1.00  0.00     0.053 A 
ENDBRANCH   8  10
ENDBRANCH   4   8
BRANCH   1  17
HETATM   17  C3  UNL     1      26.692  -0.359  53.123  1.00  0.00     0.038 C 
BRANCH  17  18
HETATM   18  C1  UNL     1      27.478  -0.099  54.132  1.00  0.00     0.177 A 
HETATM   19  C2  UNL     1      28.885  -0.423  54.193  1.00  0.00     0.218 A 
HETATM   20  O1  UNL     1      28.471   0.159  55.251  1.00  0.00    -0.342 OA
BRANCH  18  21
HETATM   21  N1  UNL     1      26.885   0.551  55.245  1.00  0.00    -0.395 N 
HETATM   22  H1  UNL     1      27.155   0.866  56.209  1.00  0.00     0.153 HD
HETATM   23  H2  UNL     1      26.341   1.034  55.989  1.00  0.00     0.153 HD
ENDBRANCH  18  21
ENDBRANCH  17  18
ENDBRANCH   1  17
TORSDOF 5
ENDMDL
MODEL 6
REMARK VINA RESULT:      -7.0      3.892      5.316
REMARK  5 active torsions:
REMARK  status: ('A' for Active; 'I' for Inactive)
REMARK    1  A    between atoms: N1_1  and  C1_2 
REMARK    2  A    between atoms: C1_2  and  C3_5 
REMARK    3  A    between atoms: C3_5  and  C4_6 
REMARK    4  A    between atoms: C7_9  and  N2_10 
REMARK    5  A    between atoms: N2_10  and  C8_11 
ROOT
HETATM    1  C4  UNL     1      26.679  -0.127  52.337  1.00  0.00     0.028 C 
HETATM    2  C5  UNL     1      25.492   0.402  52.568  1.00  0.00     0.043 A 
HETATM    3  C6  UNL     1      25.217   1.846  52.275  1.00  0.00     0.137 A 
HETATM    4  C7  UNL     1      23.817   2.168  52.627  1.00  0.00     0.111 A 
HETATM    5  N3  UNL     1      22.918   1.354  53.121  1.00  0.00    -0.228 NA
HETATM    6  C14 UNL     1      23.284   0.004  53.361  1.00  0.00     0.235 A 
HETATM    7  N4  UNL     1      24.473  -0.427  53.104  1.00  0.00    -0.246 NA
ENDROOT
BRANCH   4   8
HETATM    8  N2  UNL     1      23.340   3.487  52.433  1.00  0.00    -0.344 N 
HETATM    9  H8  UNL     1      22.764   3.944  53.203  1.00  0.00     0.167 HD
BRANCH   8  10
HETATM   10  C8  UNL     1      23.557   4.295  51.287  1.00  0.00     0.035 A 
HETATM   11  C9  UNL     1      23.434   3.783  49.991  1.00  0.00     0.029 A 
HETATM   12  C10 UNL     1      23.632   4.541  48.861  1.00  0.00     0.004 A 
HETATM   13  C11 UNL     1      23.967   5.860  48.944  1.00  0.00     0.024 A 
HETATM   14  C12 UNL     1      24.101   6.413  50.200  1.00  0.00     0.036 A 
HETATM   15 CL1  UNL     1      24.537   8.120  50.344  1.00  0.00    -0.084 Cl
HETATM   16  C13 UNL     1      23.896   5.628  51.291  1.00  0.00     0.053 A 
ENDBRANCH   8  10
ENDBRANCH   4   8
BRANCH   1  17
HETATM   17  C3  UNL     1      26.961  -1.523  52.616  1.00  0.00     0.038 C 
BRANCH  17  18
HETATM   18  C1  UNL     1      28.127  -1.883  53.079  1.00  0.00     0.177 A 
HETATM   19  C2  UNL     1      29.143  -0.976  53.565  1.00  0.00     0.218 A 
HETATM   20  O1  UNL     1      29.504  -2.198  53.633  1.00  0.00    -0.342 OA
BRANCH  18  21
HETATM   21  N1  UNL     1      28.398  -3.275  53.097  1.00  0.00    -0.395 N 
HETATM   22  H1  UNL     1      28.286  -4.108  52.468  1.00  0.00     0.153 HD
HETATM   23  H2  UNL     1      28.646  -4.277  53.230  1.00  0.00     0.153 HD
ENDBRANCH  18  21
ENDBRANCH  17  18
ENDBRANCH   1  17
TORSDOF 5
ENDMDL
MODEL 7
REMARK VINA RESULT:      -6.8      5.411      7.751
REMARK  5 active torsions:
REMARK  status: ('A' for Active; 'I' for Inactive)
REMARK    1  A    between atoms: N1_1  and  C1_2 
REMARK    2  A    between atoms: C1_2  and  C3_5 
REMARK    3  A    between atoms: C3_5  and  C4_6 
REMARK    4  A    between atoms: C7_9  and  N2_10 
REMARK    5  A    between atoms: N2_10  and  C8_11 
ROOT
HETATM    1  C4  UNL     1      24.909   0.859  52.180  1.00  0.00     0.028 C 
HETATM    2  C5  UNL     1      24.623   2.119  51.914  1.00  0.00     0.043 A 
HETATM    3  C6  UNL     1      24.906   2.711  50.566  1.00  0.00     0.137 A 
HETATM    4  C7  UNL     1      24.490   4.130  50.547  1.00  0.00     0.111 A 
HETATM    5  N3  UNL     1      23.952   4.810  51.528  1.00  0.00    -0.228 NA
HETATM    6  C14 UNL     1      23.728   4.153  52.765  1.00  0.00     0.235 A 
HETATM    7  N4  UNL     1      24.040   2.912  52.935  1.00  0.00    -0.246 NA
ENDROOT
BRANCH   4   8
HETATM    8  N2  UNL     1      24.670   4.888  49.364  1.00  0.00    -0.344 N 
HETATM    9  H8  UNL     1      23.827   5.074  48.740  1.00  0.00     0.167 HD
BRANCH   8  10
HETATM   10  C8  UNL     1      25.890   5.448  48.907  1.00  0.00     0.035 A 
HETATM   11  C9  UNL     1      27.081   4.714  48.903  1.00  0.00     0.029 A 
HETATM   12  C10 UNL     1      28.279   5.226  48.461  1.00  0.00     0.004 A 
HETATM   13  C11 UNL     1      28.372   6.504  47.994  1.00  0.00     0.024 A 
HETATM   14  C12 UNL     1      27.225   7.269  47.977  1.00  0.00     0.036 A 
HETATM   15 CL1  UNL     1      27.312   8.930  47.380  1.00  0.00    -0.084 Cl
HETATM   16  C13 UNL     1      26.062   6.724  48.423  1.00  0.00     0.053 A 
ENDBRANCH   8  10
ENDBRANCH   4   8
BRANCH   1  17
HETATM   17  C3  UNL     1      24.642   0.272  53.480  1.00  0.00     0.038 C 
BRANCH  17  18
HETATM   18  C1  UNL     1      25.625  -0.083  54.261  1.00  0.00     0.177 A 
HETATM   19  C2  UNL     1      26.989   0.383  54.142  1.00  0.00     0.218 A 
HETATM   20  O1  UNL     1      26.833  -0.432  55.111  1.00  0.00    -0.342 OA
BRANCH  18  21
HETATM   21  N1  UNL     1      25.311  -0.997  55.298  1.00  0.00    -0.395 N 
HETATM   22  H1  UNL     1      25.806  -1.682  55.921  1.00  0.00     0.153 HD
HETATM   23  H2  UNL     1      24.957  -1.629  56.046  1.00  0.00     0.153 HD
ENDBRANCH  18  21
ENDBRANCH  17  18
ENDBRANCH   1  17
TORSDOF 5
ENDMDL
MODEL 8
REMARK VINA RESULT:      -6.8      2.153      2.318
REMARK  5 active torsions:
REMARK  status: ('A' for Active; 'I' for Inactive)
REMARK    1  A    between atoms: N1_1  and  C1_2 
REMARK    2  A    between atoms: C1_2  and  C3_5 
REMARK    3  A    between atoms: C3_5  and  C4_6 
REMARK    4  A    between atoms: C7_9  and  N2_10 
REMARK    5  A    between atoms: N2_10  and  C8_11 
ROOT
HETATM    1  C4  UNL     1      25.597   0.561  53.225  1.00  0.00     0.028 C 
HETATM    2  C5  UNL     1      24.756   1.415  52.673  1.00  0.00     0.043 A 
HETATM    3  C6  UNL     1      23.293   1.381  52.998  1.00  0.00     0.137 A 
HETATM    4  C7  UNL     1      22.591   2.441  52.242  1.00  0.00     0.111 A 
HETATM    5  N3  UNL     1      23.118   3.301  51.408  1.00  0.00    -0.228 NA
HETATM    6  C14 UNL     1      24.516   3.245  51.172  1.00  0.00     0.235 A 
HETATM    7  N4  UNL     1      25.264   2.373  51.759  1.00  0.00    -0.246 NA
ENDROOT
BRANCH   4   8
HETATM    8  N2  UNL     1      21.190   2.589  52.396  1.00  0.00    -0.344 N 
HETATM    9  H8  UNL     1      20.816   3.458  52.885  1.00  0.00     0.167 HD
BRANCH   8  10
HETATM   10  C8  UNL     1      20.199   1.675  51.953  1.00  0.00     0.035 A 
HETATM   11  C9  UNL     1      19.643   1.756  50.673  1.00  0.00     0.029 A 
HETATM   12  C10 UNL     1      18.685   0.883  50.211  1.00  0.00     0.004 A 
HETATM   13  C11 UNL     1      18.217  -0.130  50.996  1.00  0.00     0.024 A 
HETATM   14  C12 UNL     1      18.734  -0.253  52.268  1.00  0.00     0.036 A 
HETATM   15 CL1  UNL     1      18.146  -1.553  53.310  1.00  0.00    -0.084 Cl
HETATM   16  C13 UNL     1      19.679   0.632  52.684  1.00  0.00     0.053 A 
ENDBRANCH   8  10
ENDBRANCH   4   8
BRANCH   1  17
HETATM   17  C3  UNL     1      27.016   0.581  52.922  1.00  0.00     0.038 C 
BRANCH  17  18
HETATM   18  C1  UNL     1      27.867   1.089  53.770  1.00  0.00     0.177 A 
HETATM   19  C2  UNL     1      28.742   0.322  54.629  1.00  0.00     0.218 A 
HETATM   20  O1  UNL     1      28.885   1.581  54.784  1.00  0.00    -0.342 OA
BRANCH  18  21
HETATM   21  N1  UNL     1      27.922   2.505  53.840  1.00  0.00    -0.395 N 
HETATM   22  H1  UNL     1      27.259   3.318  53.865  1.00  0.00     0.153 HD
HETATM   23  H2  UNL     1      28.091   3.530  53.895  1.00  0.00     0.153 HD
ENDBRANCH  18  21
ENDBRANCH  17  18
ENDBRANCH   1  17
TORSDOF 5
ENDMDL
MODEL 9
REMARK VINA RESULT:      -6.8      5.523      7.445
REMARK  5 active torsions:
REMARK  status: ('A' for Active; 'I' for Inactive)
REMARK    1  A    between atoms: N1_1  and  C1_2 
REMARK    2  A    between atoms: C1_2  and  C3_5 
REMARK    3  A    between atoms: C3_5  and  C4_6 
REMARK    4  A    between atoms: C7_9  and  N2_10 
REMARK    5  A    between atoms: N2_10  and  C8_11 
ROOT
HETATM    1  C4  UNL     1      27.187   5.298  48.597  1.00  0.00     0.028 C 
HETATM    2  C5  UNL     1      26.184   4.963  49.385  1.00  0.00     0.043 A 
HETATM    3  C6  UNL     1      25.792   3.528  49.575  1.00  0.00     0.137 A 
HETATM    4  C7  UNL     1      24.644   3.444  50.503  1.00  0.00     0.111 A 
HETATM    5  N3  UNL     1      24.029   4.437  51.095  1.00  0.00    -0.228 NA
HETATM    6  C14 UNL     1      24.481   5.759  50.845  1.00  0.00     0.235 A 
HETATM    7  N4  UNL     1      25.475   5.993  50.055  1.00  0.00    -0.246 NA
ENDROOT
BRANCH   4   8
HETATM    8  N2  UNL     1      24.105   2.174  50.824  1.00  0.00    -0.344 N 
HETATM    9  H8  UNL     1      23.267   1.817  50.272  1.00  0.00     0.167 HD
BRANCH   8  10
HETATM   10  C8  UNL     1      24.578   1.295  51.832  1.00  0.00     0.035 A 
HETATM   11  C9  UNL     1      23.713   0.700  52.756  1.00  0.00     0.029 A 
HETATM   12  C10 UNL     1      24.139  -0.161  53.741  1.00  0.00     0.004 A 
HETATM   13  C11 UNL     1      25.457  -0.486  53.872  1.00  0.00     0.024 A 
HETATM   14  C12 UNL     1      26.352   0.075  52.985  1.00  0.00     0.036 A 
HETATM   15 CL1  UNL     1      28.067  -0.325  53.129  1.00  0.00    -0.084 Cl
HETATM   16  C13 UNL     1      25.888   0.920  52.027  1.00  0.00     0.053 A 
ENDBRANCH   8  10
ENDBRANCH   4   8
BRANCH   1  17
HETATM   17  C3  UNL     1      27.578   6.682  48.402  1.00  0.00     0.038 C 
BRANCH  17  18
HETATM   18  C1  UNL     1      28.826   7.041  48.532  1.00  0.00     0.177 A 
HETATM   19  C2  UNL     1      29.334   8.375  48.300  1.00  0.00     0.218 A 
HETATM   20  O1  UNL     1      30.248   7.558  48.655  1.00  0.00    -0.342 OA
BRANCH  18  21
HETATM   21  N1  UNL     1      29.737   6.030  48.932  1.00  0.00    -0.395 N 
HETATM   22  H1  UNL     1      30.648   5.619  48.610  1.00  0.00     0.153 HD
HETATM   23  H2  UNL     1      30.325   5.266  49.324  1.00  0.00     0.153 HD
ENDBRANCH  18  21
ENDBRANCH  17  18
ENDBRANCH   1  17
TORSDOF 5
ENDMDL
