MODEL 1
REMARK VINA RESULT:      -8.8      0.000      0.000
REMARK  7 active torsions:
REMARK  status: ('A' for Active; 'I' for Inactive)
REMARK    1  A    between atoms: C6_7  and  C7_8 
REMARK    2  A    between atoms: C6_7  and  N3_25 
REMARK    3  A    between atoms: C7_8  and  N1_9 
REMARK    4  A    between atoms: C8_10  and  C9_11 
REMARK    5  A    between atoms: C9_11  and  N2_12 
REMARK    6  A    between atoms: N2_12  and  C10_13 
REMARK    7  A    between atoms: C14_17  and  C15_18 
ROOT
HETATM    1  N2  UNL     1      23.703   3.428  49.459  1.00  0.00    -0.385 N 
HETATM    2  H11 UNL     1      23.710   3.675  48.423  1.00  0.00     0.160 HD
ENDROOT
BRANCH   1   3
HETATM    3  C9  UNL     1      24.567   4.106  50.369  1.00  0.00     0.166 C 
BRANCH   3   4
HETATM    4  C8  UNL     1      25.997   3.745  50.249  1.00  0.00     0.102 C 
HETATM    5  N1  UNL     1      26.867   3.069  50.847  1.00  0.00    -0.302 NA
BRANCH   5   6
HETATM    6  C7  UNL     1      26.331   2.409  52.053  1.00  0.00     0.178 C 
BRANCH   6   7
HETATM    7  C6  UNL     1      27.163   1.258  52.294  1.00  0.00     0.065 A 
HETATM    8  C5  UNL     1      28.233   1.786  52.998  1.00  0.00    -0.008 A 
HETATM    9  C4  UNL     1      28.337   0.268  53.155  1.00  0.00     0.051 A 
HETATM   10  C3  UNL     1      29.524  -0.621  53.977  1.00  0.00     0.025 A 
HETATM   11  C22 UNL     1      27.294  -0.859  52.498  1.00  0.00     0.129 A 
HETATM   12  C1  UNL     1      27.651  -0.917  52.756  1.00  0.00     0.141 A 
HETATM   13  C2  UNL     1      28.836  -1.947  53.453  1.00  0.00     0.058 A 
HETATM   14  N3  UNL     1      26.619   0.004  51.977  1.00  0.00    -0.258 NA
HETATM   15  O1  UNL     1      26.977  -0.597  54.228  1.00  0.00    -0.213 OA
ENDBRANCH   6   7
ENDBRANCH   5   6
ENDBRANCH   3   4
ENDBRANCH   1   3
BRANCH   1  16
HETATM   16  C10 UNL     1      22.805   2.413  49.856  1.00  0.00     0.029 A 
HETATM   17  C11 UNL     1      21.720   2.044  49.078  1.00  0.00     0.029 A 
HETATM   18  C12 UNL     1      20.800   1.062  49.426  1.00  0.00     0.003 A 
HETATM   19  C13 UNL     1      20.974   0.394  50.640  1.00  0.00     0.012 A 
HETATM   20  C14 UNL     1      22.062   0.749  51.441  1.00  0.00    -0.024 A 
HETATM   21  C21 UNL     1      22.947   1.735  51.048  1.00  0.00     0.041 A 
BRANCH  20  22
HETATM   22  C15 UNL     1      22.153  -0.003  52.692  1.00  0.00    -0.026 A 
HETATM   23  C16 UNL     1      21.018  -0.583  53.221  1.00  0.00     0.012 A 
HETATM   24  C17 UNL     1      21.109  -1.294  54.423  1.00  0.00     0.001 A 
HETATM   25  C18 UNL     1      22.369  -1.380  55.033  1.00  0.00     0.000 A 
HETATM   26  C19 UNL     1      23.498  -0.804  54.508  1.00  0.00     0.001 A 
HETATM   27  C20 UNL     1      23.383  -0.099  53.306  1.00  0.00     0.012 A 
ENDBRANCH  20  22
ENDBRANCH   1  16
TORSDOF 7
ENDMDL
MODEL 2
REMARK VINA RESULT:      -8.8      1.889      4.711
REMARK  7 active torsions:
REMARK  status: ('A' for Active; 'I' for Inactive)
REMARK    1  A    between atoms: C6_7  and  C7_8 
REMARK    2  A    between atoms: C6_7  and  N3_25 
REMARK    3  A    between atoms: C7_8  and  N1_9 
REMARK    4  A    between atoms: C8_10  and  C9_11 
REMARK    5  A    between atoms: C9_11  and  N2_12 
REMARK    6  A    between atoms: N2_12  and  C10_13 
REMARK    7  A    between atoms: C14_17  and  C15_18 
ROOT
HETATM    1  N2  UNL     1      21.627   0.383  51.723  1.00  0.00    -0.385 N 
HETATM    2  H11 UNL     1      21.040  -0.494  51.584  1.00  0.00     0.160 HD
ENDROOT
BRANCH   1   3
HETATM    3  C9  UNL     1      22.040   0.776  53.030  1.00  0.00     0.166 C 
BRANCH   3   4
HETATM    4  C8  UNL     1      22.841  -0.235  53.756  1.00  0.00     0.102 C 
HETATM    5  N1  UNL     1      24.036  -0.492  54.031  1.00  0.00    -0.302 NA
BRANCH   5   6
HETATM    6  C7  UNL     1      24.966   0.509  53.473  1.00  0.00     0.178 C 
BRANCH   6   7
HETATM    7  C6  UNL     1      26.297   0.031  53.751  1.00  0.00     0.065 A 
HETATM    8  C5  UNL     1      26.459  -0.994  52.834  1.00  0.00    -0.008 A 
HETATM    9  C4  UNL     1      27.855  -0.703  53.388  1.00  0.00     0.051 A 
HETATM   10  C3  UNL     1      29.315  -1.481  53.014  1.00  0.00     0.025 A 
HETATM   11  C22 UNL     1      28.231   0.447  54.539  1.00  0.00     0.129 A 
HETATM   12  C1  UNL     1      28.497   0.166  54.320  1.00  0.00     0.141 A 
HETATM   13  C2  UNL     1      30.022  -0.598  54.122  1.00  0.00     0.058 A 
HETATM   14  N3  UNL     1      27.073   0.795  54.635  1.00  0.00    -0.258 NA
HETATM   15  O1  UNL     1      28.657   0.990  52.900  1.00  0.00    -0.213 OA
ENDBRANCH   6   7
ENDBRANCH   5   6
ENDBRANCH   3   4
ENDBRANCH   1   3
BRANCH   1  16
HETATM   16  C10 UNL     1      21.960   1.107  50.557  1.00  0.00     0.029 A 
HETATM   17  C11 UNL     1      21.261   0.953  49.370  1.00  0.00     0.029 A 
HETATM   18  C12 UNL     1      21.554   1.631  48.192  1.00  0.00     0.003 A 
HETATM   19  C13 UNL     1      22.620   2.533  48.195  1.00  0.00     0.012 A 
HETATM   20  C14 UNL     1      23.337   2.705  49.381  1.00  0.00    -0.024 A 
HETATM   21  C21 UNL     1      23.006   2.004  50.525  1.00  0.00     0.041 A 
BRANCH  20  22
HETATM   22  C15 UNL     1      24.436   3.665  49.280  1.00  0.00    -0.026 A 
HETATM   23  C16 UNL     1      24.166   4.974  48.937  1.00  0.00     0.012 A 
HETATM   24  C17 UNL     1      25.222   5.886  48.834  1.00  0.00     0.001 A 
HETATM   25  C18 UNL     1      26.518   5.413  49.090  1.00  0.00     0.000 A 
HETATM   26  C19 UNL     1      26.787   4.111  49.432  1.00  0.00     0.001 A 
HETATM   27  C20 UNL     1      25.716   3.218  49.529  1.00  0.00     0.012 A 
ENDBRANCH  20  22
ENDBRANCH   1  16
TORSDOF 7
ENDMDL
MODEL 3
REMARK VINA RESULT:      -8.8      2.389      5.133
REMARK  7 active torsions:
REMARK  status: ('A' for Active; 'I' for Inactive)
REMARK    1  A    between atoms: C6_7  and  C7_8 
REMARK    2  A    between atoms: C6_7  and  N3_25 
REMARK    3  A    between atoms: C7_8  and  N1_9 
REMARK    4  A    between atoms: C8_10  and  C9_11 
REMARK    5  A    between atoms: C9_11  and  N2_12 
REMARK    6  A    between atoms: N2_12  and  C10_13 
REMARK    7  A    between atoms: C14_17  and  C15_18 
ROOT
HETATM    1  N2  UNL     1      20.986   1.324  52.120  1.00  0.00    -0.385 N 
HETATM    2  H11 UNL     1      20.864   0.967  51.125  1.00  0.00     0.160 HD
ENDROOT
BRANCH   1   3
HETATM    3  C9  UNL     1      20.363   2.538  52.534  1.00  0.00     0.166 C 
BRANCH   3   4
HETATM    4  C8  UNL     1      20.538   3.673  51.600  1.00  0.00     0.102 C 
HETATM    5  N1  UNL     1      21.277   4.672  51.435  1.00  0.00    -0.302 NA
BRANCH   5   6
HETATM    6  C7  UNL     1      22.310   4.783  52.483  1.00  0.00     0.178 C 
BRANCH   6   7
HETATM    7  C6  UNL     1      23.563   4.441  51.861  1.00  0.00     0.065 A 
HETATM    8  C5  UNL     1      24.132   3.561  52.765  1.00  0.00    -0.008 A 
HETATM    9  C4  UNL     1      24.952   3.428  51.480  1.00  0.00     0.051 A 
HETATM   10  C3  UNL     1      26.307   2.449  51.197  1.00  0.00     0.025 A 
HETATM   11  C22 UNL     1      24.695   4.275  50.064  1.00  0.00     0.129 A 
HETATM   12  C1  UNL     1      24.997   3.964  50.158  1.00  0.00     0.141 A 
HETATM   13  C2  UNL     1      26.436   3.113  49.765  1.00  0.00     0.058 A 
HETATM   14  N3  UNL     1      23.754   4.875  50.540  1.00  0.00    -0.258 NA
HETATM   15  O1  UNL     1      24.072   2.613  49.960  1.00  0.00    -0.213 OA
ENDBRANCH   6   7
ENDBRANCH   5   6
ENDBRANCH   3   4
ENDBRANCH   1   3
BRANCH   1  16
HETATM   16  C10 UNL     1      21.786   0.535  52.977  1.00  0.00     0.029 A 
HETATM   17  C11 UNL     1      21.237  -0.262  53.969  1.00  0.00     0.029 A 
HETATM   18  C12 UNL     1      21.976  -1.047  54.845  1.00  0.00     0.003 A 
HETATM   19  C13 UNL     1      23.367  -1.043  54.724  1.00  0.00     0.012 A 
HETATM   20  C14 UNL     1      23.942  -0.248  53.731  1.00  0.00    -0.024 A 
HETATM   21  C21 UNL     1      23.161   0.517  52.886  1.00  0.00     0.041 A 
BRANCH  20  22
HETATM   22  C15 UNL     1      25.404  -0.306  53.689  1.00  0.00    -0.026 A 
HETATM   23  C16 UNL     1      26.139   0.437  54.590  1.00  0.00     0.012 A 
HETATM   24  C17 UNL     1      27.537   0.384  54.541  1.00  0.00     0.001 A 
HETATM   25  C18 UNL     1      28.122  -0.436  53.565  1.00  0.00     0.000 A 
HETATM   26  C19 UNL     1      27.391  -1.176  52.669  1.00  0.00     0.001 A 
HETATM   27  C20 UNL     1      25.997  -1.107  52.737  1.00  0.00     0.012 A 
ENDBRANCH  20  22
ENDBRANCH   1  16
TORSDOF 7
ENDMDL
MODEL 4
REMARK VINA RESULT:      -8.5      2.436      5.770
REMARK  7 active torsions:
REMARK  status: ('A' for Active; 'I' for Inactive)
REMARK    1  A    between atoms: C6_7  and  C7_8 
REMARK    2  A    between atoms: C6_7  and  N3_25 
REMARK    3  A    between atoms: C7_8  and  N1_9 
REMARK    4  A    between atoms: C8_10  and  C9_11 
REMARK    5  A    between atoms: C9_11  and  N2_12 
REMARK    6  A    between atoms: N2_12  and  C10_13 
REMARK    7  A    between atoms: C14_17  and  C15_18 
ROOT
HETATM    1  N2  UNL     1      23.489   3.576  52.557  1.00  0.00    -0.385 N 
HETATM    2  H11 UNL     1      24.241   4.329  52.591  1.00  0.00     0.160 HD
ENDROOT
BRANCH   1   3
HETATM    3  C9  UNL     1      22.133   3.922  52.288  1.00  0.00     0.166 C 
BRANCH   3   4
HETATM    4  C8  UNL     1      21.950   5.222  51.603  1.00  0.00     0.102 C 
HETATM    5  N1  UNL     1      21.891   5.693  50.443  1.00  0.00    -0.302 NA
BRANCH   5   6
HETATM    6  C7  UNL     1      22.049   4.652  49.408  1.00  0.00     0.178 C 
BRANCH   6   7
HETATM    7  C6  UNL     1      23.453   4.600  49.090  1.00  0.00     0.065 A 
HETATM    8  C5  UNL     1      23.738   5.902  48.714  1.00  0.00    -0.008 A 
HETATM    9  C4  UNL     1      25.092   5.220  48.918  1.00  0.00     0.051 A 
HETATM   10  C3  UNL     1      26.640   5.876  48.699  1.00  0.00     0.025 A 
HETATM   11  C22 UNL     1      25.329   3.631  49.375  1.00  0.00     0.129 A 
HETATM   12  C1  UNL     1      25.626   3.951  49.293  1.00  0.00     0.141 A 
HETATM   13  C2  UNL     1      27.245   4.445  49.007  1.00  0.00     0.058 A 
HETATM   14  N3  UNL     1      24.135   3.420  49.423  1.00  0.00    -0.258 NA
HETATM   15  O1  UNL     1      25.572   4.751  50.734  1.00  0.00    -0.213 OA
ENDBRANCH   6   7
ENDBRANCH   5   6
ENDBRANCH   3   4
ENDBRANCH   1   3
BRANCH   1  16
HETATM   16  C10 UNL     1      23.917   2.250  52.789  1.00  0.00     0.029 A 
HETATM   17  C11 UNL     1      23.023   1.201  52.926  1.00  0.00     0.029 A 
HETATM   18  C12 UNL     1      23.389  -0.118  53.167  1.00  0.00     0.003 A 
HETATM   19  C13 UNL     1      24.749  -0.417  53.277  1.00  0.00     0.012 A 
HETATM   20  C14 UNL     1      25.669   0.625  53.140  1.00  0.00    -0.024 A 
HETATM   21  C21 UNL     1      25.252   1.921  52.904  1.00  0.00     0.041 A 
BRANCH  20  22
HETATM   22  C15 UNL     1      27.065   0.211  53.277  1.00  0.00    -0.026 A 
HETATM   23  C16 UNL     1      27.415  -1.098  53.016  1.00  0.00     0.012 A 
HETATM   24  C17 UNL     1      28.750  -1.491  53.157  1.00  0.00     0.001 A 
HETATM   25  C18 UNL     1      29.676  -0.516  53.561  1.00  0.00     0.000 A 
HETATM   26  C19 UNL     1      29.328   0.786  53.820  1.00  0.00     0.001 A 
HETATM   27  C20 UNL     1      27.988   1.155  53.673  1.00  0.00     0.012 A 
ENDBRANCH  20  22
ENDBRANCH   1  16
TORSDOF 7
ENDMDL
MODEL 5
REMARK VINA RESULT:      -8.5      2.340      5.764
REMARK  7 active torsions:
REMARK  status: ('A' for Active; 'I' for Inactive)
REMARK    1  A    between atoms: C6_7  and  C7_8 
REMARK    2  A    between atoms: C6_7  and  N3_25 
REMARK    3  A    between atoms: C7_8  and  N1_9 
REMARK    4  A    between atoms: C8_10  and  C9_11 
REMARK    5  A    between atoms: C9_11  and  N2_12 
REMARK    6  A    between atoms: N2_12  and  C10_13 
REMARK    7  A    between atoms: C14_17  and  C15_18 
ROOT
HETATM    1  N2  UNL     1      22.886   4.395  52.069  1.00  0.00    -0.385 N 
HETATM    2  H11 UNL     1      22.947   4.720  53.081  1.00  0.00     0.160 HD
ENDROOT
BRANCH   1   3
HETATM    3  C9  UNL     1      21.663   4.510  51.346  1.00  0.00     0.166 C 
BRANCH   3   4
HETATM    4  C8  UNL     1      20.470   4.004  52.061  1.00  0.00     0.102 C 
HETATM    5  N1  UNL     1      19.718   3.002  52.079  1.00  0.00    -0.302 NA
BRANCH   5   6
HETATM    6  C7  UNL     1      20.117   1.985  51.087  1.00  0.00     0.178 C 
BRANCH   6   7
HETATM    7  C6  UNL     1      20.540   0.829  51.834  1.00  0.00     0.065 A 
HETATM    8  C5  UNL     1      21.899   0.766  51.573  1.00  0.00    -0.008 A 
HETATM    9  C4  UNL     1      21.655  -0.182  52.748  1.00  0.00     0.051 A 
HETATM   10  C3  UNL     1      22.781  -1.155  53.561  1.00  0.00     0.025 A 
HETATM   11  C22 UNL     1      20.179  -0.491  53.467  1.00  0.00     0.129 A 
HETATM   12  C1  UNL     1      20.583  -0.648  53.566  1.00  0.00     0.141 A 
HETATM   13  C2  UNL     1      21.586  -1.762  54.405  1.00  0.00     0.058 A 
HETATM   14  N3  UNL     1      19.603   0.263  52.711  1.00  0.00    -0.258 NA
HETATM   15  O1  UNL     1      21.166   0.625  54.438  1.00  0.00    -0.213 OA
ENDBRANCH   6   7
ENDBRANCH   5   6
ENDBRANCH   3   4
ENDBRANCH   1   3
BRANCH   1  16
HETATM   16  C10 UNL     1      24.067   3.857  51.510  1.00  0.00     0.029 A 
HETATM   17  C11 UNL     1      24.542   4.254  50.271  1.00  0.00     0.029 A 
HETATM   18  C12 UNL     1      25.690   3.750  49.671  1.00  0.00     0.003 A 
HETATM   19  C13 UNL     1      26.422   2.778  50.356  1.00  0.00     0.012 A 
HETATM   20  C14 UNL     1      25.962   2.364  51.608  1.00  0.00    -0.024 A 
HETATM   21  C21 UNL     1      24.813   2.896  52.160  1.00  0.00     0.041 A 
BRANCH  20  22
HETATM   22  C15 UNL     1      26.794   1.340  52.241  1.00  0.00    -0.026 A 
HETATM   23  C16 UNL     1      26.443   0.010  52.123  1.00  0.00     0.012 A 
HETATM   24  C17 UNL     1      27.237  -0.964  52.738  1.00  0.00     0.001 A 
HETATM   25  C18 UNL     1      28.365  -0.529  53.450  1.00  0.00     0.000 A 
HETATM   26  C19 UNL     1      28.715   0.793  53.567  1.00  0.00     0.001 A 
HETATM   27  C20 UNL     1      27.906   1.748  52.945  1.00  0.00     0.012 A 
ENDBRANCH  20  22
ENDBRANCH   1  16
TORSDOF 7
ENDMDL
MODEL 6
REMARK VINA RESULT:      -8.4      3.045      6.366
REMARK  7 active torsions:
REMARK  status: ('A' for Active; 'I' for Inactive)
REMARK    1  A    between atoms: C6_7  and  C7_8 
REMARK    2  A    between atoms: C6_7  and  N3_25 
REMARK    3  A    between atoms: C7_8  and  N1_9 
REMARK    4  A    between atoms: C8_10  and  C9_11 
REMARK    5  A    between atoms: C9_11  and  N2_12 
REMARK    6  A    between atoms: N2_12  and  C10_13 
REMARK    7  A    between atoms: C14_17  and  C15_18 
ROOT
HETATM    1  N2  UNL     1      23.509   2.266  51.095  1.00  0.00    -0.385 N 
HETATM    2  H11 UNL     1      23.846   2.209  50.087  1.00  0.00     0.160 HD
ENDROOT
BRANCH   1   3
HETATM    3  C9  UNL     1      22.601   3.289  51.495  1.00  0.00     0.166 C 
BRANCH   3   4
HETATM    4  C8  UNL     1      23.240   4.488  52.082  1.00  0.00     0.102 C 
HETATM    5  N1  UNL     1      23.790   5.554  51.719  1.00  0.00    -0.302 NA
BRANCH   5   6
HETATM    6  C7  UNL     1      23.830   5.691  50.250  1.00  0.00     0.178 C 
BRANCH   6   7
HETATM    7  C6  UNL     1      25.188   6.024  49.907  1.00  0.00     0.065 A 
HETATM    8  C5  UNL     1      25.690   4.830  49.417  1.00  0.00    -0.008 A 
HETATM    9  C4  UNL     1      26.704   5.905  49.018  1.00  0.00     0.051 A 
HETATM   10  C3  UNL     1      28.168   5.707  48.186  1.00  0.00     0.025 A 
HETATM   11  C22 UNL     1      26.590   7.534  49.365  1.00  0.00     0.129 A 
HETATM   12  C1  UNL     1      26.901   7.312  49.138  1.00  0.00     0.141 A 
HETATM   13  C2  UNL     1      28.453   7.249  48.406  1.00  0.00     0.058 A 
HETATM   14  N3  UNL     1      25.538   7.383  49.950  1.00  0.00    -0.258 NA
HETATM   15  O1  UNL     1      26.141   7.185  47.680  1.00  0.00    -0.213 OA
ENDBRANCH   6   7
ENDBRANCH   5   6
ENDBRANCH   3   4
ENDBRANCH   1   3
BRANCH   1  16
HETATM   16  C10 UNL     1      24.009   1.285  51.980  1.00  0.00     0.029 A 
HETATM   17  C11 UNL     1      23.173   0.516  52.775  1.00  0.00     0.029 A 
HETATM   18  C12 UNL     1      23.612  -0.452  53.670  1.00  0.00     0.003 A 
HETATM   19  C13 UNL     1      24.986  -0.675  53.782  1.00  0.00     0.012 A 
HETATM   20  C14 UNL     1      25.847   0.087  52.990  1.00  0.00    -0.024 A 
HETATM   21  C21 UNL     1      25.359   1.040  52.116  1.00  0.00     0.041 A 
BRANCH  20  22
HETATM   22  C15 UNL     1      27.265  -0.216  53.184  1.00  0.00    -0.026 A 
HETATM   23  C16 UNL     1      28.131   0.792  53.554  1.00  0.00     0.012 A 
HETATM   24  C17 UNL     1      29.488   0.498  53.731  1.00  0.00     0.001 A 
HETATM   25  C18 UNL     1      29.899  -0.827  53.521  1.00  0.00     0.000 A 
HETATM   26  C19 UNL     1      29.037  -1.830  53.154  1.00  0.00     0.001 A 
HETATM   27  C20 UNL     1      27.687  -1.513  52.983  1.00  0.00     0.012 A 
ENDBRANCH  20  22
ENDBRANCH   1  16
TORSDOF 7
ENDMDL
MODEL 7
REMARK VINA RESULT:      -8.3      2.703      5.880
REMARK  7 active torsions:
REMARK  status: ('A' for Active; 'I' for Inactive)
REMARK    1  A    between atoms: C6_7  and  C7_8 
REMARK    2  A    between atoms: C6_7  and  N3_25 
REMARK    3  A    between atoms: C7_8  and  N1_9 
REMARK    4  A    between atoms: C8_10  and  C9_11 
REMARK    5  A    between atoms: C9_11  and  N2_12 
REMARK    6  A    between atoms: N2_12  and  C10_13 
REMARK    7  A    between atoms: C14_17  and  C15_18 
ROOT
HETATM    1  N2  UNL     1      20.060   2.108  52.623  1.00  0.00    -0.385 N 
HETATM    2  H11 UNL     1      20.129   3.107  52.983  1.00  0.00     0.160 HD
ENDROOT
BRANCH   1   3
HETATM    3  C9  UNL     1      19.086   1.759  51.642  1.00  0.00     0.166 C 
BRANCH   3   4
HETATM    4  C8  UNL     1      19.621   1.023  50.475  1.00  0.00     0.102 C 
HETATM    5  N1  UNL     1      20.179   1.246  49.375  1.00  0.00    -0.302 NA
BRANCH   5   6
HETATM    6  C7  UNL     1      20.386   2.688  49.136  1.00  0.00     0.178 C 
BRANCH   6   7
HETATM    7  C6  UNL     1      21.714   2.993  49.603  1.00  0.00     0.065 A 
HETATM    8  C5  UNL     1      22.525   2.338  48.691  1.00  0.00    -0.008 A 
HETATM    9  C4  UNL     1      23.445   3.285  49.465  1.00  0.00     0.051 A 
HETATM   10  C3  UNL     1      25.121   3.487  49.299  1.00  0.00     0.025 A 
HETATM   11  C22 UNL     1      22.979   4.315  50.695  1.00  0.00     0.129 A 
HETATM   12  C1  UNL     1      23.379   4.253  50.511  1.00  0.00     0.141 A 
HETATM   13  C2  UNL     1      25.081   4.483  50.530  1.00  0.00     0.058 A 
HETATM   14  N3  UNL     1      21.823   3.954  50.620  1.00  0.00    -0.258 NA
HETATM   15  O1  UNL     1      23.208   5.182  49.159  1.00  0.00    -0.213 OA
ENDBRANCH   6   7
ENDBRANCH   5   6
ENDBRANCH   3   4
ENDBRANCH   1   3
BRANCH   1  16
HETATM   16  C10 UNL     1      20.974   1.180  53.170  1.00  0.00     0.029 A 
HETATM   17  C11 UNL     1      20.596   0.250  54.124  1.00  0.00     0.029 A 
HETATM   18  C12 UNL     1      21.456  -0.677  54.703  1.00  0.00     0.003 A 
HETATM   19  C13 UNL     1      22.793  -0.680  54.299  1.00  0.00     0.012 A 
HETATM   20  C14 UNL     1      23.196   0.248  53.337  1.00  0.00    -0.024 A 
HETATM   21  C21 UNL     1      22.300   1.150  52.795  1.00  0.00     0.041 A 
BRANCH  20  22
HETATM   22  C15 UNL     1      24.614   0.169  52.986  1.00  0.00    -0.026 A 
HETATM   23  C16 UNL     1      25.385  -0.852  53.504  1.00  0.00     0.012 A 
HETATM   24  C17 UNL     1      26.743  -0.919  53.172  1.00  0.00     0.001 A 
HETATM   25  C18 UNL     1      27.253   0.070  52.317  1.00  0.00     0.000 A 
HETATM   26  C19 UNL     1      26.486   1.085  51.802  1.00  0.00     0.001 A 
HETATM   27  C20 UNL     1      25.132   1.131  52.148  1.00  0.00     0.012 A 
ENDBRANCH  20  22
ENDBRANCH   1  16
TORSDOF 7
ENDMDL
MODEL 8
REMARK VINA RESULT:      -8.3      2.685      6.216
REMARK  7 active torsions:
REMARK  status: ('A' for Active; 'I' for Inactive)
REMARK    1  A    between atoms: C6_7  and  C7_8 
REMARK    2  A    between atoms: C6_7  and  N3_25 
REMARK    3  A    between atoms: C7_8  and  N1_9 
REMARK    4  A    between atoms: C8_10  and  C9_11 
REMARK    5  A    between atoms: C9_11  and  N2_12 
REMARK    6  A    between atoms: N2_12  and  C10_13 
REMARK    7  A    between atoms: C14_17  and  C15_18 
ROOT
HETATM    1  N2  UNL     1      24.029   2.650  50.360  1.00  0.00    -0.385 N 
HETATM    2  H11 UNL     1      24.269   1.781  49.794  1.00  0.00     0.160 HD
ENDROOT
BRANCH   1   3
HETATM    3  C9  UNL     1      23.457   2.530  51.660  1.00  0.00     0.166 C 
BRANCH   3   4
HETATM    4  C8  UNL     1      24.394   2.798  52.775  1.00  0.00     0.102 C 
HETATM    5  N1  UNL     1      25.093   2.175  53.608  1.00  0.00    -0.302 NA
BRANCH   5   6
HETATM    6  C7  UNL     1      24.971   0.712  53.459  1.00  0.00     0.178 C 
BRANCH   6   7
HETATM    7  C6  UNL     1      26.272   0.162  53.743  1.00  0.00     0.065 A 
HETATM    8  C5  UNL     1      26.376  -0.880  52.836  1.00  0.00    -0.008 A 
HETATM    9  C4  UNL     1      27.786  -0.664  53.389  1.00  0.00     0.051 A 
HETATM   10  C3  UNL     1      29.199  -1.527  53.023  1.00  0.00     0.025 A 
HETATM   11  C22 UNL     1      28.227   0.475  54.529  1.00  0.00     0.129 A 
HETATM   12  C1  UNL     1      28.476   0.177  54.313  1.00  0.00     0.141 A 
HETATM   13  C2  UNL     1      29.955  -0.675  54.123  1.00  0.00     0.058 A 
HETATM   14  N3  UNL     1      27.091   0.890  54.620  1.00  0.00    -0.258 NA
HETATM   15  O1  UNL     1      28.683   0.976  52.884  1.00  0.00    -0.213 OA
ENDBRANCH   6   7
ENDBRANCH   5   6
ENDBRANCH   3   4
ENDBRANCH   1   3
BRANCH   1  16
HETATM   16  C10 UNL     1      24.310   3.893  49.750  1.00  0.00     0.029 A 
HETATM   17  C11 UNL     1      23.311   4.797  49.429  1.00  0.00     0.029 A 
HETATM   18  C12 UNL     1      23.530   6.027  48.819  1.00  0.00     0.003 A 
HETATM   19  C13 UNL     1      24.843   6.385  48.507  1.00  0.00     0.012 A 
HETATM   20  C14 UNL     1      25.866   5.489  48.823  1.00  0.00    -0.024 A 
HETATM   21  C21 UNL     1      25.594   4.277  49.428  1.00  0.00     0.041 A 
BRANCH  20  22
HETATM   22  C15 UNL     1      27.203   5.953  48.451  1.00  0.00    -0.026 A 
HETATM   23  C16 UNL     1      28.258   5.063  48.458  1.00  0.00     0.012 A 
HETATM   24  C17 UNL     1      29.536   5.514  48.109  1.00  0.00     0.001 A 
HETATM   25  C18 UNL     1      29.677   6.867  47.765  1.00  0.00     0.000 A 
HETATM   26  C19 UNL     1      28.628   7.752  47.757  1.00  0.00     0.001 A 
HETATM   27  C20 UNL     1      27.361   7.279  48.109  1.00  0.00     0.012 A 
ENDBRANCH  20  22
ENDBRANCH   1  16
TORSDOF 7
ENDMDL
MODEL 9
REMARK VINA RESULT:      -8.3      3.262      6.981
REMARK  7 active torsions:
REMARK  status: ('A' for Active; 'I' for Inactive)
REMARK    1  A    between atoms: C6_7  and  C7_8 
REMARK    2  A    between atoms: C6_7  and  N3_25 
REMARK    3  A    between atoms: C7_8  and  N1_9 
REMARK    4  A    between atoms: C8_10  and  C9_11 
REMARK    5  A    between atoms: C9_11  and  N2_12 
REMARK    6  A    between atoms: N2_12  and  C10_13 
REMARK    7  A    between atoms: C14_17  and  C15_18 
ROOT
HETATM    1  N2  UNL     1      25.567   3.395  50.184  1.00  0.00    -0.385 N 
HETATM    2  H11 UNL     1      26.305   2.632  50.258  1.00  0.00     0.160 HD
ENDROOT
BRANCH   1   3
HETATM    3  C9  UNL     1      24.285   3.220  50.782  1.00  0.00     0.166 C 
BRANCH   3   4
HETATM    4  C8  UNL     1      23.986   1.836  51.211  1.00  0.00     0.102 C 
HETATM    5  N1  UNL     1      24.265   1.040  52.139  1.00  0.00    -0.302 NA
BRANCH   5   6
HETATM    6  C7  UNL     1      25.174   1.639  53.136  1.00  0.00     0.178 C 
BRANCH   6   7
HETATM    7  C6  UNL     1      26.429   0.941  53.016  1.00  0.00     0.065 A 
HETATM    8  C5  UNL     1      27.363   1.926  53.289  1.00  0.00    -0.008 A 
HETATM    9  C4  UNL     1      28.124   0.600  53.351  1.00  0.00     0.051 A 
HETATM   10  C3  UNL     1      29.775   0.352  53.648  1.00  0.00     0.025 A 
HETATM   11  C22 UNL     1      27.471  -0.916  53.094  1.00  0.00     0.129 A 
HETATM   12  C1  UNL     1      27.886  -0.798  53.200  1.00  0.00     0.141 A 
HETATM   13  C2  UNL     1      29.549  -1.192  53.377  1.00  0.00     0.058 A 
HETATM   14  N3  UNL     1      26.368  -0.455  52.886  1.00  0.00    -0.258 NA
HETATM   15  O1  UNL     1      27.703  -0.582  54.825  1.00  0.00    -0.213 OA
ENDBRANCH   6   7
ENDBRANCH   5   6
ENDBRANCH   3   4
ENDBRANCH   1   3
BRANCH   1  16
HETATM   16  C10 UNL     1      25.936   4.560  49.474  1.00  0.00     0.029 A 
HETATM   17  C11 UNL     1      25.021   5.550  49.157  1.00  0.00     0.029 A 
HETATM   18  C12 UNL     1      25.328   6.707  48.451  1.00  0.00     0.003 A 
HETATM   19  C13 UNL     1      26.646   6.895  48.030  1.00  0.00     0.012 A 
HETATM   20  C14 UNL     1      27.586   5.910  48.339  1.00  0.00    -0.024 A 
HETATM   21  C21 UNL     1      27.228   4.776  49.042  1.00  0.00     0.041 A 
BRANCH  20  22
HETATM   22  C15 UNL     1      28.935   6.196  47.850  1.00  0.00    -0.026 A 
HETATM   23  C16 UNL     1      29.177   7.376  47.176  1.00  0.00     0.012 A 
HETATM   24  C17 UNL     1      30.467   7.640  46.703  1.00  0.00     0.001 A 
HETATM   25  C18 UNL     1      31.459   6.678  46.944  1.00  0.00     0.000 A 
HETATM   26  C19 UNL     1      31.218   5.505  47.615  1.00  0.00     0.001 A 
HETATM   27  C20 UNL     1      29.922   5.262  48.078  1.00  0.00     0.012 A 
ENDBRANCH  20  22
ENDBRANCH   1  16
TORSDOF 7
ENDMDL
