MODEL 1
REMARK VINA RESULT:      -7.9      0.000      0.000
REMARK  1 active torsions:
REMARK  status: ('A' for Active; 'I' for Inactive)
REMARK    1  A    between atoms: C4_6  and  C5_7 
ROOT
HETATM    1  O1  UNL     1      21.605   2.511  52.058  1.00  0.00    -0.237 OA
HETATM    2  C1  UNL     1      21.436   3.735  52.241  1.00  0.00     0.380 C 
HETATM    3  O2  UNL     1      20.200   3.236  52.651  1.00  0.00    -0.303 OA
HETATM    4  C2  UNL     1      19.941   1.812  52.661  1.00  0.00     0.181 C 
HETATM    5  C3  UNL     1      20.884   1.206  53.666  1.00  0.00     0.038 C 
HETATM    6  C4  UNL     1      21.412  -0.145  53.388  1.00  0.00     0.038 C 
HETATM    7  C6  UNL     1      22.698  -0.389  54.138  1.00  0.00    -0.022 C 
HETATM    8  C7  UNL     1      23.952  -0.433  53.649  1.00  0.00    -0.011 C 
HETATM    9  C8  UNL     1      25.066  -0.684  54.560  1.00  0.00     0.143 C 
HETATM   10  N1  UNL     1      26.052   0.294  54.666  1.00  0.00    -0.401 N 
HETATM   11  C9  UNL     1      26.995   0.614  53.707  1.00  0.00     0.266 C 
HETATM   12  N2  UNL     1      26.554   1.180  52.467  1.00  0.00    -0.264 NA
HETATM   13  C10 UNL     1      27.184   2.198  51.915  1.00  0.00     0.223 C 
HETATM   14  N3  UNL     1      26.829   2.809  50.720  1.00  0.00    -0.267 NA
HETATM   15  C11 UNL     1      25.785   3.261  50.236  1.00  0.00     0.114 A 
HETATM   16  C12 UNL     1      24.425   3.690  49.967  1.00  0.00     0.084 A 
HETATM   17  C13 UNL     1      23.216   3.888  50.401  1.00  0.00     0.097 A 
HETATM   18  N4  UNL     1      22.809   3.636  51.722  1.00  0.00    -0.243 N 
HETATM   19  N5  UNL     1      24.057   3.162  52.307  1.00  0.00    -0.243 NA
HETATM   20  C14 UNL     1      24.976   3.152  51.437  1.00  0.00     0.297 A 
HETATM   21  H12 UNL     1      26.136   0.768  55.598  1.00  0.00     0.155 HD
ENDROOT
BRANCH   6  22
HETATM   22  C5  UNL     1      20.406  -1.219  53.509  1.00  0.00     0.230 C 
HETATM   23  F1  UNL     1      20.622  -2.024  54.639  1.00  0.00    -0.255 F 
ENDBRANCH   6  22
TORSDOF 1
ENDMDL
MODEL 2
REMARK VINA RESULT:      -7.9      2.740      5.065
REMARK  1 active torsions:
REMARK  status: ('A' for Active; 'I' for Inactive)
REMARK    1  A    between atoms: C4_6  and  C5_7 
ROOT
HETATM    1  O1  UNL     1      25.606   2.768  52.009  1.00  0.00    -0.237 OA
HETATM    2  C1  UNL     1      25.716   3.121  50.817  1.00  0.00     0.380 C 
HETATM    3  O2  UNL     1      27.015   2.685  51.081  1.00  0.00    -0.303 OA
HETATM    4  C2  UNL     1      27.361   2.124  52.369  1.00  0.00     0.181 C 
HETATM    5  C3  UNL     1      26.558   0.861  52.523  1.00  0.00     0.038 C 
HETATM    6  C4  UNL     1      26.090   0.502  53.877  1.00  0.00     0.038 C 
HETATM    7  C6  UNL     1      24.899  -0.422  53.812  1.00  0.00    -0.022 C 
HETATM    8  C7  UNL     1      23.609  -0.139  54.076  1.00  0.00    -0.011 C 
HETATM    9  C8  UNL     1      22.605  -1.191  53.948  1.00  0.00     0.143 C 
HETATM   10  N1  UNL     1      21.575  -0.999  53.030  1.00  0.00    -0.401 N 
HETATM   11  C9  UNL     1      20.527  -0.106  53.151  1.00  0.00     0.266 C 
HETATM   12  N2  UNL     1      20.811   1.298  53.138  1.00  0.00    -0.264 NA
HETATM   13  C10 UNL     1      20.070   2.142  52.449  1.00  0.00     0.223 C 
HETATM   14  N3  UNL     1      20.270   3.515  52.380  1.00  0.00    -0.267 NA
HETATM   15  C11 UNL     1      21.234   4.255  52.150  1.00  0.00     0.114 A 
HETATM   16  C12 UNL     1      22.532   4.827  51.846  1.00  0.00     0.084 A 
HETATM   17  C13 UNL     1      23.762   4.650  51.466  1.00  0.00     0.097 A 
HETATM   18  N4  UNL     1      24.309   3.397  51.144  1.00  0.00    -0.243 N 
HETATM   19  N5  UNL     1      23.154   2.533  51.356  1.00  0.00    -0.243 NA
HETATM   20  C14 UNL     1      22.158   3.213  51.740  1.00  0.00     0.297 A 
HETATM   21  H12 UNL     1      21.551  -1.660  52.215  1.00  0.00     0.155 HD
ENDROOT
BRANCH   6  22
HETATM   22  C5  UNL     1      27.167   0.066  54.789  1.00  0.00     0.230 C 
HETATM   23  F1  UNL     1      28.197  -0.606  54.112  1.00  0.00    -0.255 F 
ENDBRANCH   6  22
TORSDOF 1
ENDMDL
MODEL 3
REMARK VINA RESULT:      -7.8      2.697      4.591
REMARK  1 active torsions:
REMARK  status: ('A' for Active; 'I' for Inactive)
REMARK    1  A    between atoms: C4_6  and  C5_7 
ROOT
HETATM    1  O1  UNL     1      24.716   2.468  50.758  1.00  0.00    -0.237 OA
HETATM    2  C1  UNL     1      25.310   3.473  51.202  1.00  0.00     0.380 C 
HETATM    3  O2  UNL     1      24.641   4.025  50.108  1.00  0.00    -0.303 OA
HETATM    4  C2  UNL     1      23.759   3.218  49.293  1.00  0.00     0.181 C 
HETATM    5  C3  UNL     1      22.624   2.783  50.182  1.00  0.00     0.038 C 
HETATM    6  C4  UNL     1      22.040   1.446  49.949  1.00  0.00     0.038 C 
HETATM    7  C6  UNL     1      21.338   0.939  51.184  1.00  0.00    -0.022 C 
HETATM    8  C7  UNL     1      21.739  -0.026  52.033  1.00  0.00    -0.011 C 
HETATM    9  C8  UNL     1      20.900  -0.363  53.181  1.00  0.00     0.143 C 
HETATM   10  N1  UNL     1      21.442  -0.200  54.454  1.00  0.00    -0.401 N 
HETATM   11  C9  UNL     1      22.428  -0.980  55.029  1.00  0.00     0.266 C 
HETATM   12  N2  UNL     1      23.742  -0.966  54.458  1.00  0.00    -0.264 NA
HETATM   13  C10 UNL     1      24.818  -0.903  55.215  1.00  0.00     0.223 C 
HETATM   14  N3  UNL     1      26.127  -0.885  54.750  1.00  0.00    -0.267 NA
HETATM   15  C11 UNL     1      26.752  -0.241  53.899  1.00  0.00     0.114 A 
HETATM   16  C12 UNL     1      27.183   0.668  52.854  1.00  0.00     0.084 A 
HETATM   17  C13 UNL     1      26.919   1.684  52.088  1.00  0.00     0.097 A 
HETATM   18  N4  UNL     1      25.706   2.391  52.116  1.00  0.00    -0.243 N 
HETATM   19  N5  UNL     1      24.994   1.669  53.163  1.00  0.00    -0.243 NA
HETATM   20  C14 UNL     1      25.707   0.725  53.611  1.00  0.00     0.297 A 
HETATM   21  H12 UNL     1      20.994   0.531  55.058  1.00  0.00     0.155 HD
ENDROOT
BRANCH   6  22
HETATM   22  C5  UNL     1      21.258   1.342  48.701  1.00  0.00     0.230 C 
HETATM   23  F1  UNL     1      22.070   1.087  47.585  1.00  0.00    -0.255 F 
ENDBRANCH   6  22
TORSDOF 1
ENDMDL
MODEL 4
REMARK VINA RESULT:      -7.4      1.648      2.458
REMARK  1 active torsions:
REMARK  status: ('A' for Active; 'I' for Inactive)
REMARK    1  A    between atoms: C4_6  and  C5_7 
ROOT
HETATM    1  O1  UNL     1      22.388   3.005  51.778  1.00  0.00    -0.237 OA
HETATM    2  C1  UNL     1      22.794   4.149  52.071  1.00  0.00     0.380 C 
HETATM    3  O2  UNL     1      21.440   4.401  51.847  1.00  0.00    -0.303 OA
HETATM    4  C2  UNL     1      20.530   3.325  51.517  1.00  0.00     0.181 C 
HETATM    5  C3  UNL     1      20.495   2.405  52.708  1.00  0.00     0.038 C 
HETATM    6  C4  UNL     1      20.337   0.958  52.456  1.00  0.00     0.038 C 
HETATM    7  C6  UNL     1      20.851   0.146  53.619  1.00  0.00    -0.022 C 
HETATM    8  C7  UNL     1      21.980  -0.584  53.691  1.00  0.00    -0.011 C 
HETATM    9  C8  UNL     1      22.293  -1.298  54.926  1.00  0.00     0.143 C 
HETATM   10  N1  UNL     1      23.473  -0.970  55.588  1.00  0.00    -0.401 N 
HETATM   11  C9  UNL     1      24.757  -1.267  55.169  1.00  0.00     0.266 C 
HETATM   12  N2  UNL     1      25.250  -0.661  53.968  1.00  0.00    -0.264 NA
HETATM   13  C10 UNL     1      26.471  -0.169  53.900  1.00  0.00     0.223 C 
HETATM   14  N3  UNL     1      27.031   0.435  52.781  1.00  0.00    -0.267 NA
HETATM   15  C11 UNL     1      26.686   1.321  51.990  1.00  0.00     0.114 A 
HETATM   16  C12 UNL     1      26.000   2.369  51.258  1.00  0.00     0.084 A 
HETATM   17  C13 UNL     1      25.004   3.201  51.181  1.00  0.00     0.097 A 
HETATM   18  N4  UNL     1      23.998   3.309  52.156  1.00  0.00    -0.243 N 
HETATM   19  N5  UNL     1      24.441   2.307  53.118  1.00  0.00    -0.243 NA
HETATM   20  C14 UNL     1      25.503   1.749  52.716  1.00  0.00     0.297 A 
HETATM   21  H12 UNL     1      23.367  -0.531  56.535  1.00  0.00     0.155 HD
ENDROOT
BRANCH   6  22
HETATM   22  C5  UNL     1      18.994   0.576  51.975  1.00  0.00     0.230 C 
HETATM   23  F1  UNL     1      19.046  -0.143  50.770  1.00  0.00    -0.255 F 
ENDBRANCH   6  22
TORSDOF 1
ENDMDL
MODEL 5
REMARK VINA RESULT:      -7.4      2.697      4.919
REMARK  1 active torsions:
REMARK  status: ('A' for Active; 'I' for Inactive)
REMARK    1  A    between atoms: C4_6  and  C5_7 
ROOT
HETATM    1  O1  UNL     1      23.249  -0.105  52.805  1.00  0.00    -0.237 OA
HETATM    2  C1  UNL     1      22.279   0.187  53.535  1.00  0.00     0.380 C 
HETATM    3  O2  UNL     1      23.049  -0.576  54.414  1.00  0.00    -0.303 OA
HETATM    4  C2  UNL     1      24.333  -1.107  54.008  1.00  0.00     0.181 C 
HETATM    5  C3  UNL     1      25.225   0.075  53.738  1.00  0.00     0.038 C 
HETATM    6  C4  UNL     1      26.221  -0.047  52.654  1.00  0.00     0.038 C 
HETATM    7  C6  UNL     1      26.639   1.311  52.146  1.00  0.00    -0.022 C 
HETATM    8  C7  UNL     1      26.308   1.903  50.983  1.00  0.00    -0.011 C 
HETATM    9  C8  UNL     1      26.825   3.237  50.687  1.00  0.00     0.143 C 
HETATM   10  N1  UNL     1      25.904   4.264  50.491  1.00  0.00    -0.401 N 
HETATM   11  C9  UNL     1      25.070   4.417  49.400  1.00  0.00     0.266 C 
HETATM   12  N2  UNL     1      24.045   3.443  49.170  1.00  0.00    -0.264 NA
HETATM   13  C10 UNL     1      22.823   3.799  48.828  1.00  0.00     0.223 C 
HETATM   14  N3  UNL     1      21.771   2.926  48.586  1.00  0.00    -0.267 NA
HETATM   15  C11 UNL     1      21.267   1.965  49.180  1.00  0.00     0.114 A 
HETATM   16  C12 UNL     1      20.920   0.906  50.108  1.00  0.00     0.084 A 
HETATM   17  C13 UNL     1      21.086   0.349  51.271  1.00  0.00     0.097 A 
HETATM   18  N4  UNL     1      21.968   0.833  52.251  1.00  0.00    -0.243 N 
HETATM   19  N5  UNL     1      22.515   2.002  51.573  1.00  0.00    -0.243 NA
HETATM   20  C14 UNL     1      22.014   2.115  50.416  1.00  0.00     0.297 A 
HETATM   21  H12 UNL     1      25.913   5.035  51.202  1.00  0.00     0.155 HD
ENDROOT
BRANCH   6  22
HETATM   22  C5  UNL     1      27.335  -0.966  52.963  1.00  0.00     0.230 C 
HETATM   23  F1  UNL     1      27.119  -2.254  52.448  1.00  0.00    -0.255 F 
ENDBRANCH   6  22
TORSDOF 1
ENDMDL
MODEL 6
REMARK VINA RESULT:      -7.4      2.552      4.780
REMARK  1 active torsions:
REMARK  status: ('A' for Active; 'I' for Inactive)
REMARK    1  A    between atoms: C4_6  and  C5_7 
ROOT
HETATM    1  O1  UNL     1      21.025   1.222  52.896  1.00  0.00    -0.237 OA
HETATM    2  C1  UNL     1      20.446   0.168  52.559  1.00  0.00     0.380 C 
HETATM    3  O2  UNL     1      19.590   1.124  52.010  1.00  0.00    -0.303 OA
HETATM    4  C2  UNL     1      19.892   2.536  52.110  1.00  0.00     0.181 C 
HETATM    5  C3  UNL     1      21.166   2.763  51.342  1.00  0.00     0.038 C 
HETATM    6  C4  UNL     1      22.101   3.791  51.844  1.00  0.00     0.038 C 
HETATM    7  C6  UNL     1      23.501   3.542  51.342  1.00  0.00    -0.022 C 
HETATM    8  C7  UNL     1      24.562   3.078  52.028  1.00  0.00    -0.011 C 
HETATM    9  C8  UNL     1      25.840   2.907  51.341  1.00  0.00     0.143 C 
HETATM   10  N1  UNL     1      26.387   1.627  51.292  1.00  0.00    -0.401 N 
HETATM   11  C9  UNL     1      26.939   0.932  52.351  1.00  0.00     0.266 C 
HETATM   12  N2  UNL     1      26.091   0.537  53.436  1.00  0.00    -0.264 NA
HETATM   13  C10 UNL     1      26.175  -0.665  53.970  1.00  0.00     0.223 C 
HETATM   14  N3  UNL     1      25.396  -1.132  55.021  1.00  0.00    -0.267 NA
HETATM   15  C11 UNL     1      24.187  -1.160  55.279  1.00  0.00     0.114 A 
HETATM   16  C12 UNL     1      22.741  -1.036  55.277  1.00  0.00     0.084 A 
HETATM   17  C13 UNL     1      21.653  -0.732  54.635  1.00  0.00     0.097 A 
HETATM   18  N4  UNL     1      21.629  -0.294  53.300  1.00  0.00    -0.243 N 
HETATM   19  N5  UNL     1      23.051  -0.322  52.979  1.00  0.00    -0.243 NA
HETATM   20  C14 UNL     1      23.723  -0.702  53.981  1.00  0.00     0.297 A 
HETATM   21  H12 UNL     1      26.462   1.192  50.340  1.00  0.00     0.155 HD
ENDROOT
BRANCH   6  22
HETATM   22  C5  UNL     1      21.616   5.175  51.677  1.00  0.00     0.230 C 
HETATM   23  F1  UNL     1      22.653   6.068  51.364  1.00  0.00    -0.255 F 
ENDBRANCH   6  22
TORSDOF 1
ENDMDL
MODEL 7
REMARK VINA RESULT:      -7.4      3.223      5.569
REMARK  1 active torsions:
REMARK  status: ('A' for Active; 'I' for Inactive)
REMARK    1  A    between atoms: C4_6  and  C5_7 
ROOT
HETATM    1  O1  UNL     1      20.968  -0.277  52.744  1.00  0.00    -0.237 OA
HETATM    2  C1  UNL     1      19.944  -0.515  53.416  1.00  0.00     0.380 C 
HETATM    3  O2  UNL     1      20.870  -1.342  54.051  1.00  0.00    -0.303 OA
HETATM    4  C2  UNL     1      22.255  -1.364  53.631  1.00  0.00     0.181 C 
HETATM    5  C3  UNL     1      22.812   0.009  53.896  1.00  0.00     0.038 C 
HETATM    6  C4  UNL     1      23.824   0.536  52.957  1.00  0.00     0.038 C 
HETATM    7  C6  UNL     1      23.880   2.042  53.010  1.00  0.00    -0.022 C 
HETATM    8  C7  UNL     1      23.425   2.926  52.101  1.00  0.00    -0.011 C 
HETATM    9  C8  UNL     1      23.581   4.356  52.353  1.00  0.00     0.143 C 
HETATM   10  N1  UNL     1      22.427   5.132  52.429  1.00  0.00    -0.401 N 
HETATM   11  C9  UNL     1      21.600   5.476  51.376  1.00  0.00     0.266 C 
HETATM   12  N2  UNL     1      20.871   4.441  50.705  1.00  0.00    -0.264 NA
HETATM   13  C10 UNL     1      19.604   4.598  50.375  1.00  0.00     0.223 C 
HETATM   14  N3  UNL     1      18.821   3.653  49.725  1.00  0.00    -0.267 NA
HETATM   15  C11 UNL     1      18.577   2.451  49.882  1.00  0.00     0.114 A 
HETATM   16  C12 UNL     1      18.502   1.074  50.333  1.00  0.00     0.084 A 
HETATM   17  C13 UNL     1      18.788   0.184  51.236  1.00  0.00     0.097 A 
HETATM   18  N4  UNL     1      19.496   0.467  52.416  1.00  0.00    -0.243 N 
HETATM   19  N5  UNL     1      19.730   1.897  52.259  1.00  0.00    -0.243 NA
HETATM   20  C14 UNL     1      19.237   2.307  51.168  1.00  0.00     0.297 A 
HETATM   21  H12 UNL     1      22.221   5.566  53.362  1.00  0.00     0.155 HD
ENDROOT
BRANCH   6  22
HETATM   22  C5  UNL     1      25.134  -0.140  53.046  1.00  0.00     0.230 C 
HETATM   23  F1  UNL     1      25.937   0.110  51.922  1.00  0.00    -0.255 F 
ENDBRANCH   6  22
TORSDOF 1
ENDMDL
MODEL 8
REMARK VINA RESULT:      -7.2      2.996      5.271
REMARK  1 active torsions:
REMARK  status: ('A' for Active; 'I' for Inactive)
REMARK    1  A    between atoms: C4_6  and  C5_7 
ROOT
HETATM    1  O1  UNL     1      22.301   2.997  50.193  1.00  0.00    -0.237 OA
HETATM    2  C1  UNL     1      21.417   2.419  49.527  1.00  0.00     0.380 C 
HETATM    3  O2  UNL     1      21.859   3.370  48.607  1.00  0.00    -0.303 OA
HETATM    4  C2  UNL     1      22.948   4.267  48.931  1.00  0.00     0.181 C 
HETATM    5  C3  UNL     1      24.171   3.412  49.127  1.00  0.00     0.038 C 
HETATM    6  C4  UNL     1      25.156   3.839  50.142  1.00  0.00     0.038 C 
HETATM    7  C6  UNL     1      25.997   2.676  50.605  1.00  0.00    -0.022 C 
HETATM    8  C7  UNL     1      25.940   2.023  51.781  1.00  0.00    -0.011 C 
HETATM    9  C8  UNL     1      26.854   0.911  52.027  1.00  0.00     0.143 C 
HETATM   10  N1  UNL     1      26.301  -0.344  52.274  1.00  0.00    -0.401 N 
HETATM   11  C9  UNL     1      25.628  -0.731  53.417  1.00  0.00     0.266 C 
HETATM   12  N2  UNL     1      24.375  -0.109  53.726  1.00  0.00    -0.264 NA
HETATM   13  C10 UNL     1      23.344  -0.813  54.147  1.00  0.00     0.223 C 
HETATM   14  N3  UNL     1      22.096  -0.296  54.469  1.00  0.00    -0.267 NA
HETATM   15  C11 UNL     1      21.287   0.462  53.921  1.00  0.00     0.114 A 
HETATM   16  C12 UNL     1      20.574   1.358  53.030  1.00  0.00     0.084 A 
HETATM   17  C13 UNL     1      20.485   1.927  51.865  1.00  0.00     0.097 A 
HETATM   18  N4  UNL     1      21.404   1.722  50.822  1.00  0.00    -0.243 N 
HETATM   19  N5  UNL     1      22.322   0.779  51.449  1.00  0.00    -0.243 NA
HETATM   20  C14 UNL     1      21.959   0.532  52.636  1.00  0.00     0.297 A 
HETATM   21  H12 UNL     1      26.494  -1.084  51.556  1.00  0.00     0.155 HD
ENDROOT
BRANCH   6  22
HETATM   22  C5  UNL     1      25.917   5.048  49.768  1.00  0.00     0.230 C 
HETATM   23  F1  UNL     1      26.757   4.828  48.665  1.00  0.00    -0.255 F 
ENDBRANCH   6  22
TORSDOF 1
ENDMDL
MODEL 9
REMARK VINA RESULT:      -7.2      3.211      6.309
REMARK  1 active torsions:
REMARK  status: ('A' for Active; 'I' for Inactive)
REMARK    1  A    between atoms: C4_6  and  C5_7 
ROOT
HETATM    1  O1  UNL     1      23.321  -0.831  54.136  1.00  0.00    -0.237 OA
HETATM    2  C1  UNL     1      22.935  -0.950  55.318  1.00  0.00     0.380 C 
HETATM    3  O2  UNL     1      24.306  -1.158  55.468  1.00  0.00    -0.303 OA
HETATM    4  C2  UNL     1      25.200  -1.063  54.334  1.00  0.00     0.181 C 
HETATM    5  C3  UNL     1      25.139   0.361  53.851  1.00  0.00     0.038 C 
HETATM    6  C4  UNL     1      25.267   0.603  52.399  1.00  0.00     0.038 C 
HETATM    7  C6  UNL     1      24.664   1.931  52.015  1.00  0.00    -0.022 C 
HETATM    8  C7  UNL     1      23.510   2.164  51.361  1.00  0.00    -0.011 C 
HETATM    9  C8  UNL     1      23.108   3.542  51.091  1.00  0.00     0.143 C 
HETATM   10  N1  UNL     1      21.902   3.986  51.630  1.00  0.00    -0.401 N 
HETATM   11  C9  UNL     1      20.636   3.606  51.225  1.00  0.00     0.266 C 
HETATM   12  N2  UNL     1      20.230   2.245  51.413  1.00  0.00    -0.264 NA
HETATM   13  C10 UNL     1      19.030   1.944  51.870  1.00  0.00     0.223 C 
HETATM   14  N3  UNL     1      18.553   0.657  52.082  1.00  0.00    -0.267 NA
HETATM   15  C11 UNL     1      18.969  -0.355  52.659  1.00  0.00     0.114 A 
HETATM   16  C12 UNL     1      19.726  -1.342  53.404  1.00  0.00     0.084 A 
HETATM   17  C13 UNL     1      20.750  -1.622  54.156  1.00  0.00     0.097 A 
HETATM   18  N4  UNL     1      21.702  -0.674  54.564  1.00  0.00    -0.243 N 
HETATM   19  N5  UNL     1      21.176   0.531  53.934  1.00  0.00    -0.243 NA
HETATM   20  C14 UNL     1      20.121   0.266  53.287  1.00  0.00     0.297 A 
HETATM   21  H12 UNL     1      21.968   4.744  52.351  1.00  0.00     0.155 HD
ENDROOT
BRANCH   6  22
HETATM   22  C5  UNL     1      26.622   0.357  51.867  1.00  0.00     0.230 C 
HETATM   23  F1  UNL     1      27.404   1.523  51.843  1.00  0.00    -0.255 F 
ENDBRANCH   6  22
TORSDOF 1
ENDMDL
