MODEL 1
REMARK VINA RESULT:      -7.9      0.000      0.000
REMARK  7 active torsions:
REMARK  status: ('A' for Active; 'I' for Inactive)
REMARK    1  A    between atoms: C4_5  and  N1_6 
REMARK    2  A    between atoms: N1_6  and  C5_7 
REMARK    3  A    between atoms: C8_10  and  O1_11 
REMARK    4  A    between atoms: O1_11  and  C9_12 
REMARK    5  A    between atoms: C9_12  and  C10_13 
REMARK    6  A    between atoms: C10_13  and  C11_14 
REMARK    7  A    between atoms: C11_14  and  N2_15 
ROOT
HETATM    1  C5  UNL     1      22.856   2.223  51.439  1.00  0.00     0.136 C 
HETATM    2  C6  UNL     1      22.664   3.029  50.274  1.00  0.00    -0.006 C 
HETATM    3  C7  UNL     1      23.444   3.463  48.886  1.00  0.00     0.050 C 
HETATM    4  C8  UNL     1      24.357   4.103  49.707  1.00  0.00     0.095 C 
HETATM    5  C16 UNL     1      23.472   5.076  50.534  1.00  0.00     0.063 C 
HETATM    6  C17 UNL     1      22.105   5.309  50.383  1.00  0.00     0.010 C 
HETATM    7  C18 UNL     1      21.417   3.938  50.377  1.00  0.00     0.072 C 
HETATM    8  N3  UNL     1      24.035   5.356  51.948  1.00  0.00    -0.349 N 
HETATM    9  C19 UNL     1      23.721   4.150  52.931  1.00  0.00     0.209 C 
HETATM   10  N4  UNL     1      23.260   2.889  52.715  1.00  0.00    -0.226 NA
HETATM   11  H22 UNL     1      24.524   5.887  52.685  1.00  0.00     0.167 HD
ENDROOT
BRANCH   1  12
HETATM   12  N1  UNL     1      22.765   0.785  51.580  1.00  0.00    -0.340 N 
HETATM   13  H3  UNL     1      23.518   0.139  51.358  1.00  0.00     0.167 HD
BRANCH  12  14
HETATM   14  C4  UNL     1      21.514   0.303  52.066  1.00  0.00     0.035 A 
HETATM   15  C3  UNL     1      21.446  -0.296  53.305  1.00  0.00     0.032 A 
HETATM   16  C2  UNL     1      20.296  -0.796  53.876  1.00  0.00     0.046 A 
HETATM   17  C1  UNL     1      19.171  -0.665  53.116  1.00  0.00     0.138 A 
HETATM   18  F1  UNL     1      17.997  -1.131  53.606  1.00  0.00    -0.204 F 
HETATM   19  C21 UNL     1      19.127  -0.084  51.865  1.00  0.00     0.074 A 
HETATM   20  C20 UNL     1      20.329   0.387  51.380  1.00  0.00     0.056 A 
HETATM   21 CL1  UNL     1      17.674   0.080  50.897  1.00  0.00    -0.081 Cl
ENDBRANCH  12  14
ENDBRANCH   1  12
BRANCH   4  22
HETATM   22  O1  UNL     1      25.601   3.460  49.257  1.00  0.00    -0.349 OA
BRANCH  22  23
HETATM   23  C9  UNL     1      26.643   3.358  50.206  1.00  0.00     0.177 C 
BRANCH  23  24
HETATM   24  C10 UNL     1      26.424   2.058  50.937  1.00  0.00     0.057 C 
BRANCH  24  25
HETATM   25  C11 UNL     1      27.019   2.163  52.321  1.00  0.00     0.274 C 
BRANCH  25  26
HETATM   26  N2  UNL     1      27.484   0.892  52.752  1.00  0.00     0.092 N 
HETATM   27  C12 UNL     1      27.815   0.800  54.129  1.00  0.00     0.298 C 
HETATM   28  C13 UNL     1      26.653   0.242  54.928  1.00  0.00     0.198 C 
HETATM   29  O2  UNL     1      26.187  -0.945  54.395  1.00  0.00    -0.388 OA
HETATM   30  C14 UNL     1      25.628  -0.668  53.147  1.00  0.00     0.198 C 
HETATM   31  C15 UNL     1      26.727  -0.206  52.241  1.00  0.00     0.298 C 
ENDBRANCH  25  26
ENDBRANCH  24  25
ENDBRANCH  23  24
ENDBRANCH  22  23
ENDBRANCH   4  22
TORSDOF 7
ENDMDL
MODEL 2
REMARK VINA RESULT:      -7.8      1.913      2.867
REMARK  7 active torsions:
REMARK  status: ('A' for Active; 'I' for Inactive)
REMARK    1  A    between atoms: C4_5  and  N1_6 
REMARK    2  A    between atoms: N1_6  and  C5_7 
REMARK    3  A    between atoms: C8_10  and  O1_11 
REMARK    4  A    between atoms: O1_11  and  C9_12 
REMARK    5  A    between atoms: C9_12  and  C10_13 
REMARK    6  A    between atoms: C10_13  and  C11_14 
REMARK    7  A    between atoms: C11_14  and  N2_15 
ROOT
HETATM    1  C5  UNL     1      21.994   2.541  50.510  1.00  0.00     0.136 C 
HETATM    2  C6  UNL     1      23.421   2.484  50.530  1.00  0.00    -0.006 C 
HETATM    3  C7  UNL     1      24.653   1.752  51.349  1.00  0.00     0.050 C 
HETATM    4  C8  UNL     1      24.237   2.484  52.447  1.00  0.00     0.095 C 
HETATM    5  C16 UNL     1      24.296   3.952  51.941  1.00  0.00     0.063 C 
HETATM    6  C17 UNL     1      24.769   4.400  50.708  1.00  0.00     0.010 C 
HETATM    7  C18 UNL     1      24.074   3.559  49.630  1.00  0.00     0.072 C 
HETATM    8  N3  UNL     1      23.253   4.871  52.620  1.00  0.00    -0.349 N 
HETATM    9  C19 UNL     1      21.812   4.656  51.989  1.00  0.00     0.209 C 
HETATM   10  N4  UNL     1      21.312   3.708  51.152  1.00  0.00    -0.226 NA
HETATM   11  H22 UNL     1      22.905   5.585  53.279  1.00  0.00     0.167 HD
ENDROOT
BRANCH   1  12
HETATM   12  N1  UNL     1      21.047   1.580  49.984  1.00  0.00    -0.340 N 
HETATM   13  H3  UNL     1      20.873   1.431  48.993  1.00  0.00     0.167 HD
BRANCH  12  14
HETATM   14  C4  UNL     1      20.344   0.823  50.966  1.00  0.00     0.035 A 
HETATM   15  C3  UNL     1      18.999   0.573  50.803  1.00  0.00     0.032 A 
HETATM   16  C2  UNL     1      18.220  -0.147  51.683  1.00  0.00     0.046 A 
HETATM   17  C1  UNL     1      18.877  -0.622  52.780  1.00  0.00     0.138 A 
HETATM   18  F1  UNL     1      18.182  -1.341  53.695  1.00  0.00    -0.204 F 
HETATM   19  C21 UNL     1      20.218  -0.430  53.041  1.00  0.00     0.074 A 
HETATM   20  C20 UNL     1      20.913   0.302  52.102  1.00  0.00     0.056 A 
HETATM   21 CL1  UNL     1      21.052  -1.047  54.455  1.00  0.00    -0.081 Cl
ENDBRANCH  12  14
ENDBRANCH   1  12
BRANCH   4  22
HETATM   22  O1  UNL     1      24.016   1.395  53.412  1.00  0.00    -0.349 OA
BRANCH  22  23
HETATM   23  C9  UNL     1      24.530   0.125  53.064  1.00  0.00     0.177 C 
BRANCH  23  24
HETATM   24  C10 UNL     1      25.014  -0.501  54.347  1.00  0.00     0.057 C 
BRANCH  24  25
HETATM   25  C11 UNL     1      26.325   0.134  54.744  1.00  0.00     0.274 C 
BRANCH  25  26
HETATM   26  N2  UNL     1      27.150   0.311  53.601  1.00  0.00     0.092 N 
HETATM   27  C12 UNL     1      27.873   1.531  53.555  1.00  0.00     0.298 C 
HETATM   28  C13 UNL     1      29.279   1.345  54.093  1.00  0.00     0.198 C 
HETATM   29  O2  UNL     1      29.932   0.298  53.473  1.00  0.00    -0.388 OA
HETATM   30  C14 UNL     1      29.283  -0.886  53.828  1.00  0.00     0.198 C 
HETATM   31  C15 UNL     1      27.904  -0.849  53.245  1.00  0.00     0.298 C 
ENDBRANCH  25  26
ENDBRANCH  24  25
ENDBRANCH  23  24
ENDBRANCH  22  23
ENDBRANCH   4  22
TORSDOF 7
ENDMDL
MODEL 3
REMARK VINA RESULT:      -7.7      3.960      6.484
REMARK  7 active torsions:
REMARK  status: ('A' for Active; 'I' for Inactive)
REMARK    1  A    between atoms: C4_5  and  N1_6 
REMARK    2  A    between atoms: N1_6  and  C5_7 
REMARK    3  A    between atoms: C8_10  and  O1_11 
REMARK    4  A    between atoms: O1_11  and  C9_12 
REMARK    5  A    between atoms: C9_12  and  C10_13 
REMARK    6  A    between atoms: C10_13  and  C11_14 
REMARK    7  A    between atoms: C11_14  and  N2_15 
ROOT
HETATM    1  C5  UNL     1      24.472   2.483  51.429  1.00  0.00     0.136 C 
HETATM    2  C6  UNL     1      23.296   1.707  51.191  1.00  0.00    -0.006 C 
HETATM    3  C7  UNL     1      22.186   1.412  50.007  1.00  0.00     0.050 C 
HETATM    4  C8  UNL     1      21.805   2.734  50.161  1.00  0.00     0.095 C 
HETATM    5  C16 UNL     1      21.446   2.827  51.670  1.00  0.00     0.063 C 
HETATM    6  C17 UNL     1      21.415   1.785  52.596  1.00  0.00     0.010 C 
HETATM    7  C18 UNL     1      22.751   1.042  52.476  1.00  0.00     0.072 C 
HETATM    8  N3  UNL     1      21.698   4.233  52.268  1.00  0.00    -0.349 N 
HETATM    9  C19 UNL     1      23.241   4.452  52.567  1.00  0.00     0.209 C 
HETATM   10  N4  UNL     1      24.351   3.750  52.214  1.00  0.00    -0.226 NA
HETATM   11  H22 UNL     1      21.452   5.175  52.610  1.00  0.00     0.167 HD
ENDROOT
BRANCH   1  12
HETATM   12  N1  UNL     1      25.826   2.256  50.969  1.00  0.00    -0.340 N 
HETATM   13  H3  UNL     1      26.193   2.589  50.081  1.00  0.00     0.167 HD
BRANCH  12  14
HETATM   14  C4  UNL     1      26.652   1.512  51.862  1.00  0.00     0.035 A 
HETATM   15  C3  UNL     1      26.536   0.140  51.919  1.00  0.00     0.032 A 
HETATM   16  C2  UNL     1      27.280  -0.680  52.739  1.00  0.00     0.046 A 
HETATM   17  C1  UNL     1      28.183  -0.036  53.533  1.00  0.00     0.138 A 
HETATM   18  F1  UNL     1      28.955  -0.771  54.369  1.00  0.00    -0.204 F 
HETATM   19  C21 UNL     1      28.380   1.330  53.556  1.00  0.00     0.074 A 
HETATM   20  C20 UNL     1      27.588   2.065  52.699  1.00  0.00     0.056 A 
HETATM   21 CL1  UNL     1      29.544   2.147  54.581  1.00  0.00    -0.081 Cl
ENDBRANCH  12  14
ENDBRANCH   1  12
BRANCH   4  22
HETATM   22  O1  UNL     1      21.968   3.210  48.779  1.00  0.00    -0.349 OA
BRANCH  22  23
HETATM   23  C9  UNL     1      22.196   4.594  48.606  1.00  0.00     0.177 C 
BRANCH  23  24
HETATM   24  C10 UNL     1      23.688   4.791  48.694  1.00  0.00     0.057 C 
BRANCH  24  25
HETATM   25  C11 UNL     1      23.973   6.152  49.284  1.00  0.00     0.274 C 
BRANCH  25  26
HETATM   26  N2  UNL     1      25.251   6.160  49.905  1.00  0.00     0.092 N 
HETATM   27  C12 UNL     1      26.260   5.426  49.229  1.00  0.00     0.298 C 
HETATM   28  C13 UNL     1      27.087   6.336  48.341  1.00  0.00     0.198 C 
HETATM   29  O2  UNL     1      27.574   7.426  49.036  1.00  0.00    -0.388 OA
HETATM   30  C14 UNL     1      26.489   8.222  49.407  1.00  0.00     0.198 C 
HETATM   31  C15 UNL     1      25.658   7.444  50.379  1.00  0.00     0.298 C 
ENDBRANCH  25  26
ENDBRANCH  24  25
ENDBRANCH  23  24
ENDBRANCH  22  23
ENDBRANCH   4  22
TORSDOF 7
ENDMDL
MODEL 4
REMARK VINA RESULT:      -7.7      4.277      6.702
REMARK  7 active torsions:
REMARK  status: ('A' for Active; 'I' for Inactive)
REMARK    1  A    between atoms: C4_5  and  N1_6 
REMARK    2  A    between atoms: N1_6  and  C5_7 
REMARK    3  A    between atoms: C8_10  and  O1_11 
REMARK    4  A    between atoms: O1_11  and  C9_12 
REMARK    5  A    between atoms: C9_12  and  C10_13 
REMARK    6  A    between atoms: C10_13  and  C11_14 
REMARK    7  A    between atoms: C11_14  and  N2_15 
ROOT
HETATM    1  C5  UNL     1      24.166   3.539  52.188  1.00  0.00     0.136 C 
HETATM    2  C6  UNL     1      24.360   3.081  50.849  1.00  0.00    -0.006 C 
HETATM    3  C7  UNL     1      25.355   3.320  49.555  1.00  0.00     0.050 C 
HETATM    4  C8  UNL     1      24.829   4.599  49.501  1.00  0.00     0.095 C 
HETATM    5  C16 UNL     1      23.301   4.350  49.372  1.00  0.00     0.063 C 
HETATM    6  C17 UNL     1      22.654   3.122  49.232  1.00  0.00     0.010 C 
HETATM    7  C18 UNL     1      23.188   2.208  50.342  1.00  0.00     0.072 C 
HETATM    8  N3  UNL     1      22.447   5.474  50.006  1.00  0.00    -0.349 N 
HETATM    9  C19 UNL     1      22.393   5.323  51.585  1.00  0.00     0.209 C 
HETATM   10  N4  UNL     1      23.098   4.551  52.455  1.00  0.00    -0.226 NA
HETATM   11  H22 UNL     1      21.854   6.319  50.023  1.00  0.00     0.167 HD
ENDROOT
BRANCH   1  12
HETATM   12  N1  UNL     1      24.906   3.201  53.386  1.00  0.00    -0.340 N 
HETATM   13  H3  UNL     1      24.942   3.782  54.220  1.00  0.00     0.167 HD
BRANCH  12  14
HETATM   14  C4  UNL     1      25.609   1.963  53.334  1.00  0.00     0.035 A 
HETATM   15  C3  UNL     1      24.910   0.784  53.192  1.00  0.00     0.032 A 
HETATM   16  C2  UNL     1      25.482  -0.468  53.127  1.00  0.00     0.046 A 
HETATM   17  C1  UNL     1      26.843  -0.486  53.217  1.00  0.00     0.138 A 
HETATM   18  F1  UNL     1      27.484  -1.679  53.162  1.00  0.00    -0.204 F 
HETATM   19  C21 UNL     1      27.639   0.633  53.361  1.00  0.00     0.074 A 
HETATM   20  C20 UNL     1      26.974   1.839  53.414  1.00  0.00     0.056 A 
HETATM   21 CL1  UNL     1      29.389   0.597  53.474  1.00  0.00    -0.081 Cl
ENDBRANCH  12  14
ENDBRANCH   1  12
BRANCH   4  22
HETATM   22  O1  UNL     1      26.067   5.389  49.583  1.00  0.00    -0.349 OA
BRANCH  22  23
HETATM   23  C9  UNL     1      27.201   4.865  48.921  1.00  0.00     0.177 C 
BRANCH  23  24
HETATM   24  C10 UNL     1      27.919   6.043  48.316  1.00  0.00     0.057 C 
BRANCH  24  25
HETATM   25  C11 UNL     1      26.905   7.084  47.905  1.00  0.00     0.274 C 
BRANCH  25  26
HETATM   26  N2  UNL     1      27.485   8.380  47.951  1.00  0.00     0.092 N 
HETATM   27  C12 UNL     1      26.646   9.438  47.518  1.00  0.00     0.298 C 
HETATM   28  C13 UNL     1      25.959  10.099  48.698  1.00  0.00     0.198 C 
HETATM   29  O2  UNL     1      26.863  10.479  49.671  1.00  0.00    -0.388 OA
HETATM   30  C14 UNL     1      27.420   9.323  50.218  1.00  0.00     0.198 C 
HETATM   31  C15 UNL     1      28.218   8.644  49.148  1.00  0.00     0.298 C 
ENDBRANCH  25  26
ENDBRANCH  24  25
ENDBRANCH  23  24
ENDBRANCH  22  23
ENDBRANCH   4  22
TORSDOF 7
ENDMDL
MODEL 5
REMARK VINA RESULT:      -7.7      4.510      6.573
REMARK  7 active torsions:
REMARK  status: ('A' for Active; 'I' for Inactive)
REMARK    1  A    between atoms: C4_5  and  N1_6 
REMARK    2  A    between atoms: N1_6  and  C5_7 
REMARK    3  A    between atoms: C8_10  and  O1_11 
REMARK    4  A    between atoms: O1_11  and  C9_12 
REMARK    5  A    between atoms: C9_12  and  C10_13 
REMARK    6  A    between atoms: C10_13  and  C11_14 
REMARK    7  A    between atoms: C11_14  and  N2_15 
ROOT
HETATM    1  C5  UNL     1      24.154   3.549  52.145  1.00  0.00     0.136 C 
HETATM    2  C6  UNL     1      24.374   3.060  50.821  1.00  0.00    -0.006 C 
HETATM    3  C7  UNL     1      25.455   3.190  49.581  1.00  0.00     0.050 C 
HETATM    4  C8  UNL     1      25.054   4.511  49.490  1.00  0.00     0.095 C 
HETATM    5  C16 UNL     1      23.518   4.404  49.281  1.00  0.00     0.063 C 
HETATM    6  C17 UNL     1      22.768   3.240  49.115  1.00  0.00     0.010 C 
HETATM    7  C18 UNL     1      23.154   2.293  50.257  1.00  0.00     0.072 C 
HETATM    8  N3  UNL     1      22.741   5.611  49.861  1.00  0.00    -0.349 N 
HETATM    9  C19 UNL     1      22.589   5.483  51.435  1.00  0.00     0.209 C 
HETATM   10  N4  UNL     1      23.172   4.660  52.347  1.00  0.00    -0.226 NA
HETATM   11  H22 UNL     1      22.230   6.507  49.840  1.00  0.00     0.167 HD
ENDROOT
BRANCH   1  12
HETATM   12  N1  UNL     1      24.794   3.158  53.382  1.00  0.00    -0.340 N 
HETATM   13  H3  UNL     1      24.747   3.693  54.246  1.00  0.00     0.167 HD
BRANCH  12  14
HETATM   14  C4  UNL     1      25.524   1.934  53.326  1.00  0.00     0.035 A 
HETATM   15  C3  UNL     1      24.850   0.742  53.181  1.00  0.00     0.032 A 
HETATM   16  C2  UNL     1      25.448  -0.498  53.113  1.00  0.00     0.046 A 
HETATM   17  C1  UNL     1      26.809  -0.487  53.201  1.00  0.00     0.138 A 
HETATM   18  F1  UNL     1      27.475  -1.666  53.142  1.00  0.00    -0.204 F 
HETATM   19  C21 UNL     1      27.581   0.648  53.348  1.00  0.00     0.074 A 
HETATM   20  C20 UNL     1      26.891   1.840  53.406  1.00  0.00     0.056 A 
HETATM   21 CL1  UNL     1      29.331   0.649  53.461  1.00  0.00    -0.081 Cl
ENDBRANCH  12  14
ENDBRANCH   1  12
BRANCH   4  22
HETATM   22  O1  UNL     1      26.355   5.184  49.634  1.00  0.00    -0.349 OA
BRANCH  22  23
HETATM   23  C9  UNL     1      27.395   4.743  48.784  1.00  0.00     0.177 C 
BRANCH  23  24
HETATM   24  C10 UNL     1      28.035   5.985  48.220  1.00  0.00     0.057 C 
BRANCH  24  25
HETATM   25  C11 UNL     1      29.535   5.876  48.360  1.00  0.00     0.274 C 
BRANCH  25  26
HETATM   26  N2  UNL     1      30.160   7.061  47.884  1.00  0.00     0.092 N 
HETATM   27  C12 UNL     1      29.381   8.242  47.987  1.00  0.00     0.298 C 
HETATM   28  C13 UNL     1      29.721   9.004  49.253  1.00  0.00     0.198 C 
HETATM   29  O2  UNL     1      31.079   9.231  49.367  1.00  0.00    -0.388 OA
HETATM   30  C14 UNL     1      31.709   7.998  49.543  1.00  0.00     0.198 C 
HETATM   31  C15 UNL     1      31.522   7.201  48.290  1.00  0.00     0.298 C 
ENDBRANCH  25  26
ENDBRANCH  24  25
ENDBRANCH  23  24
ENDBRANCH  22  23
ENDBRANCH   4  22
TORSDOF 7
ENDMDL
MODEL 6
REMARK VINA RESULT:      -7.6      1.741      2.285
REMARK  7 active torsions:
REMARK  status: ('A' for Active; 'I' for Inactive)
REMARK    1  A    between atoms: C4_5  and  N1_6 
REMARK    2  A    between atoms: N1_6  and  C5_7 
REMARK    3  A    between atoms: C8_10  and  O1_11 
REMARK    4  A    between atoms: O1_11  and  C9_12 
REMARK    5  A    between atoms: C9_12  and  C10_13 
REMARK    6  A    between atoms: C10_13  and  C11_14 
REMARK    7  A    between atoms: C11_14  and  N2_15 
ROOT
HETATM    1  C5  UNL     1      22.162   3.349  50.019  1.00  0.00     0.136 C 
HETATM    2  C6  UNL     1      23.379   3.752  49.387  1.00  0.00    -0.006 C 
HETATM    3  C7  UNL     1      25.008   3.519  49.500  1.00  0.00     0.050 C 
HETATM    4  C8  UNL     1      24.924   4.161  50.723  1.00  0.00     0.095 C 
HETATM    5  C16 UNL     1      24.276   5.527  50.364  1.00  0.00     0.063 C 
HETATM    6  C17 UNL     1      23.970   6.007  49.091  1.00  0.00     0.010 C 
HETATM    7  C18 UNL     1      23.172   4.908  48.380  1.00  0.00     0.072 C 
HETATM    8  N3  UNL     1      23.421   6.114  51.512  1.00  0.00    -0.349 N 
HETATM    9  C19 UNL     1      22.004   5.401  51.585  1.00  0.00     0.209 C 
HETATM   10  N4  UNL     1      21.512   4.281  50.991  1.00  0.00    -0.226 NA
HETATM   11  H22 UNL     1      23.201   6.728  52.312  1.00  0.00     0.167 HD
ENDROOT
BRANCH   1  12
HETATM   12  N1  UNL     1      21.443   2.098  49.902  1.00  0.00    -0.340 N 
HETATM   13  H3  UNL     1      20.931   1.807  49.072  1.00  0.00     0.167 HD
BRANCH  12  14
HETATM   14  C4  UNL     1      21.490   1.262  51.055  1.00  0.00     0.035 A 
HETATM   15  C3  UNL     1      22.697   1.014  51.672  1.00  0.00     0.032 A 
HETATM   16  C2  UNL     1      22.863   0.226  52.791  1.00  0.00     0.046 A 
HETATM   17  C1  UNL     1      21.717  -0.326  53.282  1.00  0.00     0.138 A 
HETATM   18  F1  UNL     1      21.793  -1.115  54.381  1.00  0.00    -0.204 F 
HETATM   19  C21 UNL     1      20.459  -0.145  52.743  1.00  0.00     0.074 A 
HETATM   20  C20 UNL     1      20.396   0.661  51.625  1.00  0.00     0.056 A 
HETATM   21 CL1  UNL     1      18.992  -0.860  53.384  1.00  0.00    -0.081 Cl
ENDBRANCH  12  14
ENDBRANCH   1  12
BRANCH   4  22
HETATM   22  O1  UNL     1      25.524   3.137  51.592  1.00  0.00    -0.349 OA
BRANCH  22  23
HETATM   23  C9  UNL     1      26.610   2.407  51.058  1.00  0.00     0.177 C 
BRANCH  23  24
HETATM   24  C10 UNL     1      26.673   1.116  51.832  1.00  0.00     0.057 C 
BRANCH  24  25
HETATM   25  C11 UNL     1      27.316   1.374  53.174  1.00  0.00     0.274 C 
BRANCH  25  26
HETATM   26  N2  UNL     1      27.299   0.191  53.961  1.00  0.00     0.092 N 
HETATM   27  C12 UNL     1      26.412  -0.823  53.517  1.00  0.00     0.298 C 
HETATM   28  C13 UNL     1      27.140  -1.839  52.658  1.00  0.00     0.198 C 
HETATM   29  O2  UNL     1      28.265  -2.333  53.289  1.00  0.00    -0.388 OA
HETATM   30  C14 UNL     1      29.183  -1.288  53.417  1.00  0.00     0.198 C 
HETATM   31  C15 UNL     1      28.596  -0.269  54.343  1.00  0.00     0.298 C 
ENDBRANCH  25  26
ENDBRANCH  24  25
ENDBRANCH  23  24
ENDBRANCH  22  23
ENDBRANCH   4  22
TORSDOF 7
ENDMDL
MODEL 7
REMARK VINA RESULT:      -7.5      4.311      6.524
REMARK  7 active torsions:
REMARK  status: ('A' for Active; 'I' for Inactive)
REMARK    1  A    between atoms: C4_5  and  N1_6 
REMARK    2  A    between atoms: N1_6  and  C5_7 
REMARK    3  A    between atoms: C8_10  and  O1_11 
REMARK    4  A    between atoms: O1_11  and  C9_12 
REMARK    5  A    between atoms: C9_12  and  C10_13 
REMARK    6  A    between atoms: C10_13  and  C11_14 
REMARK    7  A    between atoms: C11_14  and  N2_15 
ROOT
HETATM    1  C5  UNL     1      24.558   3.832  50.069  1.00  0.00     0.136 C 
HETATM    2  C6  UNL     1      23.973   4.420  51.233  1.00  0.00    -0.006 C 
HETATM    3  C7  UNL     1      23.711   4.092  52.828  1.00  0.00     0.050 C 
HETATM    4  C8  UNL     1      22.873   3.081  52.389  1.00  0.00     0.095 C 
HETATM    5  C16 UNL     1      21.852   3.831  51.489  1.00  0.00     0.063 C 
HETATM    6  C17 UNL     1      21.759   5.207  51.284  1.00  0.00     0.010 C 
HETATM    7  C18 UNL     1      23.163   5.699  50.912  1.00  0.00     0.072 C 
HETATM    8  N3  UNL     1      21.299   2.955  50.339  1.00  0.00    -0.349 N 
HETATM    9  C19 UNL     1      22.348   2.849  49.153  1.00  0.00     0.209 C 
HETATM   10  N4  UNL     1      23.661   3.192  49.058  1.00  0.00    -0.226 NA
HETATM   11  H22 UNL     1      20.616   2.358  49.847  1.00  0.00     0.167 HD
ENDROOT
BRANCH   1  12
HETATM   12  N1  UNL     1      25.955   3.706  49.713  1.00  0.00    -0.340 N 
HETATM   13  H3  UNL     1      26.515   2.873  49.878  1.00  0.00     0.167 HD
BRANCH  12  14
HETATM   14  C4  UNL     1      26.529   4.855  49.095  1.00  0.00     0.035 A 
HETATM   15  C3  UNL     1      27.867   4.860  48.768  1.00  0.00     0.032 A 
HETATM   16  C2  UNL     1      28.528   5.910  48.167  1.00  0.00     0.046 A 
HETATM   17  C1  UNL     1      27.754   7.000  47.899  1.00  0.00     0.138 A 
HETATM   18  F1  UNL     1      28.327   8.077  47.308  1.00  0.00    -0.204 F 
HETATM   19  C21 UNL     1      26.407   7.101  48.184  1.00  0.00     0.074 A 
HETATM   20  C20 UNL     1      25.836   5.999  48.784  1.00  0.00     0.056 A 
HETATM   21 CL1  UNL     1      25.421   8.509  47.834  1.00  0.00    -0.081 Cl
ENDBRANCH  12  14
ENDBRANCH   1  12
BRANCH   4  22
HETATM   22  O1  UNL     1      23.479   1.930  53.075  1.00  0.00    -0.349 OA
BRANCH  22  23
HETATM   23  C9  UNL     1      23.471   0.699  52.380  1.00  0.00     0.177 C 
BRANCH  23  24
HETATM   24  C10 UNL     1      24.522  -0.162  53.032  1.00  0.00     0.057 C 
BRANCH  24  25
HETATM   25  C11 UNL     1      25.882   0.449  52.791  1.00  0.00     0.274 C 
BRANCH  25  26
HETATM   26  N2  UNL     1      26.347   1.093  53.969  1.00  0.00     0.092 N 
HETATM   27  C12 UNL     1      26.926   0.239  54.942  1.00  0.00     0.298 C 
HETATM   28  C13 UNL     1      28.435   0.205  54.800  1.00  0.00     0.198 C 
HETATM   29  O2  UNL     1      28.979   1.475  54.793  1.00  0.00    -0.388 OA
HETATM   30  C14 UNL     1      28.552   2.121  53.632  1.00  0.00     0.198 C 
HETATM   31  C15 UNL     1      27.069   2.301  53.723  1.00  0.00     0.298 C 
ENDBRANCH  25  26
ENDBRANCH  24  25
ENDBRANCH  23  24
ENDBRANCH  22  23
ENDBRANCH   4  22
TORSDOF 7
ENDMDL
MODEL 8
REMARK VINA RESULT:      -7.5      2.917      6.696
REMARK  7 active torsions:
REMARK  status: ('A' for Active; 'I' for Inactive)
REMARK    1  A    between atoms: C4_5  and  N1_6 
REMARK    2  A    between atoms: N1_6  and  C5_7 
REMARK    3  A    between atoms: C8_10  and  O1_11 
REMARK    4  A    between atoms: O1_11  and  C9_12 
REMARK    5  A    between atoms: C9_12  and  C10_13 
REMARK    6  A    between atoms: C10_13  and  C11_14 
REMARK    7  A    between atoms: C11_14  and  N2_15 
ROOT
HETATM    1  C5  UNL     1      25.472   2.057  53.259  1.00  0.00     0.136 C 
HETATM    2  C6  UNL     1      25.155   0.815  52.628  1.00  0.00    -0.006 C 
HETATM    3  C7  UNL     1      24.062  -0.417  52.723  1.00  0.00     0.050 C 
HETATM    4  C8  UNL     1      24.618  -0.694  53.960  1.00  0.00     0.095 C 
HETATM    5  C16 UNL     1      26.123  -0.905  53.635  1.00  0.00     0.063 C 
HETATM    6  C17 UNL     1      26.720  -0.919  52.375  1.00  0.00     0.010 C 
HETATM    7  C18 UNL     1      26.255   0.348  51.646  1.00  0.00     0.072 C 
HETATM    8  N3  UNL     1      27.058  -0.506  54.802  1.00  0.00    -0.349 N 
HETATM    9  C19 UNL     1      27.239   1.070  54.870  1.00  0.00     0.209 C 
HETATM   10  N4  UNL     1      26.587   2.093  54.256  1.00  0.00    -0.226 NA
HETATM   11  H22 UNL     1      27.674  -0.655  55.617  1.00  0.00     0.167 HD
ENDROOT
BRANCH   1  12
HETATM   12  N1  UNL     1      24.824   3.344  53.121  1.00  0.00    -0.340 N 
HETATM   13  H3  UNL     1      24.682   3.999  53.886  1.00  0.00     0.167 HD
BRANCH  12  14
HETATM   14  C4  UNL     1      24.378   3.659  51.804  1.00  0.00     0.035 A 
HETATM   15  C3  UNL     1      25.289   3.737  50.773  1.00  0.00     0.032 A 
HETATM   16  C2  UNL     1      24.973   4.030  49.464  1.00  0.00     0.046 A 
HETATM   17  C1  UNL     1      23.649   4.254  49.226  1.00  0.00     0.138 A 
HETATM   18  F1  UNL     1      23.255   4.549  47.964  1.00  0.00    -0.204 F 
HETATM   19  C21 UNL     1      22.656   4.203  50.183  1.00  0.00     0.074 A 
HETATM   20  C20 UNL     1      23.071   3.901  51.463  1.00  0.00     0.056 A 
HETATM   21 CL1  UNL     1      20.956   4.492  49.865  1.00  0.00    -0.081 Cl
ENDBRANCH  12  14
ENDBRANCH   1  12
BRANCH   4  22
HETATM   22  O1  UNL     1      23.414  -0.628  54.803  1.00  0.00    -0.349 OA
BRANCH  22  23
HETATM   23  C9  UNL     1      22.196  -1.018  54.202  1.00  0.00     0.177 C 
BRANCH  23  24
HETATM   24  C10 UNL     1      21.151  -0.050  54.695  1.00  0.00     0.057 C 
BRANCH  24  25
HETATM   25  C11 UNL     1      20.666   0.788  53.535  1.00  0.00     0.274 C 
BRANCH  25  26
HETATM   26  N2  UNL     1      20.211  -0.050  52.481  1.00  0.00     0.092 N 
HETATM   27  C12 UNL     1      18.862  -0.474  52.581  1.00  0.00     0.298 C 
HETATM   28  C13 UNL     1      17.950   0.428  51.772  1.00  0.00     0.198 C 
HETATM   29  O2  UNL     1      18.387   0.562  50.468  1.00  0.00    -0.388 OA
HETATM   30  C14 UNL     1      19.602   1.251  50.489  1.00  0.00     0.198 C 
HETATM   31  C15 UNL     1      20.610   0.387  51.181  1.00  0.00     0.298 C 
ENDBRANCH  25  26
ENDBRANCH  24  25
ENDBRANCH  23  24
ENDBRANCH  22  23
ENDBRANCH   4  22
TORSDOF 7
ENDMDL
MODEL 9
REMARK VINA RESULT:      -7.3      2.189      3.093
REMARK  7 active torsions:
REMARK  status: ('A' for Active; 'I' for Inactive)
REMARK    1  A    between atoms: C4_5  and  N1_6 
REMARK    2  A    between atoms: N1_6  and  C5_7 
REMARK    3  A    between atoms: C8_10  and  O1_11 
REMARK    4  A    between atoms: O1_11  and  C9_12 
REMARK    5  A    between atoms: C9_12  and  C10_13 
REMARK    6  A    between atoms: C10_13  and  C11_14 
REMARK    7  A    between atoms: C11_14  and  N2_15 
ROOT
HETATM    1  C5  UNL     1      22.240   5.748  50.059  1.00  0.00     0.136 C 
HETATM    2  C6  UNL     1      23.255   5.002  49.385  1.00  0.00    -0.006 C 
HETATM    3  C7  UNL     1      24.170   3.642  49.574  1.00  0.00     0.050 C 
HETATM    4  C8  UNL     1      24.755   4.294  50.646  1.00  0.00     0.095 C 
HETATM    5  C16 UNL     1      25.292   5.608  50.014  1.00  0.00     0.063 C 
HETATM    6  C17 UNL     1      25.275   5.965  48.666  1.00  0.00     0.010 C 
HETATM    7  C18 UNL     1      23.840   5.756  48.167  1.00  0.00     0.072 C 
HETATM    8  N3  UNL     1      25.317   6.793  51.009  1.00  0.00    -0.349 N 
HETATM    9  C19 UNL     1      23.866   7.411  51.191  1.00  0.00     0.209 C 
HETATM   10  N4  UNL     1      22.633   6.976  50.817  1.00  0.00    -0.226 NA
HETATM   11  H22 UNL     1      25.735   7.468  51.669  1.00  0.00     0.167 HD
ENDROOT
BRANCH   1  12
HETATM   12  N1  UNL     1      20.824   5.468  50.174  1.00  0.00    -0.340 N 
HETATM   13  H3  UNL     1      20.089   6.100  49.867  1.00  0.00     0.167 HD
BRANCH  12  14
HETATM   14  C4  UNL     1      20.501   4.211  50.764  1.00  0.00     0.035 A 
HETATM   15  C3  UNL     1      20.986   3.897  52.015  1.00  0.00     0.032 A 
HETATM   16  C2  UNL     1      20.738   2.718  52.682  1.00  0.00     0.046 A 
HETATM   17  C1  UNL     1      19.952   1.829  52.010  1.00  0.00     0.138 A 
HETATM   18  F1  UNL     1      19.660   0.643  52.597  1.00  0.00    -0.204 F 
HETATM   19  C21 UNL     1      19.415   2.041  50.756  1.00  0.00     0.074 A 
HETATM   20  C20 UNL     1      19.719   3.252  50.170  1.00  0.00     0.056 A 
HETATM   21 CL1  UNL     1      18.404   0.891  49.901  1.00  0.00    -0.081 Cl
ENDBRANCH  12  14
ENDBRANCH   1  12
BRANCH   4  22
HETATM   22  O1  UNL     1      24.508   3.308  51.710  1.00  0.00    -0.349 OA
BRANCH  22  23
HETATM   23  C9  UNL     1      24.193   1.994  51.298  1.00  0.00     0.177 C 
BRANCH  23  24
HETATM   24  C10 UNL     1      24.337   1.121  52.518  1.00  0.00     0.057 C 
BRANCH  24  25
HETATM   25  C11 UNL     1      25.789   0.739  52.684  1.00  0.00     0.274 C 
BRANCH  25  26
HETATM   26  N2  UNL     1      26.301   1.272  53.898  1.00  0.00     0.092 N 
HETATM   27  C12 UNL     1      26.736   0.312  54.848  1.00  0.00     0.298 C 
HETATM   28  C13 UNL     1      28.231   0.084  54.739  1.00  0.00     0.198 C 
HETATM   29  O2  UNL     1      28.937   1.270  54.796  1.00  0.00    -0.388 OA
HETATM   30  C14 UNL     1      28.631   2.010  53.652  1.00  0.00     0.198 C 
HETATM   31  C15 UNL     1      27.182   2.381  53.717  1.00  0.00     0.298 C 
ENDBRANCH  25  26
ENDBRANCH  24  25
ENDBRANCH  23  24
ENDBRANCH  22  23
ENDBRANCH   4  22
TORSDOF 7
ENDMDL
