MODEL 1
REMARK VINA RESULT:      -9.4      0.000      0.000
REMARK  1 active torsions:
REMARK  status: ('A' for Active; 'I' for Inactive)
REMARK    1  A    between atoms: C9_11  and  N3_12 
ROOT
HETATM    1  C1  UNL     1      24.906   2.870  53.769  1.00  0.00     0.026 C 
HETATM    2  C2  UNL     1      24.398   2.542  52.600  1.00  0.00     0.018 C 
HETATM    3  C3  UNL     1      24.883   3.208  51.364  1.00  0.00     0.166 C 
HETATM    4  N1  UNL     1      23.726   3.856  50.784  1.00  0.00    -0.381 N 
HETATM    5  C4  UNL     1      22.743   4.405  51.688  1.00  0.00     0.097 C 
HETATM    6  C5  UNL     1      21.926   4.415  50.690  1.00  0.00     0.005 C 
HETATM    7  C6  UNL     1      22.949   4.291  49.642  1.00  0.00     0.165 C 
HETATM    8  C7  UNL     1      20.545   4.496  50.368  1.00  0.00     0.084 A 
HETATM    9  C8  UNL     1      20.250   5.146  49.172  1.00  0.00     0.151 A 
HETATM   10  N2  UNL     1      18.925   5.237  48.843  1.00  0.00    -0.239 NA
HETATM   11  C9  UNL     1      18.005   4.699  49.685  1.00  0.00     0.153 A 
HETATM   12  C10 UNL     1      18.294   4.044  50.890  1.00  0.00     0.148 A 
HETATM   13  N4  UNL     1      19.581   3.975  51.174  1.00  0.00    -0.239 NA
HETATM   14  C11 UNL     1      17.086   3.586  51.550  1.00  0.00     0.164 A 
HETATM   15  N5  UNL     1      16.279   4.485  52.190  1.00  0.00    -0.226 NA
HETATM   16  C12 UNL     1      15.204   3.823  52.712  1.00  0.00     0.086 A 
HETATM   17  C13 UNL     1      14.108   4.239  53.433  1.00  0.00     0.034 A 
HETATM   18  C14 UNL     1      13.192   3.273  53.800  1.00  0.00     0.002 A 
HETATM   19  C15 UNL     1      13.368   1.928  53.456  1.00  0.00     0.002 A 
HETATM   20  C16 UNL     1      14.498   1.608  52.732  1.00  0.00     0.032 A 
HETATM   21  C17 UNL     1      15.435   2.521  52.344  1.00  0.00     0.065 A 
HETATM   22  N6  UNL     1      16.564   2.346  51.643  1.00  0.00    -0.321 N 
HETATM   23  C18 UNL     1      17.327   1.314  51.017  1.00  0.00     0.201 C 
HETATM   24  C19 UNL     1      17.680   0.187  51.873  1.00  0.00     0.112 C 
HETATM   25  F1  UNL     1      16.888  -0.699  52.506  1.00  0.00    -0.209 F 
HETATM   26  C20 UNL     1      18.972  -0.107  52.129  1.00  0.00     0.041 C 
HETATM   27  C21 UNL     1      20.378   0.274  51.884  1.00  0.00     0.027 C 
HETATM   28  C22 UNL     1      21.658  -0.041  52.153  1.00  0.00     0.008 C 
HETATM   29  C23 UNL     1      21.778  -1.221  53.030  1.00  0.00     0.068 C 
HETATM   30  N7  UNL     1      22.538   0.878  51.515  1.00  0.00    -0.327 N 
HETATM   31  C24 UNL     1      23.346   1.539  52.473  1.00  0.00     0.252 C 
HETATM   32  O1  UNL     1      22.856   0.939  53.463  1.00  0.00    -0.268 OA
HETATM   33  H22 UNL     1      22.533   0.996  50.476  1.00  0.00     0.169 HD
ENDROOT
BRANCH  11  34
HETATM   34  N3  UNL     1      16.675   4.898  49.161  1.00  0.00    -0.382 N 
HETATM   35  H9  UNL     1      15.838   4.279  49.281  1.00  0.00     0.157 HD
HETATM   36  H10 UNL     1      16.267   5.675  48.567  1.00  0.00     0.157 HD
ENDBRANCH  11  34
TORSDOF 1
ENDMDL
MODEL 2
REMARK VINA RESULT:      -9.4      2.824      7.494
REMARK  1 active torsions:
REMARK  status: ('A' for Active; 'I' for Inactive)
REMARK    1  A    between atoms: C9_11  and  N3_12 
ROOT
HETATM    1  C1  UNL     1      15.932  -0.751  48.943  1.00  0.00     0.026 C 
HETATM    2  C2  UNL     1      16.093   0.001  50.011  1.00  0.00     0.018 C 
HETATM    3  C3  UNL     1      15.565   1.390  50.029  1.00  0.00     0.166 C 
HETATM    4  N1  UNL     1      16.712   2.247  50.238  1.00  0.00    -0.381 N 
HETATM    5  C4  UNL     1      17.964   1.847  49.641  1.00  0.00     0.097 C 
HETATM    6  C5  UNL     1      18.540   2.663  50.458  1.00  0.00     0.005 C 
HETATM    7  C6  UNL     1      17.333   3.430  50.796  1.00  0.00     0.165 C 
HETATM    8  C7  UNL     1      19.800   2.979  51.030  1.00  0.00     0.084 A 
HETATM    9  C8  UNL     1      20.012   4.330  51.295  1.00  0.00     0.151 A 
HETATM   10  N2  UNL     1      21.221   4.657  51.845  1.00  0.00    -0.239 NA
HETATM   11  C9  UNL     1      22.115   3.665  52.092  1.00  0.00     0.153 A 
HETATM   12  C10 UNL     1      21.910   2.304  51.828  1.00  0.00     0.148 A 
HETATM   13  N4  UNL     1      20.734   2.027  51.298  1.00  0.00    -0.239 NA
HETATM   14  C11 UNL     1      23.061   1.508  52.209  1.00  0.00     0.164 A 
HETATM   15  N5  UNL     1      24.187   1.526  51.434  1.00  0.00    -0.226 NA
HETATM   16  C12 UNL     1      25.131   0.721  52.004  1.00  0.00     0.086 A 
HETATM   17  C13 UNL     1      26.419   0.390  51.647  1.00  0.00     0.034 A 
HETATM   18  C14 UNL     1      27.102  -0.471  52.484  1.00  0.00     0.002 A 
HETATM   19  C15 UNL     1      26.514  -0.988  53.643  1.00  0.00     0.002 A 
HETATM   20  C16 UNL     1      25.219  -0.599  53.917  1.00  0.00     0.032 A 
HETATM   21  C17 UNL     1      24.497   0.248  53.126  1.00  0.00     0.065 A 
HETATM   22  N6  UNL     1      23.246   0.704  53.277  1.00  0.00    -0.321 N 
HETATM   23  C18 UNL     1      22.130   0.596  54.160  1.00  0.00     0.201 C 
HETATM   24  C19 UNL     1      21.670  -0.761  54.429  1.00  0.00     0.112 C 
HETATM   25  F1  UNL     1      22.311  -1.791  55.015  1.00  0.00    -0.209 F 
HETATM   26  C20 UNL     1      20.424  -1.149  54.084  1.00  0.00     0.041 C 
HETATM   27  C21 UNL     1      19.149  -0.735  53.466  1.00  0.00     0.027 C 
HETATM   28  C22 UNL     1      17.910  -1.145  53.135  1.00  0.00     0.008 C 
HETATM   29  C23 UNL     1      17.661  -2.550  53.509  1.00  0.00     0.068 C 
HETATM   30  N7  UNL     1      17.195  -0.093  52.498  1.00  0.00    -0.327 N 
HETATM   31  C24 UNL     1      16.797  -0.481  51.194  1.00  0.00     0.252 C 
HETATM   32  O1  UNL     1      17.298  -1.631  51.264  1.00  0.00    -0.268 OA
HETATM   33  H22 UNL     1      17.024   0.816  52.986  1.00  0.00     0.169 HD
ENDROOT
BRANCH  11  34
HETATM   34  N3  UNL     1      23.319   4.213  52.670  1.00  0.00    -0.382 N 
HETATM   35  H9  UNL     1      23.566   5.222  52.806  1.00  0.00     0.157 HD
HETATM   36  H10 UNL     1      24.181   3.740  53.065  1.00  0.00     0.157 HD
ENDBRANCH  11  34
TORSDOF 1
ENDMDL
MODEL 3
REMARK VINA RESULT:      -9.2      4.123      7.508
REMARK  1 active torsions:
REMARK  status: ('A' for Active; 'I' for Inactive)
REMARK    1  A    between atoms: C9_11  and  N3_12 
ROOT
HETATM    1  C1  UNL     1      20.794   0.233  54.941  1.00  0.00     0.026 C 
HETATM    2  C2  UNL     1      21.469  -0.119  53.868  1.00  0.00     0.018 C 
HETATM    3  C3  UNL     1      22.673  -0.980  53.995  1.00  0.00     0.166 C 
HETATM    4  N1  UNL     1      23.770  -0.209  53.452  1.00  0.00    -0.381 N 
HETATM    5  C4  UNL     1      23.751   1.220  53.658  1.00  0.00     0.097 C 
HETATM    6  C5  UNL     1      24.613   1.305  52.702  1.00  0.00     0.005 C 
HETATM    7  C6  UNL     1      25.020  -0.107  52.727  1.00  0.00     0.165 C 
HETATM    8  C7  UNL     1      25.187   2.222  51.782  1.00  0.00     0.084 A 
HETATM    9  C8  UNL     1      26.519   1.984  51.457  1.00  0.00     0.151 A 
HETATM   10  N2  UNL     1      27.092   2.858  50.573  1.00  0.00    -0.239 NA
HETATM   11  C9  UNL     1      26.341   3.876  50.083  1.00  0.00     0.153 A 
HETATM   12  C10 UNL     1      24.999   4.123  50.406  1.00  0.00     0.148 A 
HETATM   13  N4  UNL     1      24.480   3.261  51.259  1.00  0.00    -0.239 NA
HETATM   14  C11 UNL     1      24.489   5.289  49.709  1.00  0.00     0.164 A 
HETATM   15  N5  UNL     1      24.855   6.540  50.119  1.00  0.00    -0.226 NA
HETATM   16  C12 UNL     1      24.268   7.465  49.303  1.00  0.00     0.086 A 
HETATM   17  C13 UNL     1      24.304   8.840  49.268  1.00  0.00     0.034 A 
HETATM   18  C14 UNL     1      23.575   9.464  48.275  1.00  0.00     0.002 A 
HETATM   19  C15 UNL     1      22.830   8.732  47.343  1.00  0.00     0.002 A 
HETATM   20  C16 UNL     1      22.855   7.358  47.459  1.00  0.00     0.032 A 
HETATM   21  C17 UNL     1      23.557   6.689  48.420  1.00  0.00     0.065 A 
HETATM   22  N6  UNL     1      23.670   5.372  48.640  1.00  0.00    -0.321 N 
HETATM   23  C18 UNL     1      23.210   4.123  48.124  1.00  0.00     0.201 C 
HETATM   24  C19 UNL     1      21.762   3.984  48.012  1.00  0.00     0.112 C 
HETATM   25  F1  UNL     1      20.881   4.683  47.272  1.00  0.00    -0.209 F 
HETATM   26  C20 UNL     1      21.105   3.034  48.711  1.00  0.00     0.041 C 
HETATM   27  C21 UNL     1      21.235   1.922  49.673  1.00  0.00     0.027 C 
HETATM   28  C22 UNL     1      20.556   0.982  50.356  1.00  0.00     0.008 C 
HETATM   29  C23 UNL     1      19.107   1.021  50.083  1.00  0.00     0.068 C 
HETATM   30  N7  UNL     1      21.444   0.223  51.168  1.00  0.00    -0.327 N 
HETATM   31  C24 UNL     1      21.081   0.325  52.534  1.00  0.00     0.252 C 
HETATM   32  O1  UNL     1      20.092   1.073  52.328  1.00  0.00    -0.268 OA
HETATM   33  H22 UNL     1      22.237  -0.313  50.745  1.00  0.00     0.169 HD
ENDROOT
BRANCH  11  34
HETATM   34  N3  UNL     1      27.122   4.679  49.172  1.00  0.00    -0.382 N 
HETATM   35  H9  UNL     1      27.536   4.391  48.253  1.00  0.00     0.157 HD
HETATM   36  H10 UNL     1      27.438   5.689  49.228  1.00  0.00     0.157 HD
ENDBRANCH  11  34
TORSDOF 1
ENDMDL
MODEL 4
REMARK VINA RESULT:      -8.8      3.432      6.594
REMARK  1 active torsions:
REMARK  status: ('A' for Active; 'I' for Inactive)
REMARK    1  A    between atoms: C9_11  and  N3_12 
ROOT
HETATM    1  C1  UNL     1      20.772   4.102  44.106  1.00  0.00     0.026 C 
HETATM    2  C2  UNL     1      20.433   4.869  45.119  1.00  0.00     0.018 C 
HETATM    3  C3  UNL     1      20.903   6.278  45.176  1.00  0.00     0.166 C 
HETATM    4  N1  UNL     1      21.679   6.386  46.392  1.00  0.00    -0.381 N 
HETATM    5  C4  UNL     1      22.457   5.238  46.796  1.00  0.00     0.097 C 
HETATM    6  C5  UNL     1      22.514   5.771  47.969  1.00  0.00     0.005 C 
HETATM    7  C6  UNL     1      22.136   7.127  47.550  1.00  0.00     0.165 C 
HETATM    8  C7  UNL     1      22.792   5.469  49.329  1.00  0.00     0.084 A 
HETATM    9  C8  UNL     1      23.378   6.499  50.060  1.00  0.00     0.151 A 
HETATM   10  N2  UNL     1      23.655   6.229  51.372  1.00  0.00    -0.239 NA
HETATM   11  C9  UNL     1      23.349   5.002  51.864  1.00  0.00     0.153 A 
HETATM   12  C10 UNL     1      22.760   3.959  51.135  1.00  0.00     0.148 A 
HETATM   13  N4  UNL     1      22.507   4.256  49.875  1.00  0.00    -0.239 NA
HETATM   14  C11 UNL     1      22.564   2.779  51.956  1.00  0.00     0.164 A 
HETATM   15  N5  UNL     1      23.634   1.994  52.285  1.00  0.00    -0.226 NA
HETATM   16  C12 UNL     1      23.204   0.965  53.072  1.00  0.00     0.086 A 
HETATM   17  C13 UNL     1      23.853  -0.090  53.673  1.00  0.00     0.034 A 
HETATM   18  C14 UNL     1      23.084  -0.958  54.422  1.00  0.00     0.002 A 
HETATM   19  C15 UNL     1      21.704  -0.777  54.567  1.00  0.00     0.002 A 
HETATM   20  C16 UNL     1      21.143   0.309  53.928  1.00  0.00     0.032 A 
HETATM   21  C17 UNL     1      21.854   1.197  53.174  1.00  0.00     0.065 A 
HETATM   22  N6  UNL     1      21.438   2.285  52.510  1.00  0.00    -0.321 N 
HETATM   23  C18 UNL     1      20.246   3.018  52.229  1.00  0.00     0.201 C 
HETATM   24  C19 UNL     1      19.153   2.243  51.652  1.00  0.00     0.112 C 
HETATM   25  F1  UNL     1      18.466   1.205  52.163  1.00  0.00    -0.209 F 
HETATM   26  C20 UNL     1      18.676   2.534  50.423  1.00  0.00     0.041 C 
HETATM   27  C21 UNL     1      18.799   3.419  49.248  1.00  0.00     0.027 C 
HETATM   28  C22 UNL     1      18.303   3.690  48.026  1.00  0.00     0.008 C 
HETATM   29  C23 UNL     1      17.199   2.787  47.652  1.00  0.00     0.068 C 
HETATM   30  N7  UNL     1      19.008   4.776  47.436  1.00  0.00    -0.327 N 
HETATM   31  C24 UNL     1      19.608   4.376  46.216  1.00  0.00     0.252 C 
HETATM   32  O1  UNL     1      19.182   3.194  46.268  1.00  0.00    -0.268 OA
HETATM   33  H22 UNL     1      19.037   5.715  47.897  1.00  0.00     0.169 HD
ENDROOT
BRANCH  11  34
HETATM   34  N3  UNL     1      23.717   4.917  53.258  1.00  0.00    -0.382 N 
HETATM   35  H9  UNL     1      23.883   5.706  53.928  1.00  0.00     0.157 HD
HETATM   36  H10 UNL     1      23.894   4.081  53.883  1.00  0.00     0.157 HD
ENDBRANCH  11  34
TORSDOF 1
ENDMDL
MODEL 5
REMARK VINA RESULT:      -8.7      2.830      7.235
REMARK  1 active torsions:
REMARK  status: ('A' for Active; 'I' for Inactive)
REMARK    1  A    between atoms: C9_11  and  N3_12 
ROOT
HETATM    1  C1  UNL     1      17.138   2.702  46.654  1.00  0.00     0.026 C 
HETATM    2  C2  UNL     1      17.162   3.179  47.880  1.00  0.00     0.018 C 
HETATM    3  C3  UNL     1      16.951   4.630  48.118  1.00  0.00     0.166 C 
HETATM    4  N1  UNL     1      18.153   5.103  48.769  1.00  0.00    -0.381 N 
HETATM    5  C4  UNL     1      19.407   4.504  48.378  1.00  0.00     0.097 C 
HETATM    6  C5  UNL     1      19.901   4.978  49.471  1.00  0.00     0.005 C 
HETATM    7  C6  UNL     1      18.836   5.960  49.717  1.00  0.00     0.165 C 
HETATM    8  C7  UNL     1      21.001   4.842  50.360  1.00  0.00     0.084 A 
HETATM    9  C8  UNL     1      21.412   6.018  50.981  1.00  0.00     0.151 A 
HETATM   10  N2  UNL     1      22.470   5.910  51.841  1.00  0.00    -0.239 NA
HETATM   11  C9  UNL     1      23.038   4.691  52.028  1.00  0.00     0.153 A 
HETATM   12  C10 UNL     1      22.631   3.503  51.406  1.00  0.00     0.148 A 
HETATM   13  N4  UNL     1      21.608   3.645  50.584  1.00  0.00    -0.239 NA
HETATM   14  C11 UNL     1      23.445   2.377  51.822  1.00  0.00     0.164 A 
HETATM   15  N5  UNL     1      24.715   2.239  51.335  1.00  0.00    -0.226 NA
HETATM   16  C12 UNL     1      25.282   1.124  51.883  1.00  0.00     0.086 A 
HETATM   17  C13 UNL     1      26.519   0.537  51.743  1.00  0.00     0.034 A 
HETATM   18  C14 UNL     1      26.758  -0.610  52.474  1.00  0.00     0.002 A 
HETATM   19  C15 UNL     1      25.786  -1.156  53.320  1.00  0.00     0.002 A 
HETATM   20  C16 UNL     1      24.577  -0.497  53.394  1.00  0.00     0.032 A 
HETATM   21  C17 UNL     1      24.286   0.639  52.695  1.00  0.00     0.065 A 
HETATM   22  N6  UNL     1      23.165   1.373  52.678  1.00  0.00    -0.321 N 
HETATM   23  C18 UNL     1      21.857   1.403  53.249  1.00  0.00     0.201 C 
HETATM   24  C19 UNL     1      21.068   0.188  53.077  1.00  0.00     0.112 C 
HETATM   25  F1  UNL     1      21.298  -1.062  53.521  1.00  0.00    -0.209 F 
HETATM   26  C20 UNL     1      19.906   0.211  52.389  1.00  0.00     0.041 C 
HETATM   27  C21 UNL     1      18.958   1.051  51.630  1.00  0.00     0.027 C 
HETATM   28  C22 UNL     1      17.796   1.048  50.951  1.00  0.00     0.008 C 
HETATM   29  C23 UNL     1      17.168  -0.286  50.913  1.00  0.00     0.068 C 
HETATM   30  N7  UNL     1      17.514   2.348  50.448  1.00  0.00    -0.327 N 
HETATM   31  C24 UNL     1      17.406   2.322  49.035  1.00  0.00     0.252 C 
HETATM   32  O1  UNL     1      17.618   1.087  48.932  1.00  0.00    -0.268 OA
HETATM   33  H22 UNL     1      17.414   3.166  51.092  1.00  0.00     0.169 HD
ENDROOT
BRANCH  11  34
HETATM   34  N3  UNL     1      24.131   4.788  52.966  1.00  0.00    -0.382 N 
HETATM   35  H9  UNL     1      24.186   4.388  53.933  1.00  0.00     0.157 HD
HETATM   36  H10 UNL     1      25.075   5.264  52.891  1.00  0.00     0.157 HD
ENDBRANCH  11  34
TORSDOF 1
ENDMDL
MODEL 6
REMARK VINA RESULT:      -8.5     13.666     16.006
REMARK  1 active torsions:
REMARK  status: ('A' for Active; 'I' for Inactive)
REMARK    1  A    between atoms: C9_11  and  N3_12 
ROOT
HETATM    1  C1  UNL     1      33.547   4.565  42.547  1.00  0.00     0.026 C 
HETATM    2  C2  UNL     1      34.159   5.196  43.527  1.00  0.00     0.018 C 
HETATM    3  C3  UNL     1      34.730   4.429  44.664  1.00  0.00     0.166 C 
HETATM    4  N1  UNL     1      34.054   4.915  45.848  1.00  0.00    -0.381 N 
HETATM    5  C4  UNL     1      32.666   5.293  45.719  1.00  0.00     0.097 C 
HETATM    6  C5  UNL     1      32.807   5.939  46.827  1.00  0.00     0.005 C 
HETATM    7  C6  UNL     1      34.039   5.262  47.254  1.00  0.00     0.165 C 
HETATM    8  C7  UNL     1      32.208   6.954  47.620  1.00  0.00     0.084 A 
HETATM    9  C8  UNL     1      32.350   6.794  48.996  1.00  0.00     0.151 A 
HETATM   10  N2  UNL     1      31.780   7.759  49.780  1.00  0.00    -0.239 NA
HETATM   11  C9  UNL     1      31.128   8.787  49.178  1.00  0.00     0.153 A 
HETATM   12  C10 UNL     1      30.980   8.955  47.794  1.00  0.00     0.148 A 
HETATM   13  N4  UNL     1      31.543   8.005  47.071  1.00  0.00    -0.239 NA
HETATM   14  C11 UNL     1      30.232  10.157  47.479  1.00  0.00     0.164 A 
HETATM   15  N5  UNL     1      28.877  10.182  47.663  1.00  0.00    -0.226 NA
HETATM   16  C12 UNL     1      28.405  11.416  47.319  1.00  0.00     0.086 A 
HETATM   17  C13 UNL     1      27.145  11.970  47.318  1.00  0.00     0.034 A 
HETATM   18  C14 UNL     1      27.035  13.283  46.903  1.00  0.00     0.002 A 
HETATM   19  C15 UNL     1      28.154  14.020  46.499  1.00  0.00     0.002 A 
HETATM   20  C16 UNL     1      29.374  13.379  46.534  1.00  0.00     0.032 A 
HETATM   21  C17 UNL     1      29.541  12.085  46.935  1.00  0.00     0.065 A 
HETATM   22  N6  UNL     1      30.659  11.351  47.019  1.00  0.00    -0.321 N 
HETATM   23  C18 UNL     1      32.063  11.445  46.778  1.00  0.00     0.201 C 
HETATM   24  C19 UNL     1      32.443  11.875  45.438  1.00  0.00     0.112 C 
HETATM   25  F1  UNL     1      32.195  13.034  44.799  1.00  0.00    -0.209 F 
HETATM   26  C20 UNL     1      33.163  11.066  44.632  1.00  0.00     0.041 C 
HETATM   27  C21 UNL     1      33.822   9.752  44.502  1.00  0.00     0.027 C 
HETATM   28  C22 UNL     1      34.541   8.965  43.680  1.00  0.00     0.008 C 
HETATM   29  C23 UNL     1      34.817   9.607  42.382  1.00  0.00     0.068 C 
HETATM   30  N7  UNL     1      34.819   7.718  44.307  1.00  0.00    -0.327 N 
HETATM   31  C24 UNL     1      34.287   6.649  43.545  1.00  0.00     0.252 C 
HETATM   32  O1  UNL     1      33.816   7.383  42.640  1.00  0.00    -0.268 OA
HETATM   33  H22 UNL     1      35.350   7.673  45.207  1.00  0.00     0.169 HD
ENDROOT
BRANCH  11  34
HETATM   34  N3  UNL     1      30.602   9.694  50.171  1.00  0.00    -0.382 N 
HETATM   35  H9  UNL     1      31.129  10.209  50.915  1.00  0.00     0.157 HD
HETATM   36  H10 UNL     1      29.613  10.022  50.361  1.00  0.00     0.157 HD
ENDBRANCH  11  34
TORSDOF 1
ENDMDL
MODEL 7
REMARK VINA RESULT:      -8.5      3.448      5.708
REMARK  1 active torsions:
REMARK  status: ('A' for Active; 'I' for Inactive)
REMARK    1  A    between atoms: C9_11  and  N3_12 
ROOT
HETATM    1  C1  UNL     1      21.540  -0.257  54.947  1.00  0.00     0.026 C 
HETATM    2  C2  UNL     1      21.998  -0.283  53.714  1.00  0.00     0.018 C 
HETATM    3  C3  UNL     1      23.414  -0.653  53.453  1.00  0.00     0.166 C 
HETATM    4  N1  UNL     1      24.007   0.492  52.796  1.00  0.00    -0.381 N 
HETATM    5  C4  UNL     1      23.556   1.803  53.197  1.00  0.00     0.097 C 
HETATM    6  C5  UNL     1      24.065   2.244  52.098  1.00  0.00     0.005 C 
HETATM    7  C6  UNL     1      24.919   1.078  51.836  1.00  0.00     0.165 C 
HETATM    8  C7  UNL     1      24.038   3.354  51.211  1.00  0.00     0.084 A 
HETATM    9  C8  UNL     1      25.243   3.634  50.572  1.00  0.00     0.151 A 
HETATM   10  N2  UNL     1      25.241   4.699  49.715  1.00  0.00    -0.239 NA
HETATM   11  C9  UNL     1      24.089   5.399  49.547  1.00  0.00     0.153 A 
HETATM   12  C10 UNL     1      22.872   5.124  50.187  1.00  0.00     0.148 A 
HETATM   13  N4  UNL     1      22.913   4.090  51.005  1.00  0.00    -0.239 NA
HETATM   14  C11 UNL     1      21.837   6.059  49.788  1.00  0.00     0.164 A 
HETATM   15  N5  UNL     1      21.848   7.335  50.278  1.00  0.00    -0.226 NA
HETATM   16  C12 UNL     1      20.795   8.023  49.747  1.00  0.00     0.086 A 
HETATM   17  C13 UNL     1      20.351   9.317  49.896  1.00  0.00     0.034 A 
HETATM   18  C14 UNL     1      19.226   9.683  49.183  1.00  0.00     0.002 A 
HETATM   19  C15 UNL     1      18.564   8.780  48.344  1.00  0.00     0.002 A 
HETATM   20  C16 UNL     1      19.083   7.505  48.260  1.00  0.00     0.032 A 
HETATM   21  C17 UNL     1      20.190   7.089  48.942  1.00  0.00     0.065 A 
HETATM   22  N6  UNL     1      20.796   5.893  48.947  1.00  0.00    -0.321 N 
HETATM   23  C18 UNL     1      20.673   4.591  48.375  1.00  0.00     0.201 C 
HETATM   24  C19 UNL     1      19.381   3.941  48.565  1.00  0.00     0.112 C 
HETATM   25  F1  UNL     1      18.158   4.309  48.139  1.00  0.00    -0.209 F 
HETATM   26  C20 UNL     1      19.286   2.783  49.251  1.00  0.00     0.041 C 
HETATM   27  C21 UNL     1      20.026   1.746  49.997  1.00  0.00     0.027 C 
HETATM   28  C22 UNL     1      19.905   0.590  50.676  1.00  0.00     0.008 C 
HETATM   29  C23 UNL     1      18.510   0.113  50.733  1.00  0.00     0.068 C 
HETATM   30  N7  UNL     1      21.173   0.165  51.159  1.00  0.00    -0.327 N 
HETATM   31  C24 UNL     1      21.157   0.057  52.572  1.00  0.00     0.252 C 
HETATM   32  O1  UNL     1      19.955   0.404  52.694  1.00  0.00    -0.268 OA
HETATM   33  H22 UNL     1      21.966  -0.024  50.503  1.00  0.00     0.169 HD
ENDROOT
BRANCH  11  34
HETATM   34  N3  UNL     1      24.293   6.477  48.608  1.00  0.00    -0.382 N 
HETATM   35  H9  UNL     1      24.876   7.338  48.734  1.00  0.00     0.157 HD
HETATM   36  H10 UNL     1      23.915   6.631  47.630  1.00  0.00     0.157 HD
ENDBRANCH  11  34
TORSDOF 1
ENDMDL
MODEL 8
REMARK VINA RESULT:      -8.4      3.795      6.437
REMARK  1 active torsions:
REMARK  status: ('A' for Active; 'I' for Inactive)
REMARK    1  A    between atoms: C9_11  and  N3_12 
ROOT
HETATM    1  C1  UNL     1      21.206   9.798  49.303  1.00  0.00     0.026 C 
HETATM    2  C2  UNL     1      21.208   8.785  48.462  1.00  0.00     0.018 C 
HETATM    3  C3  UNL     1      20.172   8.697  47.401  1.00  0.00     0.166 C 
HETATM    4  N1  UNL     1      19.465   7.458  47.640  1.00  0.00    -0.381 N 
HETATM    5  C4  UNL     1      19.280   7.046  49.012  1.00  0.00     0.097 C 
HETATM    6  C5  UNL     1      19.033   5.865  48.557  1.00  0.00     0.005 C 
HETATM    7  C6  UNL     1      18.767   6.278  47.172  1.00  0.00     0.165 C 
HETATM    8  C7  UNL     1      18.958   4.501  48.947  1.00  0.00     0.084 A 
HETATM    9  C8  UNL     1      18.005   3.741  48.275  1.00  0.00     0.151 A 
HETATM   10  N2  UNL     1      17.915   2.425  48.637  1.00  0.00    -0.239 NA
HETATM   11  C9  UNL     1      18.742   1.957  49.607  1.00  0.00     0.153 A 
HETATM   12  C10 UNL     1      19.704   2.715  50.288  1.00  0.00     0.148 A 
HETATM   13  N4  UNL     1      19.762   3.979  49.913  1.00  0.00    -0.239 NA
HETATM   14  C11 UNL     1      20.421   1.915  51.262  1.00  0.00     0.164 A 
HETATM   15  N5  UNL     1      19.813   1.565  52.435  1.00  0.00    -0.226 NA
HETATM   16  C12 UNL     1      20.675   0.803  53.172  1.00  0.00     0.086 A 
HETATM   17  C13 UNL     1      20.571   0.197  54.403  1.00  0.00     0.034 A 
HETATM   18  C14 UNL     1      21.666  -0.519  54.847  1.00  0.00     0.002 A 
HETATM   19  C15 UNL     1      22.832  -0.626  54.080  1.00  0.00     0.002 A 
HETATM   20  C16 UNL     1      22.841   0.016  52.859  1.00  0.00     0.032 A 
HETATM   21  C17 UNL     1      21.790   0.738  52.372  1.00  0.00     0.065 A 
HETATM   22  N6  UNL     1      21.667   1.400  51.213  1.00  0.00    -0.321 N 
HETATM   23  C18 UNL     1      22.410   1.707  50.034  1.00  0.00     0.201 C 
HETATM   24  C19 UNL     1      23.712   2.325  50.253  1.00  0.00     0.112 C 
HETATM   25  F1  UNL     1      24.800   1.847  50.886  1.00  0.00    -0.209 F 
HETATM   26  C20 UNL     1      23.976   3.564  49.785  1.00  0.00     0.041 C 
HETATM   27  C21 UNL     1      23.441   4.724  49.045  1.00  0.00     0.027 C 
HETATM   28  C22 UNL     1      23.729   5.956  48.586  1.00  0.00     0.008 C 
HETATM   29  C23 UNL     1      25.105   6.374  48.916  1.00  0.00     0.068 C 
HETATM   30  N7  UNL     1      22.602   6.512  47.919  1.00  0.00    -0.327 N 
HETATM   31  C24 UNL     1      22.199   7.719  48.544  1.00  0.00     0.252 C 
HETATM   32  O1  UNL     1      23.100   7.694  49.420  1.00  0.00    -0.268 OA
HETATM   33  H22 UNL     1      22.181   6.039  47.087  1.00  0.00     0.169 HD
ENDROOT
BRANCH  11  34
HETATM   34  N3  UNL     1      18.492   0.554  49.841  1.00  0.00    -0.382 N 
HETATM   35  H9  UNL     1      17.837   0.125  50.536  1.00  0.00     0.157 HD
HETATM   36  H10 UNL     1      18.897  -0.312  49.385  1.00  0.00     0.157 HD
ENDBRANCH  11  34
TORSDOF 1
ENDMDL
MODEL 9
REMARK VINA RESULT:      -8.2     10.167     14.385
REMARK  1 active torsions:
REMARK  status: ('A' for Active; 'I' for Inactive)
REMARK    1  A    between atoms: C9_11  and  N3_12 
ROOT
HETATM    1  C1  UNL     1      32.783   8.493  40.729  1.00  0.00     0.026 C 
HETATM    2  C2  UNL     1      32.978   9.137  41.860  1.00  0.00     0.018 C 
HETATM    3  C3  UNL     1      34.352   9.280  42.408  1.00  0.00     0.166 C 
HETATM    4  N1  UNL     1      34.327   8.641  43.707  1.00  0.00    -0.381 N 
HETATM    5  C4  UNL     1      33.492   7.474  43.864  1.00  0.00     0.097 C 
HETATM    6  C5  UNL     1      33.579   7.663  45.137  1.00  0.00     0.005 C 
HETATM    7  C6  UNL     1      34.750   8.550  45.089  1.00  0.00     0.165 C 
HETATM    8  C7  UNL     1      32.964   7.317  46.370  1.00  0.00     0.084 A 
HETATM    9  C8  UNL     1      33.828   7.217  47.457  1.00  0.00     0.151 A 
HETATM   10  N2  UNL     1      33.258   6.883  48.655  1.00  0.00    -0.239 NA
HETATM   11  C9  UNL     1      31.917   6.676  48.704  1.00  0.00     0.153 A 
HETATM   12  C10 UNL     1      31.041   6.775  47.614  1.00  0.00     0.148 A 
HETATM   13  N4  UNL     1      31.626   7.099  46.477  1.00  0.00    -0.239 NA
HETATM   14  C11 UNL     1      29.672   6.494  48.003  1.00  0.00     0.164 A 
HETATM   15  N5  UNL     1      29.284   5.206  48.245  1.00  0.00    -0.226 NA
HETATM   16  C12 UNL     1      27.969   5.199  48.611  1.00  0.00     0.086 A 
HETATM   17  C13 UNL     1      27.099   4.191  48.962  1.00  0.00     0.034 A 
HETATM   18  C14 UNL     1      25.808   4.559  49.289  1.00  0.00     0.002 A 
HETATM   19  C15 UNL     1      25.399   5.897  49.264  1.00  0.00     0.002 A 
HETATM   20  C16 UNL     1      26.341   6.836  48.900  1.00  0.00     0.032 A 
HETATM   21  C17 UNL     1      27.629   6.529  48.567  1.00  0.00     0.065 A 
HETATM   22  N6  UNL     1      28.636   7.335  48.202  1.00  0.00    -0.321 N 
HETATM   23  C18 UNL     1      28.917   8.715  47.971  1.00  0.00     0.201 C 
HETATM   24  C19 UNL     1      28.032   9.387  47.026  1.00  0.00     0.112 C 
HETATM   25  F1  UNL     1      26.705   9.606  47.089  1.00  0.00    -0.209 F 
HETATM   26  C20 UNL     1      28.518   9.914  45.882  1.00  0.00     0.041 C 
HETATM   27  C21 UNL     1      29.724  10.134  45.059  1.00  0.00     0.027 C 
HETATM   28  C22 UNL     1      30.183  10.670  43.913  1.00  0.00     0.008 C 
HETATM   29  C23 UNL     1      29.115  11.305  43.118  1.00  0.00     0.068 C 
HETATM   30  N7  UNL     1      31.584  10.452  43.792  1.00  0.00    -0.327 N 
HETATM   31  C24 UNL     1      31.873   9.715  42.617  1.00  0.00     0.252 C 
HETATM   32  O1  UNL     1      30.676   9.626  42.246  1.00  0.00    -0.268 OA
HETATM   33  H22 UNL     1      32.251  10.817  44.511  1.00  0.00     0.169 HD
ENDROOT
BRANCH  11  34
HETATM   34  N3  UNL     1      31.513   6.337  50.048  1.00  0.00    -0.382 N 
HETATM   35  H9  UNL     1      30.620   6.589  50.534  1.00  0.00     0.157 HD
HETATM   36  H10 UNL     1      32.007   5.785  50.806  1.00  0.00     0.157 HD
ENDBRANCH  11  34
TORSDOF 1
ENDMDL
