MODEL 1
REMARK VINA RESULT:      -8.2      0.000      0.000
REMARK  4 active torsions:
REMARK  status: ('A' for Active; 'I' for Inactive)
REMARK    1  A    between atoms: C2_2  and  C3_3 
REMARK    2  A    between atoms: C8_9  and  O1_10 
REMARK    3  A    between atoms: O1_10  and  C9_11 
REMARK    4  A    between atoms: C9_11  and  C11_13 
ROOT
HETATM    1  C9  UNL     1      26.281   0.838  52.784  1.00  0.00     0.155 C 
HETATM    2  C10 UNL     1      26.073   1.931  53.824  1.00  0.00     0.045 C 
ENDROOT
BRANCH   1   3
HETATM    3  O1  UNL     1      26.227   1.306  51.486  1.00  0.00    -0.366 OA
BRANCH   3   4
HETATM    4  C8  UNL     1      25.327   2.353  51.429  1.00  0.00     0.197 A 
HETATM    5  C4  UNL     1      25.536   3.258  50.270  1.00  0.00     0.066 A 
HETATM    6  C3  UNL     1      26.669   3.906  50.070  1.00  0.00     0.029 C 
HETATM    7  N1  UNL     1      24.506   3.460  49.313  1.00  0.00    -0.263 NA
HETATM    8  C5  UNL     1      23.355   2.880  49.384  1.00  0.00     0.117 A 
HETATM    9  C6  UNL     1      23.038   1.970  50.468  1.00  0.00     0.018 A 
HETATM   10  C7  UNL     1      23.969   1.752  51.388  1.00  0.00     0.012 A 
BRANCH   6  11
HETATM   11  C2  UNL     1      26.815   4.775  48.909  1.00  0.00    -0.008 C 
HETATM   12  C1  UNL     1      28.026   5.199  48.508  1.00  0.00     0.011 C 
ENDBRANCH   6  11
ENDBRANCH   3   4
ENDBRANCH   1   3
BRANCH   1  13
HETATM   13  C11 UNL     1      27.598   0.200  53.083  1.00  0.00     0.017 A 
HETATM   14  C12 UNL     1      28.738   0.919  53.425  1.00  0.00     0.044 A 
HETATM   15 CL1  UNL     1      28.619   2.681  53.509  1.00  0.00    -0.084 Cl
HETATM   16  C13 UNL     1      29.946   0.312  53.697  1.00  0.00     0.028 A 
HETATM   17  C14 UNL     1      30.021  -1.063  53.627  1.00  0.00     0.046 A 
HETATM   18  C15 UNL     1      28.944  -1.854  53.297  1.00  0.00     0.138 A 
HETATM   19  F1  UNL     1      29.007  -3.204  53.226  1.00  0.00    -0.204 F 
HETATM   20  C16 UNL     1      27.795  -1.177  53.045  1.00  0.00     0.083 A 
HETATM   21 CL2  UNL     1      26.350  -2.103  52.610  1.00  0.00    -0.080 Cl
ENDBRANCH   1  13
TORSDOF 4
ENDMDL
MODEL 2
REMARK VINA RESULT:      -8.2      2.429      3.922
REMARK  4 active torsions:
REMARK  status: ('A' for Active; 'I' for Inactive)
REMARK    1  A    between atoms: C2_2  and  C3_3 
REMARK    2  A    between atoms: C8_9  and  O1_10 
REMARK    3  A    between atoms: O1_10  and  C9_11 
REMARK    4  A    between atoms: C9_11  and  C11_13 
ROOT
HETATM    1  C9  UNL     1      26.230   0.674  52.676  1.00  0.00     0.155 C 
HETATM    2  C10 UNL     1      26.389   1.279  51.287  1.00  0.00     0.045 C 
ENDROOT
BRANCH   1   3
HETATM    3  O1  UNL     1      25.245  -0.293  52.739  1.00  0.00    -0.366 OA
BRANCH   3   4
HETATM    4  C8  UNL     1      24.207   0.182  53.518  1.00  0.00     0.197 A 
HETATM    5  C4  UNL     1      22.897   0.199  52.821  1.00  0.00     0.066 A 
HETATM    6  C3  UNL     1      22.691   0.881  51.709  1.00  0.00     0.029 C 
HETATM    7  N1  UNL     1      21.794  -0.538  53.333  1.00  0.00    -0.263 NA
HETATM    8  C5  UNL     1      21.863  -1.255  54.404  1.00  0.00     0.117 A 
HETATM    9  C6  UNL     1      23.093  -1.352  55.165  1.00  0.00     0.018 A 
HETATM   10  C7  UNL     1      24.149  -0.679  54.727  1.00  0.00     0.012 A 
BRANCH   6  11
HETATM   11  C2  UNL     1      21.383   0.851  51.069  1.00  0.00    -0.008 C 
HETATM   12  C1  UNL     1      21.265   0.884  49.730  1.00  0.00     0.011 C 
ENDBRANCH   6  11
ENDBRANCH   3   4
ENDBRANCH   1   3
BRANCH   1  13
HETATM   13  C11 UNL     1      27.564   0.124  53.065  1.00  0.00     0.017 A 
HETATM   14  C12 UNL     1      28.599   0.906  53.564  1.00  0.00     0.044 A 
HETATM   15 CL1  UNL     1      28.321   2.643  53.746  1.00  0.00    -0.084 Cl
HETATM   16  C13 UNL     1      29.825   0.381  53.918  1.00  0.00     0.028 A 
HETATM   17  C14 UNL     1      30.025  -0.975  53.769  1.00  0.00     0.046 A 
HETATM   18  C15 UNL     1      29.057  -1.825  53.283  1.00  0.00     0.138 A 
HETATM   19  F1  UNL     1      29.243  -3.157  53.134  1.00  0.00    -0.204 F 
HETATM   20  C16 UNL     1      27.883  -1.226  52.960  1.00  0.00     0.083 A 
HETATM   21 CL2  UNL     1      26.571  -2.232  52.324  1.00  0.00    -0.080 Cl
ENDBRANCH   1  13
TORSDOF 4
ENDMDL
MODEL 3
REMARK VINA RESULT:      -8.0      1.356      2.629
REMARK  4 active torsions:
REMARK  status: ('A' for Active; 'I' for Inactive)
REMARK    1  A    between atoms: C2_2  and  C3_3 
REMARK    2  A    between atoms: C8_9  and  O1_10 
REMARK    3  A    between atoms: O1_10  and  C9_11 
REMARK    4  A    between atoms: C9_11  and  C11_13 
ROOT
HETATM    1  C9  UNL     1      26.274   0.841  52.602  1.00  0.00     0.155 C 
HETATM    2  C10 UNL     1      25.302   0.596  53.749  1.00  0.00     0.045 C 
ENDROOT
BRANCH   1   3
HETATM    3  O1  UNL     1      26.427   2.179  52.295  1.00  0.00    -0.366 OA
BRANCH   3   4
HETATM    4  C8  UNL     1      25.677   2.465  51.170  1.00  0.00     0.197 A 
HETATM    5  C4  UNL     1      24.694   3.559  51.370  1.00  0.00     0.066 A 
HETATM    6  C3  UNL     1      23.741   3.502  52.282  1.00  0.00     0.029 C 
HETATM    7  N1  UNL     1      24.746   4.734  50.573  1.00  0.00    -0.263 NA
HETATM    8  C5  UNL     1      25.632   4.923  49.653  1.00  0.00     0.117 A 
HETATM    9  C6  UNL     1      26.647   3.926  49.372  1.00  0.00     0.018 A 
HETATM   10  C7  UNL     1      26.637   2.810  50.090  1.00  0.00     0.012 A 
BRANCH   6  11
HETATM   11  C2  UNL     1      22.811   4.613  52.434  1.00  0.00    -0.008 C 
HETATM   12  C1  UNL     1      21.512   4.478  52.118  1.00  0.00     0.011 C 
ENDBRANCH   6  11
ENDBRANCH   3   4
ENDBRANCH   1   3
BRANCH   1  13
HETATM   13  C11 UNL     1      27.573   0.215  52.993  1.00  0.00     0.017 A 
HETATM   14  C12 UNL     1      28.650   0.936  53.495  1.00  0.00     0.044 A 
HETATM   15 CL1  UNL     1      28.471   2.686  53.677  1.00  0.00    -0.084 Cl
HETATM   16  C13 UNL     1      29.843   0.342  53.851  1.00  0.00     0.028 A 
HETATM   17  C14 UNL     1      29.966  -1.024  53.702  1.00  0.00     0.046 A 
HETATM   18  C15 UNL     1      28.952  -1.816  53.214  1.00  0.00     0.138 A 
HETATM   19  F1  UNL     1      29.062  -3.157  53.064  1.00  0.00    -0.204 F 
HETATM   20  C16 UNL     1      27.814  -1.151  52.888  1.00  0.00     0.083 A 
HETATM   21 CL2  UNL     1      26.448  -2.080  52.250  1.00  0.00    -0.080 Cl
ENDBRANCH   1  13
TORSDOF 4
ENDMDL
MODEL 4
REMARK VINA RESULT:      -7.8      2.886      4.665
REMARK  4 active torsions:
REMARK  status: ('A' for Active; 'I' for Inactive)
REMARK    1  A    between atoms: C2_2  and  C3_3 
REMARK    2  A    between atoms: C8_9  and  O1_10 
REMARK    3  A    between atoms: O1_10  and  C9_11 
REMARK    4  A    between atoms: C9_11  and  C11_13 
ROOT
HETATM    1  C9  UNL     1      25.873   0.559  52.667  1.00  0.00     0.155 C 
HETATM    2  C10 UNL     1      25.991   1.019  51.220  1.00  0.00     0.045 C 
ENDROOT
BRANCH   1   3
HETATM    3  O1  UNL     1      24.963  -0.466  52.839  1.00  0.00    -0.366 OA
BRANCH   3   4
HETATM    4  C8  UNL     1      23.897   0.007  53.582  1.00  0.00     0.197 A 
HETATM    5  C4  UNL     1      22.608   0.006  52.845  1.00  0.00     0.066 A 
HETATM    6  C3  UNL     1      22.431   0.675  51.721  1.00  0.00     0.029 C 
HETATM    7  N1  UNL     1      21.497  -0.735  53.330  1.00  0.00    -0.263 NA
HETATM    8  C5  UNL     1      21.539  -1.441  54.410  1.00  0.00     0.117 A 
HETATM    9  C6  UNL     1      22.746  -1.521  55.209  1.00  0.00     0.018 A 
HETATM   10  C7  UNL     1      23.810  -0.843  54.797  1.00  0.00     0.012 A 
BRANCH   6  11
HETATM   11  C2  UNL     1      21.143   0.627  51.041  1.00  0.00    -0.008 C 
HETATM   12  C1  UNL     1      21.042   0.895  49.728  1.00  0.00     0.011 C 
ENDBRANCH   6  11
ENDBRANCH   3   4
ENDBRANCH   1   3
BRANCH   1  13
HETATM   13  C11 UNL     1      27.243   0.155  53.107  1.00  0.00     0.017 A 
HETATM   14  C12 UNL     1      27.759  -1.123  52.928  1.00  0.00     0.044 A 
HETATM   15 CL1  UNL     1      26.739  -2.333  52.140  1.00  0.00    -0.084 Cl
HETATM   16  C13 UNL     1      29.027  -1.478  53.341  1.00  0.00     0.028 A 
HETATM   17  C14 UNL     1      29.809  -0.522  53.955  1.00  0.00     0.046 A 
HETATM   18  C15 UNL     1      29.379   0.768  54.172  1.00  0.00     0.138 A 
HETATM   19  F1  UNL     1      30.139   1.714  54.772  1.00  0.00    -0.204 F 
HETATM   20  C16 UNL     1      28.122   1.032  53.735  1.00  0.00     0.083 A 
HETATM   21 CL2  UNL     1      27.473   2.664  53.968  1.00  0.00    -0.080 Cl
ENDBRANCH   1  13
TORSDOF 4
ENDMDL
MODEL 5
REMARK VINA RESULT:      -7.5      4.137      7.035
REMARK  4 active torsions:
REMARK  status: ('A' for Active; 'I' for Inactive)
REMARK    1  A    between atoms: C2_2  and  C3_3 
REMARK    2  A    between atoms: C8_9  and  O1_10 
REMARK    3  A    between atoms: O1_10  and  C9_11 
REMARK    4  A    between atoms: C9_11  and  C11_13 
ROOT
HETATM    1  C9  UNL     1      23.754   2.933  51.000  1.00  0.00     0.155 C 
HETATM    2  C10 UNL     1      23.004   2.487  49.752  1.00  0.00     0.045 C 
ENDROOT
BRANCH   1   3
HETATM    3  O1  UNL     1      24.710   2.025  51.414  1.00  0.00    -0.366 OA
BRANCH   3   4
HETATM    4  C8  UNL     1      24.623   1.885  52.786  1.00  0.00     0.197 A 
HETATM    5  C4  UNL     1      24.084   0.571  53.220  1.00  0.00     0.066 A 
HETATM    6  C3  UNL     1      22.890   0.138  52.860  1.00  0.00     0.029 C 
HETATM    7  N1  UNL     1      24.853  -0.289  54.050  1.00  0.00    -0.263 NA
HETATM    8  C5  UNL     1      26.039   0.007  54.464  1.00  0.00     0.117 A 
HETATM    9  C6  UNL     1      26.670   1.260  54.100  1.00  0.00     0.018 A 
HETATM   10  C7  UNL     1      25.990   2.097  53.327  1.00  0.00     0.012 A 
BRANCH   6  11
HETATM   11  C2  UNL     1      22.421  -1.165  53.312  1.00  0.00    -0.008 C 
HETATM   12  C1  UNL     1      21.350  -1.276  54.117  1.00  0.00     0.011 C 
ENDBRANCH   6  11
ENDBRANCH   3   4
ENDBRANCH   1   3
BRANCH   1  13
HETATM   13  C11 UNL     1      24.360   4.263  50.690  1.00  0.00     0.017 A 
HETATM   14  C12 UNL     1      25.552   4.419  49.992  1.00  0.00     0.044 A 
HETATM   15 CL1  UNL     1      26.394   2.964  49.444  1.00  0.00    -0.084 Cl
HETATM   16  C13 UNL     1      26.096   5.655  49.714  1.00  0.00     0.028 A 
HETATM   17  C14 UNL     1      25.426   6.780  50.149  1.00  0.00     0.046 A 
HETATM   18  C15 UNL     1      24.241   6.720  50.847  1.00  0.00     0.138 A 
HETATM   19  F1  UNL     1      23.576   7.818  51.277  1.00  0.00    -0.204 F 
HETATM   20  C16 UNL     1      23.776   5.466  51.076  1.00  0.00     0.083 A 
HETATM   21 CL2  UNL     1      22.257   5.280  51.968  1.00  0.00    -0.080 Cl
ENDBRANCH   1  13
TORSDOF 4
ENDMDL
MODEL 6
REMARK VINA RESULT:      -7.4      4.276      7.651
REMARK  4 active torsions:
REMARK  status: ('A' for Active; 'I' for Inactive)
REMARK    1  A    between atoms: C2_2  and  C3_3 
REMARK    2  A    between atoms: C8_9  and  O1_10 
REMARK    3  A    between atoms: O1_10  and  C9_11 
REMARK    4  A    between atoms: C9_11  and  C11_13 
ROOT
HETATM    1  C9  UNL     1      23.601   2.655  50.875  1.00  0.00     0.155 C 
HETATM    2  C10 UNL     1      22.847   3.340  52.007  1.00  0.00     0.045 C 
ENDROOT
BRANCH   1   3
HETATM    3  O1  UNL     1      23.897   1.332  51.142  1.00  0.00    -0.366 OA
BRANCH   3   4
HETATM    4  C8  UNL     1      24.615   1.268  52.321  1.00  0.00     0.197 A 
HETATM    5  C4  UNL     1      24.191   0.164  53.219  1.00  0.00     0.066 A 
HETATM    6  C3  UNL     1      22.960   0.058  53.684  1.00  0.00     0.029 C 
HETATM    7  N1  UNL     1      25.113  -0.843  53.615  1.00  0.00    -0.263 NA
HETATM    8  C5  UNL     1      26.343  -0.864  53.224  1.00  0.00     0.117 A 
HETATM    9  C6  UNL     1      26.869   0.158  52.341  1.00  0.00     0.018 A 
HETATM   10  C7  UNL     1      26.045   1.121  51.946  1.00  0.00     0.012 A 
BRANCH   6  11
HETATM   11  C2  UNL     1      22.605  -1.054  54.556  1.00  0.00    -0.008 C 
HETATM   12  C1  UNL     1      21.399  -1.642  54.474  1.00  0.00     0.011 C 
ENDBRANCH   6  11
ENDBRANCH   3   4
ENDBRANCH   1   3
BRANCH   1  13
HETATM   13  C11 UNL     1      22.760   2.792  49.648  1.00  0.00     0.017 A 
HETATM   14  C12 UNL     1      21.679   1.965  49.363  1.00  0.00     0.044 A 
HETATM   15 CL1  UNL     1      21.282   0.684  50.516  1.00  0.00    -0.084 Cl
HETATM   16  C13 UNL     1      20.914   2.107  48.225  1.00  0.00     0.028 A 
HETATM   17  C14 UNL     1      21.238   3.110  47.336  1.00  0.00     0.046 A 
HETATM   18  C15 UNL     1      22.290   3.975  47.537  1.00  0.00     0.138 A 
HETATM   19  F1  UNL     1      22.616   4.964  46.672  1.00  0.00    -0.204 F 
HETATM   20  C16 UNL     1      22.990   3.766  48.681  1.00  0.00     0.083 A 
HETATM   21 CL2  UNL     1      24.365   4.825  49.033  1.00  0.00    -0.080 Cl
ENDBRANCH   1  13
TORSDOF 4
ENDMDL
MODEL 7
REMARK VINA RESULT:      -7.3      2.820      3.818
REMARK  4 active torsions:
REMARK  status: ('A' for Active; 'I' for Inactive)
REMARK    1  A    between atoms: C2_2  and  C3_3 
REMARK    2  A    between atoms: C8_9  and  O1_10 
REMARK    3  A    between atoms: O1_10  and  C9_11 
REMARK    4  A    between atoms: C9_11  and  C11_13 
ROOT
HETATM    1  C9  UNL     1      25.584   0.934  52.550  1.00  0.00     0.155 C 
HETATM    2  C10 UNL     1      26.415  -0.068  51.760  1.00  0.00     0.045 C 
ENDROOT
BRANCH   1   3
HETATM    3  O1  UNL     1      24.795   1.737  51.749  1.00  0.00    -0.366 OA
BRANCH   3   4
HETATM    4  C8  UNL     1      25.033   3.059  52.075  1.00  0.00     0.197 A 
HETATM    5  C4  UNL     1      25.335   3.918  50.902  1.00  0.00     0.066 A 
HETATM    6  C3  UNL     1      26.353   3.686  50.094  1.00  0.00     0.029 C 
HETATM    7  N1  UNL     1      24.521   5.043  50.599  1.00  0.00    -0.263 NA
HETATM    8  C5  UNL     1      23.490   5.376  51.300  1.00  0.00     0.117 A 
HETATM    9  C6  UNL     1      23.094   4.608  52.464  1.00  0.00     0.018 A 
HETATM   10  C7  UNL     1      23.826   3.550  52.789  1.00  0.00     0.012 A 
BRANCH   6  11
HETATM   11  C2  UNL     1      26.593   4.562  48.955  1.00  0.00    -0.008 C 
HETATM   12  C1  UNL     1      27.840   4.924  48.610  1.00  0.00     0.011 C 
ENDBRANCH   6  11
ENDBRANCH   3   4
ENDBRANCH   1   3
BRANCH   1  13
HETATM   13  C11 UNL     1      24.761   0.148  53.518  1.00  0.00     0.017 A 
HETATM   14  C12 UNL     1      23.440  -0.216  53.282  1.00  0.00     0.044 A 
HETATM   15 CL1  UNL     1      22.697   0.280  51.757  1.00  0.00    -0.084 Cl
HETATM   16  C13 UNL     1      22.696  -0.943  54.188  1.00  0.00     0.028 A 
HETATM   17  C14 UNL     1      23.291  -1.321  55.373  1.00  0.00     0.046 A 
HETATM   18  C15 UNL     1      24.592  -1.005  55.690  1.00  0.00     0.138 A 
HETATM   19  F1  UNL     1      25.186  -1.372  56.850  1.00  0.00    -0.204 F 
HETATM   20  C16 UNL     1      25.252  -0.290  54.744  1.00  0.00     0.083 A 
HETATM   21 CL2  UNL     1      26.934   0.169  55.055  1.00  0.00    -0.080 Cl
ENDBRANCH   1  13
TORSDOF 4
ENDMDL
MODEL 8
REMARK VINA RESULT:      -7.3      4.219      7.017
REMARK  4 active torsions:
REMARK  status: ('A' for Active; 'I' for Inactive)
REMARK    1  A    between atoms: C2_2  and  C3_3 
REMARK    2  A    between atoms: C8_9  and  O1_10 
REMARK    3  A    between atoms: O1_10  and  C9_11 
REMARK    4  A    between atoms: C9_11  and  C11_13 
ROOT
HETATM    1  C9  UNL     1      23.709   1.702  51.735  1.00  0.00     0.155 C 
HETATM    2  C10 UNL     1      24.911   2.351  51.063  1.00  0.00     0.045 C 
ENDROOT
BRANCH   1   3
HETATM    3  O1  UNL     1      23.904   1.456  53.080  1.00  0.00    -0.366 OA
BRANCH   3   4
HETATM    4  C8  UNL     1      24.196   0.115  53.248  1.00  0.00     0.197 A 
HETATM    5  C4  UNL     1      25.398  -0.134  54.083  1.00  0.00     0.066 A 
HETATM    6  C3  UNL     1      26.593   0.332  53.767  1.00  0.00     0.029 C 
HETATM    7  N1  UNL     1      25.304  -0.895  55.279  1.00  0.00    -0.263 NA
HETATM    8  C5  UNL     1      24.196  -1.399  55.708  1.00  0.00     0.117 A 
HETATM    9  C6  UNL     1      22.956  -1.215  54.980  1.00  0.00     0.018 A 
HETATM   10  C7  UNL     1      22.995  -0.513  53.854  1.00  0.00     0.012 A 
BRANCH   6  11
HETATM   11  C2  UNL     1      27.732   0.058  54.632  1.00  0.00    -0.008 C 
HETATM   12  C1  UNL     1      28.988   0.071  54.151  1.00  0.00     0.011 C 
ENDBRANCH   6  11
ENDBRANCH   3   4
ENDBRANCH   1   3
BRANCH   1  13
HETATM   13  C11 UNL     1      22.543   2.608  51.507  1.00  0.00     0.017 A 
HETATM   14  C12 UNL     1      22.454   3.890  52.036  1.00  0.00     0.044 A 
HETATM   15 CL1  UNL     1      23.792   4.477  53.032  1.00  0.00    -0.084 Cl
HETATM   16  C13 UNL     1      21.369   4.713  51.815  1.00  0.00     0.028 A 
HETATM   17  C14 UNL     1      20.334   4.239  51.036  1.00  0.00     0.046 A 
HETATM   18  C15 UNL     1      20.337   2.984  50.472  1.00  0.00     0.138 A 
HETATM   19  F1  UNL     1      19.327   2.510  49.706  1.00  0.00    -0.204 F 
HETATM   20  C16 UNL     1      21.441   2.241  50.739  1.00  0.00     0.083 A 
HETATM   21 CL2  UNL     1      21.544   0.608  50.060  1.00  0.00    -0.080 Cl
ENDBRANCH   1  13
TORSDOF 4
ENDMDL
MODEL 9
REMARK VINA RESULT:      -7.2      3.854      6.824
REMARK  4 active torsions:
REMARK  status: ('A' for Active; 'I' for Inactive)
REMARK    1  A    between atoms: C2_2  and  C3_3 
REMARK    2  A    between atoms: C8_9  and  O1_10 
REMARK    3  A    between atoms: O1_10  and  C9_11 
REMARK    4  A    between atoms: C9_11  and  C11_13 
ROOT
HETATM    1  C9  UNL     1      23.838   2.786  51.092  1.00  0.00     0.155 C 
HETATM    2  C10 UNL     1      23.136   2.340  49.816  1.00  0.00     0.045 C 
ENDROOT
BRANCH   1   3
HETATM    3  O1  UNL     1      24.893   1.967  51.446  1.00  0.00    -0.366 OA
BRANCH   3   4
HETATM    4  C8  UNL     1      24.959   1.903  52.825  1.00  0.00     0.197 A 
HETATM    5  C4  UNL     1      24.409   0.646  53.392  1.00  0.00     0.066 A 
HETATM    6  C3  UNL     1      23.161   0.264  53.196  1.00  0.00     0.029 C 
HETATM    7  N1  UNL     1      25.225  -0.212  54.178  1.00  0.00    -0.263 NA
HETATM    8  C5  UNL     1      26.464   0.037  54.437  1.00  0.00     0.117 A 
HETATM    9  C6  UNL     1      27.112   1.232  53.932  1.00  0.00     0.018 A 
HETATM   10  C7  UNL     1      26.389   2.065  53.195  1.00  0.00     0.012 A 
BRANCH   6  11
HETATM   11  C2  UNL     1      22.683  -0.986  53.773  1.00  0.00    -0.008 C 
HETATM   12  C1  UNL     1      21.511  -1.043  54.430  1.00  0.00     0.011 C 
ENDBRANCH   6  11
ENDBRANCH   3   4
ENDBRANCH   1   3
BRANCH   1  13
HETATM   13  C11 UNL     1      24.287   4.194  50.869  1.00  0.00     0.017 A 
HETATM   14  C12 UNL     1      23.645   5.299  51.415  1.00  0.00     0.044 A 
HETATM   15 CL1  UNL     1      22.220   5.021  52.425  1.00  0.00    -0.084 Cl
HETATM   16  C13 UNL     1      24.074   6.591  51.199  1.00  0.00     0.028 A 
HETATM   17  C14 UNL     1      25.187   6.790  50.409  1.00  0.00     0.046 A 
HETATM   18  C15 UNL     1      25.885   5.756  49.828  1.00  0.00     0.138 A 
HETATM   19  F1  UNL     1      26.978   5.940  49.052  1.00  0.00    -0.204 F 
HETATM   20  C16 UNL     1      25.396   4.518  50.092  1.00  0.00     0.083 A 
HETATM   21 CL2  UNL     1      26.222   3.117  49.390  1.00  0.00    -0.080 Cl
ENDBRANCH   1  13
TORSDOF 4
ENDMDL
