MODEL 1
REMARK VINA RESULT:      -6.7      0.000      0.000
REMARK  3 active torsions:
REMARK  status: ('A' for Active; 'I' for Inactive)
REMARK    1  A    between atoms: C3_4  and  C4_5 
REMARK    2  A    between atoms: C4_5  and  C5_6 
REMARK    3  A    between atoms: C7_10  and  C8_11 
ROOT
HETATM    1  C1  UNL     1      32.107   7.954  44.478  1.00  0.00     0.155 C 
HETATM    2  N1  UNL     1      32.067   6.977  45.514  1.00  0.00    -0.360 N 
HETATM    3  C2  UNL     1      30.943   7.302  46.402  1.00  0.00     0.115 C 
HETATM    4  C3  UNL     1      30.762   6.922  47.700  1.00  0.00     0.027 C 
HETATM    5  N2  UNL     1      31.634   6.133  48.602  1.00  0.00    -0.343 N 
HETATM    6  C6  UNL     1      32.737   5.255  48.204  1.00  0.00     0.137 C 
HETATM    7  C7  UNL     1      32.944   4.205  47.361  1.00  0.00     0.035 C 
HETATM    8  C9  UNL     1      33.767   4.963  46.407  1.00  0.00     0.158 A 
HETATM    9  N3  UNL     1      34.905   5.507  47.190  1.00  0.00    -0.360 N 
HETATM   10  C10 UNL     1      35.017   5.385  48.671  1.00  0.00     0.206 C 
HETATM   11  N4  UNL     1      33.854   5.908  48.937  1.00  0.00    -0.226 NA
HETATM   12  C11 UNL     1      34.476   4.137  45.381  1.00  0.00     0.133 A 
HETATM   13  F2  UNL     1      35.308   3.134  45.737  1.00  0.00    -0.207 F 
HETATM   14  C12 UNL     1      34.216   4.481  44.130  1.00  0.00     0.043 A 
HETATM   15  C13 UNL     1      33.280   5.591  44.256  1.00  0.00     0.031 A 
HETATM   16  C14 UNL     1      33.018   5.870  45.565  1.00  0.00     0.051 A 
HETATM   17  H9  UNL     1      31.581   6.128  49.604  1.00  0.00     0.167 HD
HETATM   18  H12 UNL     1      35.692   5.990  46.630  1.00  0.00     0.162 HD
ENDROOT
BRANCH   4  19
HETATM   19  C4  UNL     1      29.598   7.275  48.441  1.00  0.00     0.073 C 
BRANCH  19  20
HETATM   20  C5  UNL     1      28.284   6.838  47.841  1.00  0.00     0.120 C 
HETATM   21 CL1  UNL     1      27.988   5.183  48.462  1.00  0.00    -0.130 Cl
ENDBRANCH  19  20
ENDBRANCH   4  19
BRANCH   7  22
HETATM   22  C8  UNL     1      32.732   2.774  47.025  1.00  0.00     0.264 C 
HETATM   23  F1  UNL     1      31.547   2.680  46.326  1.00  0.00    -0.251 F 
ENDBRANCH   7  22
TORSDOF 3
ENDMDL
MODEL 2
REMARK VINA RESULT:      -6.6     10.717     13.355
REMARK  3 active torsions:
REMARK  status: ('A' for Active; 'I' for Inactive)
REMARK    1  A    between atoms: C3_4  and  C4_5 
REMARK    2  A    between atoms: C4_5  and  C5_6 
REMARK    3  A    between atoms: C7_10  and  C8_11 
ROOT
HETATM    1  C1  UNL     1      22.134  -0.893  54.937  1.00  0.00     0.155 C 
HETATM    2  N1  UNL     1      22.413  -0.259  53.692  1.00  0.00    -0.360 N 
HETATM    3  C2  UNL     1      23.860  -0.343  53.455  1.00  0.00     0.115 C 
HETATM    4  C3  UNL     1      24.623   0.443  52.641  1.00  0.00     0.027 C 
HETATM    5  N2  UNL     1      24.254   1.615  51.812  1.00  0.00    -0.343 N 
HETATM    6  C6  UNL     1      22.905   1.987  51.377  1.00  0.00     0.137 C 
HETATM    7  C7  UNL     1      21.853   1.411  50.732  1.00  0.00     0.035 C 
HETATM    8  C9  UNL     1      20.990   1.347  51.921  1.00  0.00     0.158 A 
HETATM    9  N3  UNL     1      20.870   2.742  52.415  1.00  0.00    -0.360 N 
HETATM   10  C10 UNL     1      21.636   3.885  51.843  1.00  0.00     0.206 C 
HETATM   11  N4  UNL     1      22.812   3.342  51.982  1.00  0.00    -0.226 NA
HETATM   12  C11 UNL     1      19.560   0.999  51.653  1.00  0.00     0.133 A 
HETATM   13  F2  UNL     1      18.808   1.725  50.796  1.00  0.00    -0.207 F 
HETATM   14  C12 UNL     1      19.120  -0.054  52.320  1.00  0.00     0.043 A 
HETATM   15  C13 UNL     1      20.276  -0.490  53.094  1.00  0.00     0.031 A 
HETATM   16  C14 UNL     1      21.355   0.314  52.866  1.00  0.00     0.051 A 
HETATM   17  H9  UNL     1      24.893   2.308  51.468  1.00  0.00     0.167 HD
HETATM   18  H12 UNL     1      20.164   2.914  53.215  1.00  0.00     0.162 HD
ENDROOT
BRANCH   4  19
HETATM   19  C4  UNL     1      26.021   0.228  52.469  1.00  0.00     0.073 C 
BRANCH  19  20
HETATM   20  C5  UNL     1      26.626  -0.853  53.330  1.00  0.00     0.120 C 
HETATM   21 CL1  UNL     1      26.808  -2.284  52.265  1.00  0.00    -0.130 Cl
ENDBRANCH  19  20
ENDBRANCH   4  19
BRANCH   7  22
HETATM   22  C8  UNL     1      21.254   0.883  49.480  1.00  0.00     0.264 C 
HETATM   23  F1  UNL     1      22.081   1.244  48.436  1.00  0.00    -0.251 F 
ENDBRANCH   7  22
TORSDOF 3
ENDMDL
MODEL 3
REMARK VINA RESULT:      -6.6      8.580     11.612
REMARK  3 active torsions:
REMARK  status: ('A' for Active; 'I' for Inactive)
REMARK    1  A    between atoms: C3_4  and  C4_5 
REMARK    2  A    between atoms: C4_5  and  C5_6 
REMARK    3  A    between atoms: C7_10  and  C8_11 
ROOT
HETATM    1  C1  UNL     1      25.708   0.955  53.513  1.00  0.00     0.155 C 
HETATM    2  N1  UNL     1      24.969   1.378  52.371  1.00  0.00    -0.360 N 
HETATM    3  C2  UNL     1      25.904   2.019  51.438  1.00  0.00     0.115 C 
HETATM    4  C3  UNL     1      25.618   2.907  50.442  1.00  0.00     0.027 C 
HETATM    5  N2  UNL     1      24.330   3.521  50.040  1.00  0.00    -0.343 N 
HETATM    6  C6  UNL     1      22.989   3.036  50.377  1.00  0.00     0.137 C 
HETATM    7  C7  UNL     1      22.275   1.880  50.284  1.00  0.00     0.035 C 
HETATM    8  C9  UNL     1      22.272   1.612  51.730  1.00  0.00     0.158 A 
HETATM    9  N3  UNL     1      21.654   2.804  52.366  1.00  0.00    -0.360 N 
HETATM   10  C10 UNL     1      21.288   4.038  51.616  1.00  0.00     0.206 C 
HETATM   11  N4  UNL     1      22.464   4.230  51.091  1.00  0.00    -0.226 NA
HETATM   12  C11 UNL     1      21.348   0.522  52.174  1.00  0.00     0.133 A 
HETATM   13  F2  UNL     1      20.027   0.561  51.890  1.00  0.00    -0.207 F 
HETATM   14  C12 UNL     1      21.935  -0.448  52.853  1.00  0.00     0.043 A 
HETATM   15  C13 UNL     1      23.337  -0.050  52.897  1.00  0.00     0.031 A 
HETATM   16  C14 UNL     1      23.534   1.135  52.250  1.00  0.00     0.051 A 
HETATM   17  H9  UNL     1      24.229   4.361  49.501  1.00  0.00     0.167 HD
HETATM   18  H12 UNL     1      21.447   2.736  53.424  1.00  0.00     0.162 HD
ENDROOT
BRANCH   4  19
HETATM   19  C4  UNL     1      26.621   3.427  49.575  1.00  0.00     0.073 C 
BRANCH  19  20
HETATM   20  C5  UNL     1      26.440   4.864  49.153  1.00  0.00     0.120 C 
HETATM   21 CL1  UNL     1      27.991   5.354  48.399  1.00  0.00    -0.130 Cl
ENDBRANCH  19  20
ENDBRANCH   4  19
BRANCH   7  22
HETATM   22  C8  UNL     1      21.563   0.880  49.449  1.00  0.00     0.264 C 
HETATM   23  F1  UNL     1      21.894   1.124  48.132  1.00  0.00    -0.251 F 
ENDBRANCH   7  22
TORSDOF 3
ENDMDL
MODEL 4
REMARK VINA RESULT:      -6.5      9.704     11.833
REMARK  3 active torsions:
REMARK  status: ('A' for Active; 'I' for Inactive)
REMARK    1  A    between atoms: C3_4  and  C4_5 
REMARK    2  A    between atoms: C4_5  and  C5_6 
REMARK    3  A    between atoms: C7_10  and  C8_11 
ROOT
HETATM    1  C1  UNL     1      22.891  -0.710  53.822  1.00  0.00     0.155 C 
HETATM    2  N1  UNL     1      23.493   0.341  53.073  1.00  0.00    -0.360 N 
HETATM    3  C2  UNL     1      24.908   0.422  53.460  1.00  0.00     0.115 C 
HETATM    4  C3  UNL     1      25.753   1.485  53.330  1.00  0.00     0.027 C 
HETATM    5  N2  UNL     1      25.505   2.856  52.825  1.00  0.00    -0.343 N 
HETATM    6  C6  UNL     1      24.379   3.291  51.994  1.00  0.00     0.137 C 
HETATM    7  C7  UNL     1      23.785   2.932  50.822  1.00  0.00     0.035 C 
HETATM    8  C9  UNL     1      22.566   2.401  51.450  1.00  0.00     0.158 A 
HETATM    9  N3  UNL     1      21.996   3.519  52.246  1.00  0.00    -0.360 N 
HETATM   10  C10 UNL     1      22.683   4.828  52.433  1.00  0.00     0.206 C 
HETATM   11  N4  UNL     1      23.799   4.331  52.884  1.00  0.00    -0.226 NA
HETATM   12  C11 UNL     1      21.443   2.101  50.507  1.00  0.00     0.133 A 
HETATM   13  F2  UNL     1      20.947   3.048  49.680  1.00  0.00    -0.207 F 
HETATM   14  C12 UNL     1      20.998   0.858  50.568  1.00  0.00     0.043 A 
HETATM   15  C13 UNL     1      21.834   0.233  51.586  1.00  0.00     0.031 A 
HETATM   16  C14 UNL     1      22.738   1.118  52.094  1.00  0.00     0.051 A 
HETATM   17  H9  UNL     1      26.077   3.658  53.014  1.00  0.00     0.167 HD
HETATM   18  H12 UNL     1      21.021   3.356  52.680  1.00  0.00     0.162 HD
ENDROOT
BRANCH   4  19
HETATM   19  C4  UNL     1      27.124   1.417  53.711  1.00  0.00     0.073 C 
BRANCH  19  20
HETATM   20  C5  UNL     1      27.505   0.237  54.571  1.00  0.00     0.120 C 
HETATM   21 CL1  UNL     1      29.157  -0.232  54.055  1.00  0.00    -0.130 Cl
ENDBRANCH  19  20
ENDBRANCH   4  19
BRANCH   7  22
HETATM   22  C8  UNL     1      23.823   2.859  49.339  1.00  0.00     0.264 C 
HETATM   23  F1  UNL     1      23.870   4.151  48.859  1.00  0.00    -0.251 F 
ENDBRANCH   7  22
TORSDOF 3
ENDMDL
MODEL 5
REMARK VINA RESULT:      -6.3      9.082     11.556
REMARK  3 active torsions:
REMARK  status: ('A' for Active; 'I' for Inactive)
REMARK    1  A    between atoms: C3_4  and  C4_5 
REMARK    2  A    between atoms: C4_5  and  C5_6 
REMARK    3  A    between atoms: C7_10  and  C8_11 
ROOT
HETATM    1  C1  UNL     1      26.721  -0.456  51.973  1.00  0.00     0.155 C 
HETATM    2  N1  UNL     1      25.580   0.346  52.262  1.00  0.00    -0.360 N 
HETATM    3  C2  UNL     1      24.810  -0.324  53.318  1.00  0.00     0.115 C 
HETATM    4  C3  UNL     1      23.490  -0.163  53.624  1.00  0.00     0.027 C 
HETATM    5  N2  UNL     1      22.447   0.669  52.977  1.00  0.00    -0.343 N 
HETATM    6  C6  UNL     1      22.668   1.806  52.080  1.00  0.00     0.137 C 
HETATM    7  C7  UNL     1      23.364   2.976  52.079  1.00  0.00     0.035 C 
HETATM    8  C9  UNL     1      24.349   2.542  51.077  1.00  0.00     0.158 A 
HETATM    9  N3  UNL     1      23.567   2.155  49.875  1.00  0.00    -0.360 N 
HETATM   10  C10 UNL     1      22.078   2.104  49.845  1.00  0.00     0.206 C 
HETATM   11  N4  UNL     1      21.949   1.316  50.874  1.00  0.00    -0.226 NA
HETATM   12  C11 UNL     1      25.223   3.626  50.530  1.00  0.00     0.133 A 
HETATM   13  F2  UNL     1      24.697   4.728  49.951  1.00  0.00    -0.207 F 
HETATM   14  C12 UNL     1      26.519   3.401  50.664  1.00  0.00     0.043 A 
HETATM   15  C13 UNL     1      26.586   2.110  51.339  1.00  0.00     0.031 A 
HETATM   16  C14 UNL     1      25.339   1.614  51.579  1.00  0.00     0.051 A 
HETATM   17  H9  UNL     1      21.457   0.532  53.066  1.00  0.00     0.167 HD
HETATM   18  H12 UNL     1      24.131   1.928  48.982  1.00  0.00     0.162 HD
ENDROOT
BRANCH   4  19
HETATM   19  C4  UNL     1      22.871  -0.849  54.707  1.00  0.00     0.073 C 
BRANCH  19  20
HETATM   20  C5  UNL     1      21.420  -0.512  54.951  1.00  0.00     0.120 C 
HETATM   21 CL1  UNL     1      20.475  -1.840  54.204  1.00  0.00    -0.130 Cl
ENDBRANCH  19  20
ENDBRANCH   4  19
BRANCH   7  22
HETATM   22  C8  UNL     1      23.540   4.361  52.587  1.00  0.00     0.264 C 
HETATM   23  F1  UNL     1      22.514   5.127  52.073  1.00  0.00    -0.251 F 
ENDBRANCH   7  22
TORSDOF 3
ENDMDL
MODEL 6
REMARK VINA RESULT:      -6.2      8.603     10.870
REMARK  3 active torsions:
REMARK  status: ('A' for Active; 'I' for Inactive)
REMARK    1  A    between atoms: C3_4  and  C4_5 
REMARK    2  A    between atoms: C4_5  and  C5_6 
REMARK    3  A    between atoms: C7_10  and  C8_11 
ROOT
HETATM    1  C1  UNL     1      21.052   0.534  50.508  1.00  0.00     0.155 C 
HETATM    2  N1  UNL     1      22.264   1.203  50.843  1.00  0.00    -0.360 N 
HETATM    3  C2  UNL     1      22.891   0.476  51.954  1.00  0.00     0.115 C 
HETATM    4  C3  UNL     1      23.808   0.943  52.851  1.00  0.00     0.027 C 
HETATM    5  N2  UNL     1      24.396   2.294  53.011  1.00  0.00    -0.343 N 
HETATM    6  C6  UNL     1      24.414   3.363  52.010  1.00  0.00     0.137 C 
HETATM    7  C7  UNL     1      24.798   3.532  50.714  1.00  0.00     0.035 C 
HETATM    8  C9  UNL     1      23.431   3.641  50.185  1.00  0.00     0.158 A 
HETATM    9  N3  UNL     1      22.799   4.771  50.914  1.00  0.00    -0.360 N 
HETATM   10  C10 UNL     1      23.452   5.485  52.047  1.00  0.00     0.206 C 
HETATM   11  N4  UNL     1      23.687   4.420  52.760  1.00  0.00    -0.226 NA
HETATM   12  C11 UNL     1      23.331   4.107  48.766  1.00  0.00     0.133 A 
HETATM   13  F2  UNL     1      23.883   5.274  48.369  1.00  0.00    -0.207 F 
HETATM   14  C12 UNL     1      22.668   3.287  47.969  1.00  0.00     0.043 A 
HETATM   15  C13 UNL     1      22.278   2.185  48.840  1.00  0.00     0.031 A 
HETATM   16  C14 UNL     1      22.717   2.385  50.116  1.00  0.00     0.051 A 
HETATM   17  H9  UNL     1      24.836   2.641  53.843  1.00  0.00     0.167 HD
HETATM   18  H12 UNL     1      21.826   5.087  50.568  1.00  0.00     0.162 HD
ENDROOT
BRANCH   4  19
HETATM   19  C4  UNL     1      24.371   0.115  53.864  1.00  0.00     0.073 C 
BRANCH  19  20
HETATM   20  C5  UNL     1      25.878   0.098  53.931  1.00  0.00     0.120 C 
HETATM   21 CL1  UNL     1      26.435  -0.423  52.309  1.00  0.00    -0.130 Cl
ENDBRANCH  19  20
ENDBRANCH   4  19
BRANCH   7  22
HETATM   22  C8  UNL     1      25.883   3.652  49.707  1.00  0.00     0.264 C 
HETATM   23  F1  UNL     1      26.614   2.483  49.738  1.00  0.00    -0.251 F 
ENDBRANCH   7  22
TORSDOF 3
ENDMDL
MODEL 7
REMARK VINA RESULT:      -6.1      4.746      6.729
REMARK  3 active torsions:
REMARK  status: ('A' for Active; 'I' for Inactive)
REMARK    1  A    between atoms: C3_4  and  C4_5 
REMARK    2  A    between atoms: C4_5  and  C5_6 
REMARK    3  A    between atoms: C7_10  and  C8_11 
ROOT
HETATM    1  C1  UNL     1      31.782   7.133  49.364  1.00  0.00     0.155 C 
HETATM    2  N1  UNL     1      30.733   7.914  48.801  1.00  0.00    -0.360 N 
HETATM    3  C2  UNL     1      31.290   9.220  48.426  1.00  0.00     0.115 C 
HETATM    4  C3  UNL     1      30.621  10.395  48.241  1.00  0.00     0.027 C 
HETATM    5  N2  UNL     1      29.184  10.720  48.404  1.00  0.00    -0.343 N 
HETATM    6  C6  UNL     1      28.072   9.768  48.443  1.00  0.00     0.137 C 
HETATM    7  C7  UNL     1      27.583   8.747  47.685  1.00  0.00     0.035 C 
HETATM    8  C9  UNL     1      27.965   7.687  48.630  1.00  0.00     0.158 A 
HETATM    9  N3  UNL     1      27.302   8.026  49.915  1.00  0.00    -0.360 N 
HETATM   10  C10 UNL     1      26.550   9.292  50.143  1.00  0.00     0.206 C 
HETATM   11  N4  UNL     1      27.516  10.089  49.784  1.00  0.00    -0.226 NA
HETATM   12  C11 UNL     1      27.388   6.337  48.341  1.00  0.00     0.133 A 
HETATM   13  F2  UNL     1      26.054   6.152  48.232  1.00  0.00    -0.207 F 
HETATM   14  C12 UNL     1      28.287   5.376  48.211  1.00  0.00     0.043 A 
HETATM   15  C13 UNL     1      29.561   6.056  48.406  1.00  0.00     0.031 A 
HETATM   16  C14 UNL     1      29.380   7.387  48.646  1.00  0.00     0.051 A 
HETATM   17  H9  UNL     1      28.807  11.642  48.527  1.00  0.00     0.167 HD
HETATM   18  H12 UNL     1      27.363   7.287  50.701  1.00  0.00     0.162 HD
ENDROOT
BRANCH   4  19
HETATM   19  C4  UNL     1      31.281  11.590  47.836  1.00  0.00     0.073 C 
BRANCH  19  20
HETATM   20  C5  UNL     1      31.494  11.748  46.351  1.00  0.00     0.120 C 
HETATM   21 CL1  UNL     1      33.146  11.133  46.024  1.00  0.00    -0.130 Cl
ENDBRANCH  19  20
ENDBRANCH   4  19
BRANCH   7  22
HETATM   22  C8  UNL     1      26.893   8.285  46.453  1.00  0.00     0.264 C 
HETATM   23  F1  UNL     1      27.855   8.101  45.481  1.00  0.00    -0.251 F 
ENDBRANCH   7  22
TORSDOF 3
ENDMDL
MODEL 8
REMARK VINA RESULT:      -6.0      9.004     11.333
REMARK  3 active torsions:
REMARK  status: ('A' for Active; 'I' for Inactive)
REMARK    1  A    between atoms: C3_4  and  C4_5 
REMARK    2  A    between atoms: C4_5  and  C5_6 
REMARK    3  A    between atoms: C7_10  and  C8_11 
ROOT
HETATM    1  C1  UNL     1      26.636   2.357  51.074  1.00  0.00     0.155 C 
HETATM    2  N1  UNL     1      25.214   2.429  51.130  1.00  0.00    -0.360 N 
HETATM    3  C2  UNL     1      24.757   1.542  52.206  1.00  0.00     0.115 C 
HETATM    4  C3  UNL     1      23.522   0.982  52.364  1.00  0.00     0.027 C 
HETATM    5  N2  UNL     1      22.317   1.052  51.504  1.00  0.00    -0.343 N 
HETATM    6  C6  UNL     1      22.044   2.044  50.461  1.00  0.00     0.137 C 
HETATM    7  C7  UNL     1      22.006   3.400  50.336  1.00  0.00     0.035 C 
HETATM    8  C9  UNL     1      23.218   3.488  49.507  1.00  0.00     0.158 A 
HETATM    9  N3  UNL     1      22.962   2.636  48.317  1.00  0.00    -0.360 N 
HETATM   10  C10 UNL     1      21.752   1.780  48.164  1.00  0.00     0.206 C 
HETATM   11  N4  UNL     1      21.897   1.141  49.290  1.00  0.00    -0.226 NA
HETATM   12  C11 UNL     1      23.461   4.822  48.874  1.00  0.00     0.133 A 
HETATM   13  F2  UNL     1      22.533   5.405  48.084  1.00  0.00    -0.207 F 
HETATM   14  C12 UNL     1      24.639   5.352  49.157  1.00  0.00     0.043 A 
HETATM   15  C13 UNL     1      25.268   4.370  50.031  1.00  0.00     0.031 A 
HETATM   16  C14 UNL     1      24.452   3.297  50.236  1.00  0.00     0.051 A 
HETATM   17  H9  UNL     1      21.549   0.406  51.526  1.00  0.00     0.167 HD
HETATM   18  H12 UNL     1      23.696   2.678  47.525  1.00  0.00     0.162 HD
ENDROOT
BRANCH   4  19
HETATM   19  C4  UNL     1      23.195   0.165  53.484  1.00  0.00     0.073 C 
BRANCH  19  20
HETATM   20  C5  UNL     1      21.733   0.121  53.855  1.00  0.00     0.120 C 
HETATM   21 CL1  UNL     1      21.465  -1.488  54.600  1.00  0.00    -0.130 Cl
ENDBRANCH  19  20
ENDBRANCH   4  19
BRANCH   7  22
HETATM   22  C8  UNL     1      21.340   4.694  50.631  1.00  0.00     0.264 C 
HETATM   23  F1  UNL     1      21.888   5.190  51.795  1.00  0.00    -0.251 F 
ENDBRANCH   7  22
TORSDOF 3
ENDMDL
MODEL 9
REMARK VINA RESULT:      -5.8      3.026      4.847
REMARK  3 active torsions:
REMARK  status: ('A' for Active; 'I' for Inactive)
REMARK    1  A    between atoms: C3_4  and  C4_5 
REMARK    2  A    between atoms: C4_5  and  C5_6 
REMARK    3  A    between atoms: C7_10  and  C8_11 
ROOT
HETATM    1  C1  UNL     1      32.543   6.277  43.510  1.00  0.00     0.155 C 
HETATM    2  N1  UNL     1      32.503   6.128  44.926  1.00  0.00    -0.360 N 
HETATM    3  C2  UNL     1      33.136   4.847  45.266  1.00  0.00     0.115 C 
HETATM    4  C3  UNL     1      32.974   4.106  46.401  1.00  0.00     0.027 C 
HETATM    5  N2  UNL     1      32.103   4.329  47.580  1.00  0.00    -0.343 N 
HETATM    6  C6  UNL     1      31.480   5.593  47.979  1.00  0.00     0.137 C 
HETATM    7  C7  UNL     1      31.859   6.878  48.226  1.00  0.00     0.035 C 
HETATM    8  C9  UNL     1      31.225   7.436  47.023  1.00  0.00     0.158 A 
HETATM    9  N3  UNL     1      29.788   7.069  47.110  1.00  0.00    -0.360 N 
HETATM   10  C10 UNL     1      29.231   6.176  48.165  1.00  0.00     0.206 C 
HETATM   11  N4  UNL     1      30.050   5.187  47.951  1.00  0.00    -0.226 NA
HETATM   12  C11 UNL     1      31.150   8.930  46.976  1.00  0.00     0.133 A 
HETATM   13  F2  UNL     1      30.555   9.635  47.964  1.00  0.00    -0.207 F 
HETATM   14  C12 UNL     1      31.704   9.470  45.904  1.00  0.00     0.043 A 
HETATM   15  C13 UNL     1      32.204   8.327  45.151  1.00  0.00     0.031 A 
HETATM   16  C14 UNL     1      31.931   7.155  45.792  1.00  0.00     0.051 A 
HETATM   17  H9  UNL     1      31.822   3.624  48.236  1.00  0.00     0.167 HD
HETATM   18  H12 UNL     1      29.131   7.504  46.372  1.00  0.00     0.162 HD
ENDROOT
BRANCH   4  19
HETATM   19  C4  UNL     1      33.683   2.891  46.624  1.00  0.00     0.073 C 
BRANCH  19  20
HETATM   20  C5  UNL     1      33.119   1.993  47.697  1.00  0.00     0.120 C 
HETATM   21 CL1  UNL     1      32.236   0.693  46.835  1.00  0.00    -0.130 Cl
ENDBRANCH  19  20
ENDBRANCH   4  19
BRANCH   7  22
HETATM   22  C8  UNL     1      32.554   7.862  49.095  1.00  0.00     0.264 C 
HETATM   23  F1  UNL     1      31.767   8.062  50.210  1.00  0.00    -0.251 F 
ENDBRANCH   7  22
TORSDOF 3
ENDMDL
