MODEL 1
REMARK VINA RESULT:      -7.4      0.000      0.000
REMARK  8 active torsions:
REMARK  status: ('A' for Active; 'I' for Inactive)
REMARK    1  A    between atoms: O1_2  and  C2_3 
REMARK    2  A    between atoms: C2_3  and  C3_4 
REMARK    3  A    between atoms: C5_6  and  O2_7 
REMARK    4  A    between atoms: O2_7  and  C6_8 
REMARK    5  A    between atoms: C6_8  and  C7_9 
REMARK    6  A    between atoms: C9_11  and  O3_12 
REMARK    7  A    between atoms: C11_14  and  O4_15 
REMARK    8  A    between atoms: C18_24  and  O5_25 
ROOT
HETATM    1  C3  UNL     1      20.334   0.623  52.152  1.00  0.00    -0.007 A 
HETATM    2  C4  UNL     1      21.134   0.027  53.009  1.00  0.00     0.053 A 
HETATM    3  C5  UNL     1      22.492   0.158  53.226  1.00  0.00     0.178 A 
HETATM    4  N1  UNL     1      23.141  -0.552  54.167  1.00  0.00    -0.217 NA
HETATM    5  C15 UNL     1      22.462  -1.426  54.933  1.00  0.00     0.236 A 
HETATM    6  N2  UNL     1      21.123  -1.579  54.744  1.00  0.00    -0.241 NA
HETATM    7  C16 UNL     1      20.462  -0.875  53.807  1.00  0.00     0.072 A 
HETATM    8  C17 UNL     1      19.167  -0.875  53.466  1.00  0.00     0.042 A 
HETATM    9  C18 UNL     1      18.981   0.098  52.362  1.00  0.00     0.178 A 
ENDROOT
BRANCH   3  10
HETATM   10  O2  UNL     1      23.212   1.037  52.465  1.00  0.00    -0.329 OA
BRANCH  10  11
HETATM   11  C6  UNL     1      24.156   1.948  53.039  1.00  0.00     0.213 C 
BRANCH  11  12
HETATM   12  C7  UNL     1      25.548   1.456  52.906  1.00  0.00    -0.038 C 
HETATM   13  C8  UNL     1      26.444   1.654  53.825  1.00  0.00     0.018 C 
HETATM   14  C9  UNL     1      27.446   0.836  54.039  1.00  0.00     0.112 C 
HETATM   15  C11 UNL     1      27.533  -0.421  53.265  1.00  0.00     0.099 C 
HETATM   16  C13 UNL     1      26.827  -0.480  52.126  1.00  0.00     0.017 C 
HETATM   17  C14 UNL     1      26.004   0.708  51.709  1.00  0.00     0.067 C 
BRANCH  14  18
HETATM   18  O3  UNL     1      28.357   1.249  55.007  1.00  0.00    -0.352 OA
HETATM   19  C10 UNL     1      29.524   2.000  54.639  1.00  0.00     0.210 C 
ENDBRANCH  14  18
BRANCH  15  20
HETATM   20  O4  UNL     1      28.334  -1.393  53.804  1.00  0.00    -0.353 OA
HETATM   21  C12 UNL     1      29.671  -1.649  53.478  1.00  0.00     0.210 C 
ENDBRANCH  15  20
ENDBRANCH  11  12
ENDBRANCH  10  11
ENDBRANCH   3  10
BRANCH   1  22
HETATM   22  C2  UNL     1      20.599   1.646  51.115  1.00  0.00     0.205 C 
BRANCH  22  23
HETATM   23  O1  UNL     1      21.089   0.951  50.001  1.00  0.00    -0.392 OA
HETATM   24  C1  UNL     1      21.799   1.797  49.154  1.00  0.00     0.201 C 
ENDBRANCH  22  23
ENDBRANCH   1  22
BRANCH   9  25
HETATM   25  O5  UNL     1      18.351  -0.413  51.260  1.00  0.00    -0.382 OA
HETATM   26  C19 UNL     1      16.993  -0.642  51.557  1.00  0.00     0.202 C 
ENDBRANCH   9  25
TORSDOF 8
ENDMDL
MODEL 2
REMARK VINA RESULT:      -7.2      3.390      5.929
REMARK  8 active torsions:
REMARK  status: ('A' for Active; 'I' for Inactive)
REMARK    1  A    between atoms: O1_2  and  C2_3 
REMARK    2  A    between atoms: C2_3  and  C3_4 
REMARK    3  A    between atoms: C5_6  and  O2_7 
REMARK    4  A    between atoms: O2_7  and  C6_8 
REMARK    5  A    between atoms: C6_8  and  C7_9 
REMARK    6  A    between atoms: C9_11  and  O3_12 
REMARK    7  A    between atoms: C11_14  and  O4_15 
REMARK    8  A    between atoms: C18_24  and  O5_25 
ROOT
HETATM    1  C3  UNL     1      23.687   0.316  52.974  1.00  0.00    -0.007 A 
HETATM    2  C4  UNL     1      24.982   0.292  53.205  1.00  0.00     0.053 A 
HETATM    3  C5  UNL     1      26.032   0.908  52.554  1.00  0.00     0.178 A 
HETATM    4  N1  UNL     1      27.309   0.759  52.948  1.00  0.00    -0.217 NA
HETATM    5  C15 UNL     1      27.595  -0.015  54.012  1.00  0.00     0.236 A 
HETATM    6  N2  UNL     1      26.583  -0.637  54.676  1.00  0.00    -0.241 NA
HETATM    7  C16 UNL     1      25.301  -0.496  54.292  1.00  0.00     0.072 A 
HETATM    8  C17 UNL     1      24.175  -1.011  54.799  1.00  0.00     0.042 A 
HETATM    9  C18 UNL     1      23.036  -0.526  53.983  1.00  0.00     0.178 A 
ENDROOT
BRANCH   3  10
HETATM   10  O2  UNL     1      25.777   1.701  51.469  1.00  0.00    -0.329 OA
BRANCH  10  11
HETATM   11  C6  UNL     1      26.745   2.621  50.951  1.00  0.00     0.213 C 
BRANCH  11  12
HETATM   12  C7  UNL     1      26.183   3.464  49.870  1.00  0.00    -0.038 C 
HETATM   13  C8  UNL     1      24.922   3.443  49.560  1.00  0.00     0.018 C 
HETATM   14  C9  UNL     1      24.289   4.477  49.060  1.00  0.00     0.112 C 
HETATM   15  C11 UNL     1      25.003   5.763  48.912  1.00  0.00     0.099 C 
HETATM   16  C13 UNL     1      26.344   5.714  48.919  1.00  0.00     0.017 C 
HETATM   17  C14 UNL     1      27.030   4.385  49.073  1.00  0.00     0.067 C 
BRANCH  14  18
HETATM   18  O3  UNL     1      22.961   4.249  48.706  1.00  0.00    -0.352 OA
HETATM   19  C10 UNL     1      22.459   2.911  48.578  1.00  0.00     0.210 C 
ENDBRANCH  14  18
BRANCH  15  20
HETATM   20  O4  UNL     1      24.208   6.870  48.784  1.00  0.00    -0.353 OA
HETATM   21  C12 UNL     1      23.667   7.636  49.824  1.00  0.00     0.210 C 
ENDBRANCH  15  20
ENDBRANCH  11  12
ENDBRANCH  10  11
ENDBRANCH   3  10
BRANCH   1  22
HETATM   22  C2  UNL     1      22.892   1.011  51.936  1.00  0.00     0.205 C 
BRANCH  22  23
HETATM   23  O1  UNL     1      22.152   1.994  52.607  1.00  0.00    -0.392 OA
HETATM   24  C1  UNL     1      22.635   3.267  52.322  1.00  0.00     0.201 C 
ENDBRANCH  22  23
ENDBRANCH   1  22
BRANCH   9  25
HETATM   25  O5  UNL     1      22.218  -1.516  53.510  1.00  0.00    -0.382 OA
HETATM   26  C19 UNL     1      20.962  -1.433  54.145  1.00  0.00     0.202 C 
ENDBRANCH   9  25
TORSDOF 8
ENDMDL
MODEL 3
REMARK VINA RESULT:      -7.1      4.546      6.690
REMARK  8 active torsions:
REMARK  status: ('A' for Active; 'I' for Inactive)
REMARK    1  A    between atoms: O1_2  and  C2_3 
REMARK    2  A    between atoms: C2_3  and  C3_4 
REMARK    3  A    between atoms: C5_6  and  O2_7 
REMARK    4  A    between atoms: O2_7  and  C6_8 
REMARK    5  A    between atoms: C6_8  and  C7_9 
REMARK    6  A    between atoms: C9_11  and  O3_12 
REMARK    7  A    between atoms: C11_14  and  O4_15 
REMARK    8  A    between atoms: C18_24  and  O5_25 
ROOT
HETATM    1  C3  UNL     1      24.298   5.127  49.618  1.00  0.00    -0.007 A 
HETATM    2  C4  UNL     1      25.567   5.098  49.272  1.00  0.00     0.053 A 
HETATM    3  C5  UNL     1      26.531   4.124  49.441  1.00  0.00     0.178 A 
HETATM    4  N1  UNL     1      27.796   4.283  49.010  1.00  0.00    -0.217 NA
HETATM    5  C15 UNL     1      28.154   5.424  48.392  1.00  0.00     0.236 A 
HETATM    6  N2  UNL     1      27.227   6.404  48.211  1.00  0.00    -0.241 NA
HETATM    7  C16 UNL     1      25.959   6.258  48.637  1.00  0.00     0.072 A 
HETATM    8  C17 UNL     1      24.910   7.085  48.559  1.00  0.00     0.042 A 
HETATM    9  C18 UNL     1      23.746   6.417  49.191  1.00  0.00     0.178 A 
ENDROOT
BRANCH   3  10
HETATM   10  O2  UNL     1      26.201   2.952  50.064  1.00  0.00    -0.329 OA
BRANCH  10  11
HETATM   11  C6  UNL     1      26.729   2.595  51.346  1.00  0.00     0.213 C 
BRANCH  11  12
HETATM   12  C7  UNL     1      26.180   1.306  51.830  1.00  0.00    -0.038 C 
HETATM   13  C8  UNL     1      26.942   0.312  52.172  1.00  0.00     0.018 C 
HETATM   14  C9  UNL     1      26.602  -0.576  53.074  1.00  0.00     0.112 C 
HETATM   15  C11 UNL     1      25.332  -0.412  53.811  1.00  0.00     0.099 C 
HETATM   16  C13 UNL     1      24.413   0.396  53.259  1.00  0.00     0.017 C 
HETATM   17  C14 UNL     1      24.720   1.073  51.952  1.00  0.00     0.067 C 
BRANCH  14  18
HETATM   18  O3  UNL     1      27.505  -1.621  53.252  1.00  0.00    -0.352 OA
HETATM   19  C10 UNL     1      28.917  -1.366  53.307  1.00  0.00     0.210 C 
ENDBRANCH  14  18
BRANCH  15  20
HETATM   20  O4  UNL     1      25.234  -1.108  54.986  1.00  0.00    -0.353 OA
HETATM   21  C12 UNL     1      24.074  -1.312  55.743  1.00  0.00     0.210 C 
ENDBRANCH  15  20
ENDBRANCH  11  12
ENDBRANCH  10  11
ENDBRANCH   3  10
BRANCH   1  22
HETATM   22  C2  UNL     1      23.450   4.129  50.309  1.00  0.00     0.205 C 
BRANCH  22  23
HETATM   23  O1  UNL     1      23.587   4.387  51.680  1.00  0.00    -0.392 OA
HETATM   24  C1  UNL     1      22.359   4.307  52.331  1.00  0.00     0.201 C 
ENDBRANCH  22  23
ENDBRANCH   1  22
BRANCH   9  25
HETATM   25  O5  UNL     1      23.125   7.160  50.157  1.00  0.00    -0.382 OA
HETATM   26  C19 UNL     1      22.663   8.368  49.597  1.00  0.00     0.202 C 
ENDBRANCH   9  25
TORSDOF 8
ENDMDL
MODEL 4
REMARK VINA RESULT:      -7.1      2.278      3.595
REMARK  8 active torsions:
REMARK  status: ('A' for Active; 'I' for Inactive)
REMARK    1  A    between atoms: O1_2  and  C2_3 
REMARK    2  A    between atoms: C2_3  and  C3_4 
REMARK    3  A    between atoms: C5_6  and  O2_7 
REMARK    4  A    between atoms: O2_7  and  C6_8 
REMARK    5  A    between atoms: C6_8  and  C7_9 
REMARK    6  A    between atoms: C9_11  and  O3_12 
REMARK    7  A    between atoms: C11_14  and  O4_15 
REMARK    8  A    between atoms: C18_24  and  O5_25 
ROOT
HETATM    1  C3  UNL     1      21.721   0.669  51.844  1.00  0.00    -0.007 A 
HETATM    2  C4  UNL     1      22.285   1.449  50.947  1.00  0.00     0.053 A 
HETATM    3  C5  UNL     1      23.545   2.011  50.897  1.00  0.00     0.178 A 
HETATM    4  N1  UNL     1      23.942   2.794  49.878  1.00  0.00    -0.217 NA
HETATM    5  C15 UNL     1      23.097   3.051  48.863  1.00  0.00     0.236 A 
HETATM    6  N2  UNL     1      21.847   2.513  48.882  1.00  0.00    -0.241 NA
HETATM    7  C16 UNL     1      21.437   1.728  49.895  1.00  0.00     0.072 A 
HETATM    8  C17 UNL     1      20.269   1.109  50.104  1.00  0.00     0.042 A 
HETATM    9  C18 UNL     1      20.359   0.372  51.388  1.00  0.00     0.178 A 
ENDROOT
BRANCH   3  10
HETATM   10  O2  UNL     1      24.429   1.770  51.912  1.00  0.00    -0.329 OA
BRANCH  10  11
HETATM   11  C6  UNL     1      25.595   2.577  52.117  1.00  0.00     0.213 C 
BRANCH  11  12
HETATM   12  C7  UNL     1      26.497   1.994  53.138  1.00  0.00    -0.038 C 
HETATM   13  C8  UNL     1      26.090   1.113  54.000  1.00  0.00     0.018 C 
HETATM   14  C9  UNL     1      26.875   0.197  54.516  1.00  0.00     0.112 C 
HETATM   15  C11 UNL     1      28.272   0.091  54.045  1.00  0.00     0.099 C 
HETATM   16  C13 UNL     1      28.783   1.163  53.420  1.00  0.00     0.017 C 
HETATM   17  C14 UNL     1      27.925   2.385  53.237  1.00  0.00     0.067 C 
BRANCH  14  18
HETATM   18  O3  UNL     1      26.291  -0.609  55.489  1.00  0.00    -0.352 OA
HETATM   19  C10 UNL     1      24.930  -1.045  55.357  1.00  0.00     0.210 C 
ENDBRANCH  14  18
BRANCH  15  20
HETATM   20  O4  UNL     1      28.895  -1.101  54.303  1.00  0.00    -0.353 OA
HETATM   21  C12 UNL     1      29.349  -2.028  53.357  1.00  0.00     0.210 C 
ENDBRANCH  15  20
ENDBRANCH  11  12
ENDBRANCH  10  11
ENDBRANCH   3  10
BRANCH   1  22
HETATM   22  C2  UNL     1      22.233   0.115  53.119  1.00  0.00     0.205 C 
BRANCH  22  23
HETATM   23  O1  UNL     1      21.900  -1.246  53.111  1.00  0.00    -0.392 OA
HETATM   24  C1  UNL     1      21.362  -1.638  54.334  1.00  0.00     0.201 C 
ENDBRANCH  22  23
ENDBRANCH   1  22
BRANCH   9  25
HETATM   25  O5  UNL     1      19.351   0.649  52.270  1.00  0.00    -0.382 OA
HETATM   26  C19 UNL     1      18.336  -0.322  52.144  1.00  0.00     0.202 C 
ENDBRANCH   9  25
TORSDOF 8
ENDMDL
MODEL 5
REMARK VINA RESULT:      -6.8      2.810      5.942
REMARK  8 active torsions:
REMARK  status: ('A' for Active; 'I' for Inactive)
REMARK    1  A    between atoms: O1_2  and  C2_3 
REMARK    2  A    between atoms: C2_3  and  C3_4 
REMARK    3  A    between atoms: C5_6  and  O2_7 
REMARK    4  A    between atoms: O2_7  and  C6_8 
REMARK    5  A    between atoms: C6_8  and  C7_9 
REMARK    6  A    between atoms: C9_11  and  O3_12 
REMARK    7  A    between atoms: C11_14  and  O4_15 
REMARK    8  A    between atoms: C18_24  and  O5_25 
ROOT
HETATM    1  C3  UNL     1      24.564   0.764  53.551  1.00  0.00    -0.007 A 
HETATM    2  C4  UNL     1      23.397   0.220  53.824  1.00  0.00     0.053 A 
HETATM    3  C5  UNL     1      22.117   0.583  53.454  1.00  0.00     0.178 A 
HETATM    4  N1  UNL     1      21.033  -0.114  53.841  1.00  0.00    -0.217 NA
HETATM    5  C15 UNL     1      21.180  -1.205  54.615  1.00  0.00     0.236 A 
HETATM    6  N2  UNL     1      22.428  -1.589  54.997  1.00  0.00    -0.241 NA
HETATM    7  C16 UNL     1      23.521  -0.901  54.618  1.00  0.00     0.072 A 
HETATM    8  C17 UNL     1      24.818  -1.107  54.879  1.00  0.00     0.042 A 
HETATM    9  C18 UNL     1      25.599  -0.041  54.207  1.00  0.00     0.178 A 
ENDROOT
BRANCH   3  10
HETATM   10  O2  UNL     1      21.933   1.686  52.668  1.00  0.00    -0.329 OA
BRANCH  10  11
HETATM   11  C6  UNL     1      21.725   1.589  51.254  1.00  0.00     0.213 C 
BRANCH  11  12
HETATM   12  C7  UNL     1      22.298   2.749  50.531  1.00  0.00    -0.038 C 
HETATM   13  C8  UNL     1      22.309   3.945  51.037  1.00  0.00     0.018 C 
HETATM   14  C9  UNL     1      23.226   4.837  50.749  1.00  0.00     0.112 C 
HETATM   15  C11 UNL     1      24.356   4.460  49.876  1.00  0.00     0.099 C 
HETATM   16  C13 UNL     1      24.191   3.371  49.109  1.00  0.00     0.017 C 
HETATM   17  C14 UNL     1      22.894   2.613  49.179  1.00  0.00     0.067 C 
BRANCH  14  18
HETATM   18  O3  UNL     1      23.032   6.094  51.317  1.00  0.00    -0.352 OA
HETATM   19  C10 UNL     1      22.418   7.150  50.563  1.00  0.00     0.210 C 
ENDBRANCH  14  18
BRANCH  15  20
HETATM   20  O4  UNL     1      25.457   5.271  49.948  1.00  0.00    -0.353 OA
HETATM   21  C12 UNL     1      26.506   5.341  49.024  1.00  0.00     0.210 C 
ENDBRANCH  15  20
ENDBRANCH  11  12
ENDBRANCH  10  11
ENDBRANCH   3  10
BRANCH   1  22
HETATM   22  C2  UNL     1      24.922   1.958  52.751  1.00  0.00     0.205 C 
BRANCH  22  23
HETATM   23  O1  UNL     1      25.762   1.500  51.726  1.00  0.00    -0.392 OA
HETATM   24  C1  UNL     1      26.881   2.317  51.593  1.00  0.00     0.201 C 
ENDBRANCH  22  23
ENDBRANCH   1  22
BRANCH   9  25
HETATM   25  O5  UNL     1      26.459   0.633  55.030  1.00  0.00    -0.382 OA
HETATM   26  C19 UNL     1      27.785   0.265  54.729  1.00  0.00     0.202 C 
ENDBRANCH   9  25
TORSDOF 8
ENDMDL
MODEL 6
REMARK VINA RESULT:      -6.6      4.856      6.418
REMARK  8 active torsions:
REMARK  status: ('A' for Active; 'I' for Inactive)
REMARK    1  A    between atoms: O1_2  and  C2_3 
REMARK    2  A    between atoms: C2_3  and  C3_4 
REMARK    3  A    between atoms: C5_6  and  O2_7 
REMARK    4  A    between atoms: O2_7  and  C6_8 
REMARK    5  A    between atoms: C6_8  and  C7_9 
REMARK    6  A    between atoms: C9_11  and  O3_12 
REMARK    7  A    between atoms: C11_14  and  O4_15 
REMARK    8  A    between atoms: C18_24  and  O5_25 
ROOT
HETATM    1  C3  UNL     1      23.547   1.245  52.177  1.00  0.00    -0.007 A 
HETATM    2  C4  UNL     1      24.857   1.361  52.191  1.00  0.00     0.053 A 
HETATM    3  C5  UNL     1      25.706   2.154  51.444  1.00  0.00     0.178 A 
HETATM    4  N1  UNL     1      27.041   2.130  51.609  1.00  0.00    -0.217 NA
HETATM    5  C15 UNL     1      27.588   1.312  52.527  1.00  0.00     0.236 A 
HETATM    6  N2  UNL     1      26.778   0.517  53.279  1.00  0.00    -0.241 NA
HETATM    7  C16 UNL     1      25.442   0.531  53.125  1.00  0.00     0.072 A 
HETATM    8  C17 UNL     1      24.482  -0.159  53.753  1.00  0.00     0.042 A 
HETATM    9  C18 UNL     1      23.174   0.249  53.187  1.00  0.00     0.178 A 
ENDROOT
BRANCH   3  10
HETATM   10  O2  UNL     1      25.184   2.997  50.503  1.00  0.00    -0.329 OA
BRANCH  10  11
HETATM   11  C6  UNL     1      25.265   4.422  50.625  1.00  0.00     0.213 C 
BRANCH  11  12
HETATM   12  C7  UNL     1      25.933   5.039  49.455  1.00  0.00    -0.038 C 
HETATM   13  C8  UNL     1      25.521   6.152  48.930  1.00  0.00     0.018 C 
HETATM   14  C9  UNL     1      26.318   6.996  48.318  1.00  0.00     0.112 C 
HETATM   15  C11 UNL     1      27.771   6.727  48.286  1.00  0.00     0.099 C 
HETATM   16  C13 UNL     1      28.158   5.466  48.528  1.00  0.00     0.017 C 
HETATM   17  C14 UNL     1      27.116   4.418  48.810  1.00  0.00     0.067 C 
BRANCH  14  18
HETATM   18  O3  UNL     1      25.690   8.096  47.740  1.00  0.00    -0.352 OA
HETATM   19  C10 UNL     1      25.141   8.013  46.416  1.00  0.00     0.210 C 
ENDBRANCH  14  18
BRANCH  15  20
HETATM   20  O4  UNL     1      28.566   7.808  48.011  1.00  0.00    -0.353 OA
HETATM   21  C12 UNL     1      29.212   8.629  48.944  1.00  0.00     0.210 C 
ENDBRANCH  15  20
ENDBRANCH  11  12
ENDBRANCH  10  11
ENDBRANCH   3  10
BRANCH   1  22
HETATM   22  C2  UNL     1      22.514   1.921  51.359  1.00  0.00     0.205 C 
BRANCH  22  23
HETATM   23  O1  UNL     1      22.344   1.128  50.216  1.00  0.00    -0.392 OA
HETATM   24  C1  UNL     1      22.255   1.912  49.070  1.00  0.00     0.201 C 
ENDBRANCH  22  23
ENDBRANCH   1  22
BRANCH   9  25
HETATM   25  O5  UNL     1      22.397  -0.791  52.753  1.00  0.00    -0.382 OA
HETATM   26  C19 UNL     1      21.910  -1.509  53.864  1.00  0.00     0.202 C 
ENDBRANCH   9  25
TORSDOF 8
ENDMDL
MODEL 7
REMARK VINA RESULT:      -6.5      2.778      7.327
REMARK  8 active torsions:
REMARK  status: ('A' for Active; 'I' for Inactive)
REMARK    1  A    between atoms: O1_2  and  C2_3 
REMARK    2  A    between atoms: C2_3  and  C3_4 
REMARK    3  A    between atoms: C5_6  and  O2_7 
REMARK    4  A    between atoms: O2_7  and  C6_8 
REMARK    5  A    between atoms: C6_8  and  C7_9 
REMARK    6  A    between atoms: C9_11  and  O3_12 
REMARK    7  A    between atoms: C11_14  and  O4_15 
REMARK    8  A    between atoms: C18_24  and  O5_25 
ROOT
HETATM    1  C3  UNL     1      24.417   3.199  50.427  1.00  0.00    -0.007 A 
HETATM    2  C4  UNL     1      25.170   2.721  51.394  1.00  0.00     0.053 A 
HETATM    3  C5  UNL     1      24.837   2.153  52.608  1.00  0.00     0.178 A 
HETATM    4  N1  UNL     1      25.767   1.717  53.476  1.00  0.00    -0.217 NA
HETATM    5  C15 UNL     1      27.073   1.830  53.171  1.00  0.00     0.236 A 
HETATM    6  N2  UNL     1      27.434   2.386  51.983  1.00  0.00    -0.241 NA
HETATM    7  C16 UNL     1      26.515   2.826  51.105  1.00  0.00     0.072 A 
HETATM    8  C17 UNL     1      26.656   3.394  49.902  1.00  0.00     0.042 A 
HETATM    9  C18 UNL     1      25.304   3.683  49.364  1.00  0.00     0.178 A 
ENDROOT
BRANCH   3  10
HETATM   10  O2  UNL     1      23.519   2.022  52.949  1.00  0.00    -0.329 OA
BRANCH  10  11
HETATM   11  C6  UNL     1      22.892   0.743  53.097  1.00  0.00     0.213 C 
BRANCH  11  12
HETATM   12  C7  UNL     1      21.417   0.857  53.185  1.00  0.00    -0.038 C 
HETATM   13  C8  UNL     1      20.786   1.943  52.854  1.00  0.00     0.018 C 
HETATM   14  C9  UNL     1      19.559   1.946  52.390  1.00  0.00     0.112 C 
HETATM   15  C11 UNL     1      18.874   0.660  52.143  1.00  0.00     0.099 C 
HETATM   16  C13 UNL     1      19.371  -0.419  52.765  1.00  0.00     0.017 C 
HETATM   17  C14 UNL     1      20.571  -0.265  53.659  1.00  0.00     0.067 C 
BRANCH  14  18
HETATM   18  O3  UNL     1      19.009   3.206  52.169  1.00  0.00    -0.352 OA
HETATM   19  C10 UNL     1      19.443   4.009  51.061  1.00  0.00     0.210 C 
ENDBRANCH  14  18
BRANCH  15  20
HETATM   20  O4  UNL     1      17.797   0.716  51.298  1.00  0.00    -0.353 OA
HETATM   21  C12 UNL     1      17.835   0.763  49.899  1.00  0.00     0.210 C 
ENDBRANCH  15  20
ENDBRANCH  11  12
ENDBRANCH  10  11
ENDBRANCH   3  10
BRANCH   1  22
HETATM   22  C2  UNL     1      22.945   3.298  50.292  1.00  0.00     0.205 C 
BRANCH  22  23
HETATM   23  O1  UNL     1      22.612   2.573  49.140  1.00  0.00    -0.392 OA
HETATM   24  C1  UNL     1      21.915   1.412  49.463  1.00  0.00     0.201 C 
ENDBRANCH  22  23
ENDBRANCH   1  22
BRANCH   9  25
HETATM   25  O5  UNL     1      25.120   4.978  48.965  1.00  0.00    -0.382 OA
HETATM   26  C19 UNL     1      26.366   5.635  48.909  1.00  0.00     0.202 C 
ENDBRANCH   9  25
TORSDOF 8
ENDMDL
MODEL 8
REMARK VINA RESULT:      -6.5      3.608      5.149
REMARK  8 active torsions:
REMARK  status: ('A' for Active; 'I' for Inactive)
REMARK    1  A    between atoms: O1_2  and  C2_3 
REMARK    2  A    between atoms: C2_3  and  C3_4 
REMARK    3  A    between atoms: C5_6  and  O2_7 
REMARK    4  A    between atoms: O2_7  and  C6_8 
REMARK    5  A    between atoms: C6_8  and  C7_9 
REMARK    6  A    between atoms: C9_11  and  O3_12 
REMARK    7  A    between atoms: C11_14  and  O4_15 
REMARK    8  A    between atoms: C18_24  and  O5_25 
ROOT
HETATM    1  C3  UNL     1      21.628   1.202  52.545  1.00  0.00    -0.007 A 
HETATM    2  C4  UNL     1      22.768   0.686  52.954  1.00  0.00     0.053 A 
HETATM    3  C5  UNL     1      24.068   0.929  52.557  1.00  0.00     0.178 A 
HETATM    4  N1  UNL     1      25.117   0.290  53.105  1.00  0.00    -0.217 NA
HETATM    5  C15 UNL     1      24.914  -0.621  54.074  1.00  0.00     0.236 A 
HETATM    6  N2  UNL     1      23.644  -0.884  54.487  1.00  0.00    -0.241 NA
HETATM    7  C16 UNL     1      22.586  -0.252  53.948  1.00  0.00     0.072 A 
HETATM    8  C17 UNL     1      21.277  -0.361  54.207  1.00  0.00     0.042 A 
HETATM    9  C18 UNL     1      20.550   0.574  53.316  1.00  0.00     0.178 A 
ENDROOT
BRANCH   3  10
HETATM   10  O2  UNL     1      24.309   1.850  51.574  1.00  0.00    -0.329 OA
BRANCH  10  11
HETATM   11  C6  UNL     1      25.580   2.493  51.428  1.00  0.00     0.213 C 
BRANCH  11  12
HETATM   12  C7  UNL     1      25.620   3.372  50.235  1.00  0.00    -0.038 C 
HETATM   13  C8  UNL     1      24.656   4.194  49.948  1.00  0.00     0.018 C 
HETATM   14  C9  UNL     1      24.842   5.319  49.301  1.00  0.00     0.112 C 
HETATM   15  C11 UNL     1      26.215   5.734  48.945  1.00  0.00     0.099 C 
HETATM   16  C13 UNL     1      27.154   4.775  48.943  1.00  0.00     0.017 C 
HETATM   17  C14 UNL     1      26.766   3.365  49.294  1.00  0.00     0.067 C 
BRANCH  14  18
HETATM   18  O3  UNL     1      23.684   6.034  49.004  1.00  0.00    -0.352 OA
HETATM   19  C10 UNL     1      23.067   5.923  47.713  1.00  0.00     0.210 C 
ENDBRANCH  14  18
BRANCH  15  20
HETATM   20  O4  UNL     1      26.377   7.062  48.656  1.00  0.00    -0.353 OA
HETATM   21  C12 UNL     1      26.696   8.082  49.561  1.00  0.00     0.210 C 
ENDBRANCH  15  20
ENDBRANCH  11  12
ENDBRANCH  10  11
ENDBRANCH   3  10
BRANCH   1  22
HETATM   22  C2  UNL     1      21.330   2.225  51.516  1.00  0.00     0.205 C 
BRANCH  22  23
HETATM   23  O1  UNL     1      20.878   3.354  52.211  1.00  0.00    -0.392 OA
HETATM   24  C1  UNL     1      21.836   4.364  52.205  1.00  0.00     0.201 C 
ENDBRANCH  22  23
ENDBRANCH   1  22
BRANCH   9  25
HETATM   25  O5  UNL     1      19.544  -0.004  52.591  1.00  0.00    -0.382 OA
HETATM   26  C19 UNL     1      18.913  -0.995  53.369  1.00  0.00     0.202 C 
ENDBRANCH   9  25
TORSDOF 8
ENDMDL
MODEL 9
REMARK VINA RESULT:      -6.3      2.560      7.409
REMARK  8 active torsions:
REMARK  status: ('A' for Active; 'I' for Inactive)
REMARK    1  A    between atoms: O1_2  and  C2_3 
REMARK    2  A    between atoms: C2_3  and  C3_4 
REMARK    3  A    between atoms: C5_6  and  O2_7 
REMARK    4  A    between atoms: O2_7  and  C6_8 
REMARK    5  A    between atoms: C6_8  and  C7_9 
REMARK    6  A    between atoms: C9_11  and  O3_12 
REMARK    7  A    between atoms: C11_14  and  O4_15 
REMARK    8  A    between atoms: C18_24  and  O5_25 
ROOT
HETATM    1  C3  UNL     1      24.323   3.156  51.101  1.00  0.00    -0.007 A 
HETATM    2  C4  UNL     1      24.870   2.181  51.794  1.00  0.00     0.053 A 
HETATM    3  C5  UNL     1      24.346   1.360  52.773  1.00  0.00     0.178 A 
HETATM    4  N1  UNL     1      25.077   0.403  53.375  1.00  0.00    -0.217 NA
HETATM    5  C15 UNL     1      26.364   0.225  53.025  1.00  0.00     0.236 A 
HETATM    6  N2  UNL     1      26.910   1.019  52.064  1.00  0.00    -0.241 NA
HETATM    7  C16 UNL     1      26.191   1.979  51.454  1.00  0.00     0.072 A 
HETATM    8  C17 UNL     1      26.531   2.853  50.499  1.00  0.00     0.042 A 
HETATM    9  C18 UNL     1      25.345   3.689  50.193  1.00  0.00     0.178 A 
ENDROOT
BRANCH   3  10
HETATM   10  O2  UNL     1      23.041   1.513  53.152  1.00  0.00    -0.329 OA
BRANCH  10  11
HETATM   11  C6  UNL     1      22.233   0.408  53.572  1.00  0.00     0.213 C 
BRANCH  11  12
HETATM   12  C7  UNL     1      21.168   0.097  52.589  1.00  0.00    -0.038 C 
HETATM   13  C8  UNL     1      20.009  -0.364  52.946  1.00  0.00     0.018 C 
HETATM   14  C9  UNL     1      18.908  -0.140  52.269  1.00  0.00     0.112 C 
HETATM   15  C11 UNL     1      18.951   0.744  51.086  1.00  0.00     0.099 C 
HETATM   16  C13 UNL     1      20.155   0.955  50.532  1.00  0.00     0.017 C 
HETATM   17  C14 UNL     1      21.366   0.293  51.132  1.00  0.00     0.067 C 
BRANCH  14  18
HETATM   18  O3  UNL     1      17.770  -0.783  52.751  1.00  0.00    -0.352 OA
HETATM   19  C10 UNL     1      17.882  -2.011  53.486  1.00  0.00     0.210 C 
ENDBRANCH  14  18
BRANCH  15  20
HETATM   20  O4  UNL     1      17.746   1.255  50.684  1.00  0.00    -0.353 OA
HETATM   21  C12 UNL     1      16.844   0.664  49.791  1.00  0.00     0.210 C 
ENDBRANCH  15  20
ENDBRANCH  11  12
ENDBRANCH  10  11
ENDBRANCH   3  10
BRANCH   1  22
HETATM   22  C2  UNL     1      22.955   3.722  51.119  1.00  0.00     0.205 C 
BRANCH  22  23
HETATM   23  O1  UNL     1      22.461   3.586  49.815  1.00  0.00    -0.392 OA
HETATM   24  C1  UNL     1      21.878   4.770  49.373  1.00  0.00     0.201 C 
ENDBRANCH  22  23
ENDBRANCH   1  22
BRANCH   9  25
HETATM   25  O5  UNL     1      25.571   5.036  50.260  1.00  0.00    -0.382 OA
HETATM   26  C19 UNL     1      25.867   5.528  48.973  1.00  0.00     0.202 C 
ENDBRANCH   9  25
TORSDOF 8
ENDMDL
