MODEL 1
REMARK VINA RESULT:      -7.2      0.000      0.000
REMARK  8 active torsions:
REMARK  status: ('A' for Active; 'I' for Inactive)
REMARK    1  A    between atoms: N1_1  and  C1_2 
REMARK    2  A    between atoms: C1_2  and  C2_3 
REMARK    3  A    between atoms: C2_3  and  C3_4 
REMARK    4  A    between atoms: C3_4  and  C4_5 
REMARK    5  A    between atoms: C4_5  and  N2_6 
REMARK    6  A    between atoms: N2_6  and  C5_7 
REMARK    7  A    between atoms: C9_14  and  C10_15 
REMARK    8  A    between atoms: C10_15  and  N6_16 
ROOT
HETATM    1  C5  UNL     1      24.310   2.229  51.653  1.00  0.00     0.159 A 
HETATM    2  N3  UNL     1      23.412   2.673  50.751  1.00  0.00    -0.220 NA
HETATM    3  C6  UNL     1      22.209   2.046  50.618  1.00  0.00     0.258 A 
HETATM    4  N4  UNL     1      22.014   0.996  51.427  1.00  0.00    -0.161 NA
HETATM    5  N5  UNL     1      22.887   0.554  52.312  1.00  0.00    -0.240 N 
HETATM    6  C7  UNL     1      22.861  -0.464  53.193  1.00  0.00     0.119 A 
HETATM    7  C8  UNL     1      24.056  -0.487  53.894  1.00  0.00     0.030 A 
HETATM    8  C9  UNL     1      24.868   0.556  53.440  1.00  0.00     0.004 A 
HETATM    9  C16 UNL     1      24.085   1.147  52.474  1.00  0.00     0.112 A 
ENDROOT
BRANCH   1  10
HETATM   10  N2  UNL     1      25.504   2.988  51.674  1.00  0.00    -0.342 N 
HETATM   11  H7  UNL     1      26.075   3.743  52.092  1.00  0.00     0.167 HD
BRANCH  10  12
HETATM   12  C4  UNL     1      26.549   2.752  50.750  1.00  0.00     0.141 C 
BRANCH  12  13
HETATM   13  C3  UNL     1      26.713   3.618  49.763  1.00  0.00    -0.131 C 
BRANCH  13  14
HETATM   14  C2  UNL     1      26.930   4.656  48.976  1.00  0.00     0.102 C 
BRANCH  14  15
HETATM   15  C1  UNL     1      25.918   5.732  49.031  1.00  0.00     0.284 C 
BRANCH  15  16
HETATM   16  N1  UNL     1      26.293   6.628  50.127  1.00  0.00     0.079 N 
HETATM   17  H1  UNL     1      27.000   6.187  50.726  1.00  0.00     0.312 HD
HETATM   18  H2  UNL     1      25.467   6.861  50.686  1.00  0.00     0.312 HD
ENDBRANCH  15  16
ENDBRANCH  14  15
ENDBRANCH  13  14
ENDBRANCH  12  13
ENDBRANCH  10  12
ENDBRANCH   1  10
BRANCH   8  19
HETATM   19  C10 UNL     1      26.220   0.931  53.867  1.00  0.00     0.313 C 
BRANCH  19  20
HETATM   20  N6  UNL     1      27.093  -0.197  54.149  1.00  0.00     0.092 N 
HETATM   21  C11 UNL     1      28.274   0.259  54.804  1.00  0.00     0.272 C 
HETATM   22  C12 UNL     1      29.536   0.088  54.008  1.00  0.00     0.030 C 
HETATM   23  C13 UNL     1      29.717  -1.317  53.494  1.00  0.00     0.003 C 
HETATM   24  C14 UNL     1      28.450  -1.863  52.926  1.00  0.00     0.030 C 
HETATM   25  C15 UNL     1      27.288  -0.927  52.935  1.00  0.00     0.272 C 
ENDBRANCH  19  20
ENDBRANCH   8  19
TORSDOF 8
ENDMDL
MODEL 2
REMARK VINA RESULT:      -7.1      1.467      1.757
REMARK  8 active torsions:
REMARK  status: ('A' for Active; 'I' for Inactive)
REMARK    1  A    between atoms: N1_1  and  C1_2 
REMARK    2  A    between atoms: C1_2  and  C2_3 
REMARK    3  A    between atoms: C2_3  and  C3_4 
REMARK    4  A    between atoms: C3_4  and  C4_5 
REMARK    5  A    between atoms: C4_5  and  N2_6 
REMARK    6  A    between atoms: N2_6  and  C5_7 
REMARK    7  A    between atoms: C9_14  and  C10_15 
REMARK    8  A    between atoms: C10_15  and  N6_16 
ROOT
HETATM    1  C5  UNL     1      24.167   3.503  51.529  1.00  0.00     0.159 A 
HETATM    2  N3  UNL     1      23.370   4.574  51.341  1.00  0.00    -0.220 NA
HETATM    3  C6  UNL     1      22.057   4.521  51.703  1.00  0.00     0.258 A 
HETATM    4  N4  UNL     1      21.653   3.360  52.237  1.00  0.00    -0.161 NA
HETATM    5  N5  UNL     1      22.426   2.307  52.425  1.00  0.00    -0.240 N 
HETATM    6  C7  UNL     1      22.197   1.084  52.939  1.00  0.00     0.119 A 
HETATM    7  C8  UNL     1      23.371   0.350  52.904  1.00  0.00     0.030 A 
HETATM    8  C9  UNL     1      24.383   1.140  52.348  1.00  0.00     0.004 A 
HETATM    9  C16 UNL     1      23.727   2.321  52.081  1.00  0.00     0.112 A 
ENDROOT
BRANCH   1  10
HETATM   10  N2  UNL     1      25.501   3.718  51.109  1.00  0.00    -0.342 N 
HETATM   11  H7  UNL     1      26.478   3.974  51.334  1.00  0.00     0.167 HD
BRANCH  10  12
HETATM   12  C4  UNL     1      25.887   3.556  49.758  1.00  0.00     0.141 C 
BRANCH  12  13
HETATM   13  C3  UNL     1      26.835   4.349  49.282  1.00  0.00    -0.131 C 
BRANCH  13  14
HETATM   14  C2  UNL     1      27.728   5.015  48.574  1.00  0.00     0.102 C 
BRANCH  14  15
HETATM   15  C1  UNL     1      27.395   6.423  48.274  1.00  0.00     0.284 C 
BRANCH  15  16
HETATM   16  N1  UNL     1      27.154   7.096  49.551  1.00  0.00     0.079 N 
HETATM   17  H1  UNL     1      27.968   6.998  50.169  1.00  0.00     0.312 HD
HETATM   18  H2  UNL     1      26.327   6.698  50.006  1.00  0.00     0.312 HD
ENDBRANCH  15  16
ENDBRANCH  14  15
ENDBRANCH  13  14
ENDBRANCH  12  13
ENDBRANCH  10  12
ENDBRANCH   1  10
BRANCH   8  19
HETATM   19  C10 UNL     1      25.788   0.803  52.096  1.00  0.00     0.313 C 
BRANCH  19  20
HETATM   20  N6  UNL     1      26.601   0.694  53.296  1.00  0.00     0.092 N 
HETATM   21  C11 UNL     1      27.044   1.987  53.699  1.00  0.00     0.272 C 
HETATM   22  C12 UNL     1      28.528   2.198  53.603  1.00  0.00     0.030 C 
HETATM   23  C13 UNL     1      29.316   1.120  54.302  1.00  0.00     0.003 C 
HETATM   24  C14 UNL     1      28.781  -0.239  54.000  1.00  0.00     0.030 C 
HETATM   25  C15 UNL     1      27.625  -0.276  53.056  1.00  0.00     0.272 C 
ENDBRANCH  19  20
ENDBRANCH   8  19
TORSDOF 8
ENDMDL
MODEL 3
REMARK VINA RESULT:      -7.0      1.586      5.158
REMARK  8 active torsions:
REMARK  status: ('A' for Active; 'I' for Inactive)
REMARK    1  A    between atoms: N1_1  and  C1_2 
REMARK    2  A    between atoms: C1_2  and  C2_3 
REMARK    3  A    between atoms: C2_3  and  C3_4 
REMARK    4  A    between atoms: C3_4  and  C4_5 
REMARK    5  A    between atoms: C4_5  and  N2_6 
REMARK    6  A    between atoms: N2_6  and  C5_7 
REMARK    7  A    between atoms: C9_14  and  C10_15 
REMARK    8  A    between atoms: C10_15  and  N6_16 
ROOT
HETATM    1  C5  UNL     1      26.825   2.148  52.314  1.00  0.00     0.159 A 
HETATM    2  N3  UNL     1      28.110   2.375  52.646  1.00  0.00    -0.220 NA
HETATM    3  C6  UNL     1      28.739   1.561  53.540  1.00  0.00     0.258 A 
HETATM    4  N4  UNL     1      27.994   0.562  54.035  1.00  0.00    -0.161 NA
HETATM    5  N5  UNL     1      26.735   0.333  53.714  1.00  0.00    -0.240 N 
HETATM    6  C7  UNL     1      25.849  -0.604  54.102  1.00  0.00     0.119 A 
HETATM    7  C8  UNL     1      24.646  -0.386  53.450  1.00  0.00     0.030 A 
HETATM    8  C9  UNL     1      24.775   0.730  52.619  1.00  0.00     0.004 A 
HETATM    9  C16 UNL     1      26.080   1.114  52.836  1.00  0.00     0.112 A 
ENDROOT
BRANCH   1  10
HETATM   10  N2  UNL     1      26.319   3.074  51.371  1.00  0.00    -0.342 N 
HETATM   11  H7  UNL     1      25.790   3.939  51.164  1.00  0.00     0.167 HD
BRANCH  10  12
HETATM   12  C4  UNL     1      26.534   2.910  49.982  1.00  0.00     0.141 C 
BRANCH  12  13
HETATM   13  C3  UNL     1      26.829   3.984  49.267  1.00  0.00    -0.131 C 
BRANCH  13  14
HETATM   14  C2  UNL     1      27.332   5.078  48.725  1.00  0.00     0.102 C 
BRANCH  14  15
HETATM   15  C1  UNL     1      26.462   6.272  48.754  1.00  0.00     0.284 C 
BRANCH  15  16
HETATM   16  N1  UNL     1      26.325   6.678  50.154  1.00  0.00     0.079 N 
HETATM   17  H1  UNL     1      26.980   7.439  50.373  1.00  0.00     0.312 HD
HETATM   18  H2  UNL     1      26.509   5.881  50.770  1.00  0.00     0.312 HD
ENDBRANCH  15  16
ENDBRANCH  14  15
ENDBRANCH  13  14
ENDBRANCH  12  13
ENDBRANCH  10  12
ENDBRANCH   1  10
BRANCH   8  19
HETATM   19  C10 UNL     1      23.779   1.353  51.742  1.00  0.00     0.313 C 
BRANCH  19  20
HETATM   20  N6  UNL     1      22.800   2.174  52.436  1.00  0.00     0.092 N 
HETATM   21  C11 UNL     1      21.566   1.469  52.540  1.00  0.00     0.272 C 
HETATM   22  C12 UNL     1      20.432   2.077  51.764  1.00  0.00     0.030 C 
HETATM   23  C13 UNL     1      20.240   3.542  52.062  1.00  0.00     0.003 C 
HETATM   24  C14 UNL     1      21.540   4.274  52.093  1.00  0.00     0.030 C 
HETATM   25  C15 UNL     1      22.746   3.449  51.789  1.00  0.00     0.272 C 
ENDBRANCH  19  20
ENDBRANCH   8  19
TORSDOF 8
ENDMDL
MODEL 4
REMARK VINA RESULT:      -6.9      1.357      1.954
REMARK  8 active torsions:
REMARK  status: ('A' for Active; 'I' for Inactive)
REMARK    1  A    between atoms: N1_1  and  C1_2 
REMARK    2  A    between atoms: C1_2  and  C2_3 
REMARK    3  A    between atoms: C2_3  and  C3_4 
REMARK    4  A    between atoms: C3_4  and  C4_5 
REMARK    5  A    between atoms: C4_5  and  N2_6 
REMARK    6  A    between atoms: N2_6  and  C5_7 
REMARK    7  A    between atoms: C9_14  and  C10_15 
REMARK    8  A    between atoms: C10_15  and  N6_16 
ROOT
HETATM    1  C5  UNL     1      22.679   1.407  51.975  1.00  0.00     0.159 A 
HETATM    2  N3  UNL     1      21.515   2.014  51.673  1.00  0.00    -0.220 NA
HETATM    3  C6  UNL     1      20.404   1.777  52.427  1.00  0.00     0.258 A 
HETATM    4  N4  UNL     1      20.571   0.923  53.446  1.00  0.00    -0.161 NA
HETATM    5  N5  UNL     1      21.707   0.324  53.748  1.00  0.00    -0.240 N 
HETATM    6  C7  UNL     1      22.053  -0.545  54.718  1.00  0.00     0.119 A 
HETATM    7  C8  UNL     1      23.394  -0.865  54.581  1.00  0.00     0.030 A 
HETATM    8  C9  UNL     1      23.916  -0.172  53.486  1.00  0.00     0.004 A 
HETATM    9  C16 UNL     1      22.825   0.533  53.029  1.00  0.00     0.112 A 
ENDROOT
BRANCH   1  10
HETATM   10  N2  UNL     1      23.737   1.761  51.105  1.00  0.00    -0.342 N 
HETATM   11  H7  UNL     1      24.385   1.510  50.338  1.00  0.00     0.167 HD
BRANCH  10  12
HETATM   12  C4  UNL     1      24.340   3.040  51.154  1.00  0.00     0.141 C 
BRANCH  12  13
HETATM   13  C3  UNL     1      25.385   3.266  50.373  1.00  0.00    -0.131 C 
BRANCH  13  14
HETATM   14  C2  UNL     1      26.570   3.414  49.809  1.00  0.00     0.102 C 
BRANCH  14  15
HETATM   15  C1  UNL     1      26.779   4.676  49.069  1.00  0.00     0.284 C 
BRANCH  15  16
HETATM   16  N1  UNL     1      26.405   5.773  49.962  1.00  0.00     0.079 N 
HETATM   17  H1  UNL     1      27.178   5.996  50.600  1.00  0.00     0.312 HD
HETATM   18  H2  UNL     1      25.575   5.517  50.505  1.00  0.00     0.312 HD
ENDBRANCH  15  16
ENDBRANCH  14  15
ENDBRANCH  13  14
ENDBRANCH  12  13
ENDBRANCH  10  12
ENDBRANCH   1  10
BRANCH   8  19
HETATM   19  C10 UNL     1      25.278  -0.190  52.942  1.00  0.00     0.313 C 
BRANCH  19  20
HETATM   20  N6  UNL     1      26.300   0.263  53.871  1.00  0.00     0.092 N 
HETATM   21  C11 UNL     1      26.405   1.683  53.818  1.00  0.00     0.272 C 
HETATM   22  C12 UNL     1      27.712   2.193  53.282  1.00  0.00     0.030 C 
HETATM   23  C13 UNL     1      28.904   1.594  53.983  1.00  0.00     0.003 C 
HETATM   24  C14 UNL     1      28.751   0.122  54.170  1.00  0.00     0.030 C 
HETATM   25  C15 UNL     1      27.501  -0.468  53.607  1.00  0.00     0.272 C 
ENDBRANCH  19  20
ENDBRANCH   8  19
TORSDOF 8
ENDMDL
MODEL 5
REMARK VINA RESULT:      -6.8      1.957      6.401
REMARK  8 active torsions:
REMARK  status: ('A' for Active; 'I' for Inactive)
REMARK    1  A    between atoms: N1_1  and  C1_2 
REMARK    2  A    between atoms: C1_2  and  C2_3 
REMARK    3  A    between atoms: C2_3  and  C3_4 
REMARK    4  A    between atoms: C3_4  and  C4_5 
REMARK    5  A    between atoms: C4_5  and  N2_6 
REMARK    6  A    between atoms: N2_6  and  C5_7 
REMARK    7  A    between atoms: C9_14  and  C10_15 
REMARK    8  A    between atoms: C10_15  and  N6_16 
ROOT
HETATM    1  C5  UNL     1      27.069  -0.782  53.097  1.00  0.00     0.159 A 
HETATM    2  N3  UNL     1      27.635  -2.004  53.111  1.00  0.00    -0.220 NA
HETATM    3  C6  UNL     1      28.970  -2.136  53.352  1.00  0.00     0.258 A 
HETATM    4  N4  UNL     1      29.635  -0.991  53.561  1.00  0.00    -0.161 NA
HETATM    5  N5  UNL     1      29.087   0.210  53.549  1.00  0.00    -0.240 N 
HETATM    6  C7  UNL     1      29.589   1.445  53.737  1.00  0.00     0.119 A 
HETATM    7  C8  UNL     1      28.567   2.373  53.616  1.00  0.00     0.030 A 
HETATM    8  C9  UNL     1      27.374   1.699  53.341  1.00  0.00     0.004 A 
HETATM    9  C16 UNL     1      27.773   0.381  53.316  1.00  0.00     0.112 A 
ENDROOT
BRANCH   1  10
HETATM   10  N2  UNL     1      25.677  -0.813  52.840  1.00  0.00    -0.342 N 
HETATM   11  H7  UNL     1      24.893  -0.811  52.165  1.00  0.00     0.167 HD
BRANCH  10  12
HETATM   12  C4  UNL     1      24.732  -0.874  53.891  1.00  0.00     0.141 C 
BRANCH  12  13
HETATM   13  C3  UNL     1      23.502  -0.448  53.646  1.00  0.00    -0.131 C 
BRANCH  13  14
HETATM   14  C2  UNL     1      22.339  -0.074  53.145  1.00  0.00     0.102 C 
BRANCH  14  15
HETATM   15  C1  UNL     1      21.246   0.117  54.121  1.00  0.00     0.284 C 
BRANCH  15  16
HETATM   16  N1  UNL     1      20.934  -1.195  54.689  1.00  0.00     0.079 N 
HETATM   17  H1  UNL     1      20.073  -1.150  55.246  1.00  0.00     0.312 HD
HETATM   18  H2  UNL     1      21.708  -1.514  55.280  1.00  0.00     0.312 HD
ENDBRANCH  15  16
ENDBRANCH  14  15
ENDBRANCH  13  14
ENDBRANCH  12  13
ENDBRANCH  10  12
ENDBRANCH   1  10
BRANCH   8  19
HETATM   19  C10 UNL     1      26.031   2.245  53.121  1.00  0.00     0.313 C 
BRANCH  19  20
HETATM   20  N6  UNL     1      25.553   2.126  51.753  1.00  0.00     0.092 N 
HETATM   21  C11 UNL     1      26.530   2.643  50.854  1.00  0.00     0.272 C 
HETATM   22  C12 UNL     1      26.105   3.879  50.113  1.00  0.00     0.030 C 
HETATM   23  C13 UNL     1      24.775   3.717  49.423  1.00  0.00     0.003 C 
HETATM   24  C14 UNL     1      23.774   3.051  50.306  1.00  0.00     0.030 C 
HETATM   25  C15 UNL     1      24.253   2.718  51.680  1.00  0.00     0.272 C 
ENDBRANCH  19  20
ENDBRANCH   8  19
TORSDOF 8
ENDMDL
MODEL 6
REMARK VINA RESULT:      -6.7      2.033      5.756
REMARK  8 active torsions:
REMARK  status: ('A' for Active; 'I' for Inactive)
REMARK    1  A    between atoms: N1_1  and  C1_2 
REMARK    2  A    between atoms: C1_2  and  C2_3 
REMARK    3  A    between atoms: C2_3  and  C3_4 
REMARK    4  A    between atoms: C3_4  and  C4_5 
REMARK    5  A    between atoms: C4_5  and  N2_6 
REMARK    6  A    between atoms: N2_6  and  C5_7 
REMARK    7  A    between atoms: C9_14  and  C10_15 
REMARK    8  A    between atoms: C10_15  and  N6_16 
ROOT
HETATM    1  C5  UNL     1      24.148  -0.272  53.784  1.00  0.00     0.159 A 
HETATM    2  N3  UNL     1      24.406  -0.994  54.892  1.00  0.00    -0.220 NA
HETATM    3  C6  UNL     1      23.380  -1.523  55.618  1.00  0.00     0.258 A 
HETATM    4  N4  UNL     1      22.151  -1.268  55.149  1.00  0.00    -0.161 NA
HETATM    5  N5  UNL     1      21.890  -0.561  54.066  1.00  0.00    -0.240 N 
HETATM    6  C7  UNL     1      20.740  -0.213  53.457  1.00  0.00     0.119 A 
HETATM    7  C8  UNL     1      21.034   0.544  52.334  1.00  0.00     0.030 A 
HETATM    8  C9  UNL     1      22.422   0.678  52.228  1.00  0.00     0.004 A 
HETATM    9  C16 UNL     1      22.875  -0.024  53.322  1.00  0.00     0.112 A 
ENDROOT
BRANCH   1  10
HETATM   10  N2  UNL     1      25.316   0.200  53.140  1.00  0.00    -0.342 N 
HETATM   11  H7  UNL     1      25.904   0.991  52.824  1.00  0.00     0.167 HD
BRANCH  10  12
HETATM   12  C4  UNL     1      26.269  -0.689  52.589  1.00  0.00     0.141 C 
BRANCH  12  13
HETATM   13  C3  UNL     1      27.494  -0.676  53.092  1.00  0.00    -0.131 C 
BRANCH  13  14
HETATM   14  C2  UNL     1      28.773  -0.824  53.385  1.00  0.00     0.102 C 
BRANCH  14  15
HETATM   15  C1  UNL     1      29.476   0.392  53.843  1.00  0.00     0.284 C 
BRANCH  15  16
HETATM   16  N1  UNL     1      28.726   0.929  54.979  1.00  0.00     0.079 N 
HETATM   17  H1  UNL     1      27.726   0.993  54.751  1.00  0.00     0.312 HD
HETATM   18  H2  UNL     1      29.081   1.857  55.226  1.00  0.00     0.312 HD
ENDBRANCH  15  16
ENDBRANCH  14  15
ENDBRANCH  13  14
ENDBRANCH  12  13
ENDBRANCH  10  12
ENDBRANCH   1  10
BRANCH   8  19
HETATM   19  C10 UNL     1      23.209   1.394  51.219  1.00  0.00     0.313 C 
BRANCH  19  20
HETATM   20  N6  UNL     1      22.892   2.808  51.105  1.00  0.00     0.092 N 
HETATM   21  C11 UNL     1      23.366   3.310  49.857  1.00  0.00     0.272 C 
HETATM   22  C12 UNL     1      24.470   4.322  49.969  1.00  0.00     0.030 C 
HETATM   23  C13 UNL     1      24.133   5.452  50.907  1.00  0.00     0.003 C 
HETATM   24  C14 UNL     1      23.509   4.954  52.168  1.00  0.00     0.030 C 
HETATM   25  C15 UNL     1      23.378   3.472  52.275  1.00  0.00     0.272 C 
ENDBRANCH  19  20
ENDBRANCH   8  19
TORSDOF 8
ENDMDL
MODEL 7
REMARK VINA RESULT:      -6.7      1.554      1.688
REMARK  8 active torsions:
REMARK  status: ('A' for Active; 'I' for Inactive)
REMARK    1  A    between atoms: N1_1  and  C1_2 
REMARK    2  A    between atoms: C1_2  and  C2_3 
REMARK    3  A    between atoms: C2_3  and  C3_4 
REMARK    4  A    between atoms: C3_4  and  C4_5 
REMARK    5  A    between atoms: C4_5  and  N2_6 
REMARK    6  A    between atoms: N2_6  and  C5_7 
REMARK    7  A    between atoms: C9_14  and  C10_15 
REMARK    8  A    between atoms: C10_15  and  N6_16 
ROOT
HETATM    1  C5  UNL     1      22.832   2.485  52.456  1.00  0.00     0.159 A 
HETATM    2  N3  UNL     1      21.650   3.095  52.245  1.00  0.00    -0.220 NA
HETATM    3  C6  UNL     1      20.488   2.477  52.600  1.00  0.00     0.258 A 
HETATM    4  N4  UNL     1      20.626   1.263  53.151  1.00  0.00    -0.161 NA
HETATM    5  N5  UNL     1      21.781   0.659  53.362  1.00  0.00    -0.240 N 
HETATM    6  C7  UNL     1      22.104  -0.535  53.896  1.00  0.00     0.119 A 
HETATM    7  C8  UNL     1      23.481  -0.679  53.881  1.00  0.00     0.030 A 
HETATM    8  C9  UNL     1      24.052   0.466  53.318  1.00  0.00     0.004 A 
HETATM    9  C16 UNL     1      22.948   1.237  53.026  1.00  0.00     0.112 A 
ENDROOT
BRANCH   1  10
HETATM   10  N2  UNL     1      23.943   3.258  52.040  1.00  0.00    -0.342 N 
HETATM   11  H7  UNL     1      24.797   3.793  52.274  1.00  0.00     0.167 HD
BRANCH  10  12
HETATM   12  C4  UNL     1      24.168   3.556  50.676  1.00  0.00     0.141 C 
BRANCH  12  13
HETATM   13  C3  UNL     1      24.884   4.631  50.384  1.00  0.00    -0.131 C 
BRANCH  13  14
HETATM   14  C2  UNL     1      25.358   5.825  50.078  1.00  0.00     0.102 C 
BRANCH  14  15
HETATM   15  C1  UNL     1      24.532   6.975  50.502  1.00  0.00     0.284 C 
BRANCH  15  16
HETATM   16  N1  UNL     1      24.460   6.946  51.963  1.00  0.00     0.079 N 
HETATM   17  H1  UNL     1      24.314   5.986  52.297  1.00  0.00     0.312 HD
HETATM   18  H2  UNL     1      23.694   7.542  52.289  1.00  0.00     0.312 HD
ENDBRANCH  15  16
ENDBRANCH  14  15
ENDBRANCH  13  14
ENDBRANCH  12  13
ENDBRANCH  10  12
ENDBRANCH   1  10
BRANCH   8  19
HETATM   19  C10 UNL     1      25.465   0.777  53.080  1.00  0.00     0.313 C 
BRANCH  19  20
HETATM   20  N6  UNL     1      26.394  -0.169  53.677  1.00  0.00     0.092 N 
HETATM   21  C11 UNL     1      27.243   0.507  54.601  1.00  0.00     0.272 C 
HETATM   22  C12 UNL     1      28.691   0.548  54.203  1.00  0.00     0.030 C 
HETATM   23  C13 UNL     1      29.242  -0.814  53.866  1.00  0.00     0.003 C 
HETATM   24  C14 UNL     1      28.302  -1.592  53.008  1.00  0.00     0.030 C 
HETATM   25  C15 UNL     1      27.049  -0.880  52.623  1.00  0.00     0.272 C 
ENDBRANCH  19  20
ENDBRANCH   8  19
TORSDOF 8
ENDMDL
MODEL 8
REMARK VINA RESULT:      -6.7      1.720      5.758
REMARK  8 active torsions:
REMARK  status: ('A' for Active; 'I' for Inactive)
REMARK    1  A    between atoms: N1_1  and  C1_2 
REMARK    2  A    between atoms: C1_2  and  C2_3 
REMARK    3  A    between atoms: C2_3  and  C3_4 
REMARK    4  A    between atoms: C3_4  and  C4_5 
REMARK    5  A    between atoms: C4_5  and  N2_6 
REMARK    6  A    between atoms: N2_6  and  C5_7 
REMARK    7  A    between atoms: C9_14  and  C10_15 
REMARK    8  A    between atoms: C10_15  and  N6_16 
ROOT
HETATM    1  C5  UNL     1      23.629   0.840  53.035  1.00  0.00     0.159 A 
HETATM    2  N3  UNL     1      23.390  -0.428  53.423  1.00  0.00    -0.220 NA
HETATM    3  C6  UNL     1      22.114  -0.907  53.445  1.00  0.00     0.258 A 
HETATM    4  N4  UNL     1      21.166  -0.040  53.063  1.00  0.00    -0.161 NA
HETATM    5  N5  UNL     1      21.392   1.203  52.682  1.00  0.00    -0.240 N 
HETATM    6  C7  UNL     1      20.579   2.195  52.271  1.00  0.00     0.119 A 
HETATM    7  C8  UNL     1      21.342   3.316  51.986  1.00  0.00     0.030 A 
HETATM    8  C9  UNL     1      22.688   3.022  52.224  1.00  0.00     0.004 A 
HETATM    9  C16 UNL     1      22.637   1.712  52.646  1.00  0.00     0.112 A 
ENDROOT
BRANCH   1  10
HETATM   10  N2  UNL     1      25.002   1.183  53.060  1.00  0.00    -0.342 N 
HETATM   11  H7  UNL     1      25.779   1.726  53.474  1.00  0.00     0.167 HD
BRANCH  10  12
HETATM   12  C4  UNL     1      25.925   0.612  52.153  1.00  0.00     0.141 C 
BRANCH  12  13
HETATM   13  C3  UNL     1      26.910  -0.122  52.647  1.00  0.00    -0.131 C 
BRANCH  13  14
HETATM   14  C2  UNL     1      27.804  -1.040  52.966  1.00  0.00     0.102 C 
BRANCH  14  15
HETATM   15  C1  UNL     1      27.470  -2.427  52.582  1.00  0.00     0.284 C 
BRANCH  15  16
HETATM   16  N1  UNL     1      28.493  -3.299  53.163  1.00  0.00     0.079 N 
HETATM   17  H1  UNL     1      29.432  -2.961  52.923  1.00  0.00     0.312 HD
HETATM   18  H2  UNL     1      28.374  -4.256  52.818  1.00  0.00     0.312 HD
ENDBRANCH  15  16
ENDBRANCH  14  15
ENDBRANCH  13  14
ENDBRANCH  12  13
ENDBRANCH  10  12
ENDBRANCH   1  10
BRANCH   8  19
HETATM   19  C10 UNL     1      23.865   3.884  52.076  1.00  0.00     0.313 C 
BRANCH  19  20
HETATM   20  N6  UNL     1      24.159   4.265  50.704  1.00  0.00     0.092 N 
HETATM   21  C11 UNL     1      25.017   3.296  50.107  1.00  0.00     0.272 C 
HETATM   22  C12 UNL     1      26.388   3.802  49.762  1.00  0.00     0.030 C 
HETATM   23  C13 UNL     1      26.354   5.066  48.941  1.00  0.00     0.003 C 
HETATM   24  C14 UNL     1      25.360   6.042  49.474  1.00  0.00     0.030 C 
HETATM   25  C15 UNL     1      24.638   5.613  50.707  1.00  0.00     0.272 C 
ENDBRANCH  19  20
ENDBRANCH   8  19
TORSDOF 8
ENDMDL
MODEL 9
REMARK VINA RESULT:      -6.4      2.632      5.989
REMARK  8 active torsions:
REMARK  status: ('A' for Active; 'I' for Inactive)
REMARK    1  A    between atoms: N1_1  and  C1_2 
REMARK    2  A    between atoms: C1_2  and  C2_3 
REMARK    3  A    between atoms: C2_3  and  C3_4 
REMARK    4  A    between atoms: C3_4  and  C4_5 
REMARK    5  A    between atoms: C4_5  and  N2_6 
REMARK    6  A    between atoms: N2_6  and  C5_7 
REMARK    7  A    between atoms: C9_14  and  C10_15 
REMARK    8  A    between atoms: C10_15  and  N6_16 
ROOT
HETATM    1  C5  UNL     1      24.482   0.531  52.744  1.00  0.00     0.159 A 
HETATM    2  N3  UNL     1      25.807   0.292  52.786  1.00  0.00    -0.220 NA
HETATM    3  C6  UNL     1      26.322  -0.544  53.732  1.00  0.00     0.258 A 
HETATM    4  N4  UNL     1      25.428  -1.080  54.575  1.00  0.00    -0.161 NA
HETATM    5  N5  UNL     1      24.129  -0.852  54.540  1.00  0.00    -0.240 N 
HETATM    6  C7  UNL     1      23.102  -1.296  55.290  1.00  0.00     0.119 A 
HETATM    7  C8  UNL     1      21.924  -0.738  54.820  1.00  0.00     0.030 A 
HETATM    8  C9  UNL     1      22.216   0.089  53.731  1.00  0.00     0.004 A 
HETATM    9  C16 UNL     1      23.584  -0.033  53.622  1.00  0.00     0.112 A 
ENDROOT
BRANCH   1  10
HETATM   10  N2  UNL     1      24.105   1.413  51.703  1.00  0.00    -0.342 N 
HETATM   11  H7  UNL     1      23.592   1.588  50.823  1.00  0.00     0.167 HD
BRANCH  10  12
HETATM   12  C4  UNL     1      24.548   2.757  51.676  1.00  0.00     0.141 C 
BRANCH  12  13
HETATM   13  C3  UNL     1      23.723   3.692  52.121  1.00  0.00    -0.131 C 
BRANCH  13  14
HETATM   14  C2  UNL     1      23.009   4.775  52.368  1.00  0.00     0.102 C 
BRANCH  14  15
HETATM   15  C1  UNL     1      23.111   5.858  51.368  1.00  0.00     0.284 C 
BRANCH  15  16
HETATM   16  N1  UNL     1      21.922   6.699  51.513  1.00  0.00     0.079 N 
HETATM   17  H1  UNL     1      22.084   7.626  51.102  1.00  0.00     0.312 HD
HETATM   18  H2  UNL     1      21.683   6.801  52.504  1.00  0.00     0.312 HD
ENDBRANCH  15  16
ENDBRANCH  14  15
ENDBRANCH  13  14
ENDBRANCH  12  13
ENDBRANCH  10  12
ENDBRANCH   1  10
BRANCH   8  19
HETATM   19  C10 UNL     1      21.308   0.896  52.912  1.00  0.00     0.313 C 
BRANCH  19  20
HETATM   20  N6  UNL     1      20.480   0.125  51.998  1.00  0.00     0.092 N 
HETATM   21  C11 UNL     1      20.601   0.650  50.678  1.00  0.00     0.272 C 
HETATM   22  C12 UNL     1      19.343   1.261  50.131  1.00  0.00     0.030 C 
HETATM   23  C13 UNL     1      18.154   0.341  50.235  1.00  0.00     0.003 C 
HETATM   24  C14 UNL     1      18.087  -0.324  51.568  1.00  0.00     0.030 C 
HETATM   25  C15 UNL     1      19.156   0.067  52.534  1.00  0.00     0.272 C 
ENDBRANCH  19  20
ENDBRANCH   8  19
TORSDOF 8
ENDMDL
