MODEL 1
REMARK VINA RESULT:      -9.3      0.000      0.000
REMARK  0 active torsions:
REMARK  status: ('A' for Active; 'I' for Inactive)
ROOT
HETATM    1  N1  UNL     1      20.798   0.594  54.970  1.00  0.00    -0.192 NA
HETATM    2  C1  UNL     1      21.573   0.218  54.166  1.00  0.00     0.098 C 
HETATM    3  C2  UNL     1      22.497  -0.239  53.174  1.00  0.00     0.055 C 
HETATM    4  C3  UNL     1      23.704  -0.331  53.607  1.00  0.00     0.108 C 
HETATM    5  N2  UNL     1      24.885  -0.735  52.962  1.00  0.00    -0.363 N 
HETATM    6  C4  UNL     1      26.296  -0.670  52.980  1.00  0.00     0.065 A 
HETATM    7  C5  UNL     1      26.912  -1.852  53.100  1.00  0.00     0.005 A 
HETATM    8  C6  UNL     1      28.254  -2.459  53.179  1.00  0.00     0.033 A 
HETATM    9  C7  UNL     1      29.271  -1.342  53.094  1.00  0.00     0.033 A 
HETATM   10  C8  UNL     1      28.512  -0.080  52.965  1.00  0.00     0.016 A 
HETATM   11  C9  UNL     1      27.271   0.409  52.899  1.00  0.00     0.193 A 
HETATM   12  N3  UNL     1      27.159   1.821  52.776  1.00  0.00     0.120 N 
HETATM   13  C10 UNL     1      26.464   2.489  51.779  1.00  0.00     0.362 A 
HETATM   14  O1  UNL     1      26.371   1.276  51.616  1.00  0.00    -0.145 OA
HETATM   15  C11 UNL     1      25.798   3.279  50.829  1.00  0.00     0.075 C 
HETATM   16  C12 UNL     1      25.490   4.482  50.398  1.00  0.00     0.007 C 
HETATM   17  C13 UNL     1      24.657   4.216  49.197  1.00  0.00     0.024 C 
HETATM   18  C14 UNL     1      23.719   5.393  48.917  1.00  0.00     0.173 C 
HETATM   19  O2  UNL     1      22.851   5.279  49.984  1.00  0.00    -0.390 OA
HETATM   20  C15 UNL     1      22.538   3.935  50.136  1.00  0.00     0.176 C 
HETATM   21  C16 UNL     1      23.617   3.136  49.393  1.00  0.00     0.038 C 
HETATM   22  C17 UNL     1      23.009   2.858  48.043  1.00  0.00    -0.023 C 
HETATM   23  C18 UNL     1      22.042   1.972  47.804  1.00  0.00    -0.019 C 
HETATM   24  C19 UNL     1      21.854   1.463  49.178  1.00  0.00     0.058 C 
HETATM   25  C20 UNL     1      21.073   0.566  49.810  1.00  0.00     0.065 C 
HETATM   26  N4  UNL     1      21.488   0.624  51.198  1.00  0.00    -0.397 N 
HETATM   27  C21 UNL     1      22.107  -0.563  51.807  1.00  0.00     0.170 C 
HETATM   28  H2  UNL     1      24.580  -1.316  52.162  1.00  0.00     0.165 HD
HETATM   29  H9  UNL     1      27.674   2.323  53.543  1.00  0.00     0.329 HD
HETATM   30  H22 UNL     1      21.313   1.521  51.694  1.00  0.00     0.159 HD
ENDROOT
TORSDOF 0
ENDMDL
MODEL 2
REMARK VINA RESULT:      -8.4      2.202      2.967
REMARK  0 active torsions:
REMARK  status: ('A' for Active; 'I' for Inactive)
ROOT
HETATM    1  N1  UNL     1      18.600   0.570  51.782  1.00  0.00    -0.192 NA
HETATM    2  C1  UNL     1      19.712   0.666  51.405  1.00  0.00     0.098 C 
HETATM    3  C2  UNL     1      21.054   0.783  50.924  1.00  0.00     0.055 C 
HETATM    4  C3  UNL     1      21.933   0.774  51.863  1.00  0.00     0.108 C 
HETATM    5  N2  UNL     1      23.335   0.864  51.813  1.00  0.00    -0.363 N 
HETATM    6  C4  UNL     1      24.502   1.186  52.540  1.00  0.00     0.065 A 
HETATM    7  C5  UNL     1      25.376   0.181  52.674  1.00  0.00     0.005 A 
HETATM    8  C6  UNL     1      26.688  -0.145  53.264  1.00  0.00     0.033 A 
HETATM    9  C7  UNL     1      27.206   1.098  53.951  1.00  0.00     0.033 A 
HETATM   10  C8  UNL     1      26.188   2.151  53.757  1.00  0.00     0.016 A 
HETATM   11  C9  UNL     1      24.996   2.385  53.201  1.00  0.00     0.193 A 
HETATM   12  N3  UNL     1      24.473   3.697  53.366  1.00  0.00     0.120 N 
HETATM   13  C10 UNL     1      24.063   4.535  52.340  1.00  0.00     0.362 A 
HETATM   14  O1  UNL     1      24.462   3.469  51.879  1.00  0.00    -0.145 OA
HETATM   15  C11 UNL     1      23.618   5.472  51.395  1.00  0.00     0.075 C 
HETATM   16  C12 UNL     1      23.124   6.667  51.158  1.00  0.00     0.007 C 
HETATM   17  C13 UNL     1      22.997   6.700  49.678  1.00  0.00     0.024 C 
HETATM   18  C14 UNL     1      21.916   7.697  49.249  1.00  0.00     0.173 C 
HETATM   19  O2  UNL     1      20.785   7.041  49.689  1.00  0.00    -0.390 OA
HETATM   20  C15 UNL     1      20.912   5.700  49.354  1.00  0.00     0.176 C 
HETATM   21  C16 UNL     1      22.401   5.445  49.081  1.00  0.00     0.038 C 
HETATM   22  C17 UNL     1      22.529   5.564  47.584  1.00  0.00    -0.023 C 
HETATM   23  C18 UNL     1      22.106   4.658  46.703  1.00  0.00    -0.019 C 
HETATM   24  C19 UNL     1      21.559   3.661  47.646  1.00  0.00     0.058 C 
HETATM   25  C20 UNL     1      20.944   2.464  47.584  1.00  0.00     0.065 C 
HETATM   26  N4  UNL     1      20.711   2.094  48.966  1.00  0.00    -0.397 N 
HETATM   27  C21 UNL     1      21.390   0.909  49.511  1.00  0.00     0.170 C 
HETATM   28  H2  UNL     1      23.599   0.564  50.858  1.00  0.00     0.165 HD
HETATM   29  H9  UNL     1      24.427   3.976  54.380  1.00  0.00     0.329 HD
HETATM   30  H22 UNL     1      20.057   2.700  49.502  1.00  0.00     0.159 HD
ENDROOT
TORSDOF 0
ENDMDL
MODEL 3
REMARK VINA RESULT:      -8.4      8.319     11.765
REMARK  0 active torsions:
REMARK  status: ('A' for Active; 'I' for Inactive)
ROOT
HETATM    1  N1  UNL     1      32.706  11.568  47.284  1.00  0.00    -0.192 NA
HETATM    2  C1  UNL     1      31.943  10.805  46.811  1.00  0.00     0.098 C 
HETATM    3  C2  UNL     1      31.028   9.879  46.216  1.00  0.00     0.055 C 
HETATM    4  C3  UNL     1      30.077   9.526  47.006  1.00  0.00     0.108 C 
HETATM    5  N2  UNL     1      28.995   8.651  46.810  1.00  0.00    -0.363 N 
HETATM    6  C4  UNL     1      28.034   7.835  47.447  1.00  0.00     0.065 A 
HETATM    7  C5  UNL     1      26.762   8.173  47.210  1.00  0.00     0.005 A 
HETATM    8  C6  UNL     1      25.377   7.781  47.531  1.00  0.00     0.033 A 
HETATM    9  C7  UNL     1      25.439   6.578  48.446  1.00  0.00     0.033 A 
HETATM   10  C8  UNL     1      26.870   6.273  48.656  1.00  0.00     0.016 A 
HETATM   11  C9  UNL     1      28.100   6.678  48.328  1.00  0.00     0.193 A 
HETATM   12  N3  UNL     1      29.175   5.935  48.889  1.00  0.00     0.120 N 
HETATM   13  C10 UNL     1      30.201   5.338  48.171  1.00  0.00     0.362 A 
HETATM   14  O1  UNL     1      29.429   5.909  47.406  1.00  0.00    -0.145 OA
HETATM   15  C11 UNL     1      31.288   4.693  47.561  1.00  0.00     0.075 C 
HETATM   16  C12 UNL     1      32.376   3.969  47.701  1.00  0.00     0.007 C 
HETATM   17  C13 UNL     1      32.860   3.799  46.307  1.00  0.00     0.024 C 
HETATM   18  C14 UNL     1      34.369   3.541  46.285  1.00  0.00     0.173 C 
HETATM   19  O2  UNL     1      34.838   4.778  46.676  1.00  0.00    -0.390 OA
HETATM   20  C15 UNL     1      34.112   5.744  45.994  1.00  0.00     0.176 C 
HETATM   21  C16 UNL     1      32.832   5.068  45.485  1.00  0.00     0.038 C 
HETATM   22  C17 UNL     1      33.157   4.681  44.065  1.00  0.00    -0.023 C 
HETATM   23  C18 UNL     1      33.242   5.527  43.039  1.00  0.00    -0.019 C 
HETATM   24  C19 UNL     1      32.932   6.783  43.753  1.00  0.00     0.058 C 
HETATM   25  C20 UNL     1      32.820   8.093  43.461  1.00  0.00     0.065 C 
HETATM   26  N4  UNL     1      32.477   8.727  44.719  1.00  0.00    -0.397 N 
HETATM   27  C21 UNL     1      31.167   9.382  44.853  1.00  0.00     0.170 C 
HETATM   28  H2  UNL     1      28.857   8.606  45.785  1.00  0.00     0.165 HD
HETATM   29  H9  UNL     1      29.110   5.882  49.937  1.00  0.00     0.329 HD
HETATM   30  H22 UNL     1      33.197   8.684  45.469  1.00  0.00     0.159 HD
ENDROOT
TORSDOF 0
ENDMDL
MODEL 4
REMARK VINA RESULT:      -8.1      2.735      3.952
REMARK  0 active torsions:
REMARK  status: ('A' for Active; 'I' for Inactive)
ROOT
HETATM    1  N1  UNL     1      17.339   3.848  51.988  1.00  0.00    -0.192 NA
HETATM    2  C1  UNL     1      18.305   3.304  51.588  1.00  0.00     0.098 C 
HETATM    3  C2  UNL     1      19.467   2.642  51.080  1.00  0.00     0.055 C 
HETATM    4  C3  UNL     1      20.408   2.527  51.950  1.00  0.00     0.108 C 
HETATM    5  N2  UNL     1      21.685   1.950  51.854  1.00  0.00    -0.363 N 
HETATM    6  C4  UNL     1      22.986   1.915  52.404  1.00  0.00     0.065 A 
HETATM    7  C5  UNL     1      23.365   0.722  52.877  1.00  0.00     0.005 A 
HETATM    8  C6  UNL     1      24.497   0.037  53.528  1.00  0.00     0.033 A 
HETATM    9  C7  UNL     1      25.601   1.054  53.720  1.00  0.00     0.033 A 
HETATM   10  C8  UNL     1      25.103   2.335  53.176  1.00  0.00     0.016 A 
HETATM   11  C9  UNL     1      24.045   2.897  52.587  1.00  0.00     0.193 A 
HETATM   12  N3  UNL     1      24.159   4.281  52.281  1.00  0.00     0.120 N 
HETATM   13  C10 UNL     1      23.970   4.846  51.029  1.00  0.00     0.362 A 
HETATM   14  O1  UNL     1      23.797   3.631  50.973  1.00  0.00    -0.145 OA
HETATM   15  C11 UNL     1      23.804   5.535  49.817  1.00  0.00     0.075 C 
HETATM   16  C12 UNL     1      23.826   6.682  49.175  1.00  0.00     0.007 C 
HETATM   17  C13 UNL     1      23.472   6.305  47.782  1.00  0.00     0.024 C 
HETATM   18  C14 UNL     1      22.855   7.494  47.040  1.00  0.00     0.173 C 
HETATM   19  O2  UNL     1      21.647   7.598  47.699  1.00  0.00    -0.390 OA
HETATM   20  C15 UNL     1      21.139   6.317  47.863  1.00  0.00     0.176 C 
HETATM   21  C16 UNL     1      22.310   5.343  47.680  1.00  0.00     0.038 C 
HETATM   22  C17 UNL     1      22.216   4.916  46.238  1.00  0.00    -0.023 C 
HETATM   23  C18 UNL     1      21.306   4.078  45.743  1.00  0.00    -0.019 C 
HETATM   24  C19 UNL     1      20.563   3.788  46.986  1.00  0.00     0.058 C 
HETATM   25  C20 UNL     1      19.500   3.050  47.362  1.00  0.00     0.065 C 
HETATM   26  N4  UNL     1      19.375   3.279  48.789  1.00  0.00    -0.397 N 
HETATM   27  C21 UNL     1      19.575   2.152  49.711  1.00  0.00     0.170 C 
HETATM   28  H2  UNL     1      21.630   1.282  51.065  1.00  0.00     0.165 HD
HETATM   29  H9  UNL     1      24.410   4.851  53.129  1.00  0.00     0.329 HD
HETATM   30  H22 UNL     1      19.140   4.250  49.081  1.00  0.00     0.159 HD
ENDROOT
TORSDOF 0
ENDMDL
MODEL 5
REMARK VINA RESULT:      -7.9      7.585     10.521
REMARK  0 active torsions:
REMARK  status: ('A' for Active; 'I' for Inactive)
ROOT
HETATM    1  N1  UNL     1      30.185  10.744  43.731  1.00  0.00    -0.192 NA
HETATM    2  C1  UNL     1      30.519  10.430  44.816  1.00  0.00     0.098 C 
HETATM    3  C2  UNL     1      30.910  10.065  46.143  1.00  0.00     0.055 C 
HETATM    4  C3  UNL     1      31.754   9.095  46.176  1.00  0.00     0.108 C 
HETATM    5  N2  UNL     1      32.375   8.452  47.260  1.00  0.00    -0.363 N 
HETATM    6  C4  UNL     1      33.026   7.275  47.691  1.00  0.00     0.065 A 
HETATM    7  C5  UNL     1      34.283   7.451  48.116  1.00  0.00     0.005 A 
HETATM    8  C6  UNL     1      35.440   6.713  48.656  1.00  0.00     0.033 A 
HETATM    9  C7  UNL     1      35.050   5.255  48.756  1.00  0.00     0.033 A 
HETATM   10  C8  UNL     1      33.658   5.149  48.270  1.00  0.00     0.016 A 
HETATM   11  C9  UNL     1      32.647   5.872  47.784  1.00  0.00     0.193 A 
HETATM   12  N3  UNL     1      31.461   5.157  47.463  1.00  0.00     0.120 N 
HETATM   13  C10 UNL     1      30.193   5.443  47.947  1.00  0.00     0.362 A 
HETATM   14  O1  UNL     1      31.007   6.241  48.403  1.00  0.00    -0.145 OA
HETATM   15  C11 UNL     1      28.865   5.630  48.364  1.00  0.00     0.075 C 
HETATM   16  C12 UNL     1      27.615   5.230  48.315  1.00  0.00     0.007 C 
HETATM   17  C13 UNL     1      26.908   6.193  49.198  1.00  0.00     0.024 C 
HETATM   18  C14 UNL     1      25.430   6.298  48.813  1.00  0.00     0.173 C 
HETATM   19  O2  UNL     1      25.535   6.941  47.596  1.00  0.00    -0.390 OA
HETATM   20  C15 UNL     1      26.473   7.956  47.731  1.00  0.00     0.176 C 
HETATM   21  C16 UNL     1      27.305   7.636  48.980  1.00  0.00     0.038 C 
HETATM   22  C17 UNL     1      26.656   8.443  50.075  1.00  0.00    -0.023 C 
HETATM   23  C18 UNL     1      26.758   9.764  50.218  1.00  0.00    -0.019 C 
HETATM   24  C19 UNL     1      27.627  10.053  49.060  1.00  0.00     0.058 C 
HETATM   25  C20 UNL     1      28.193  11.131  48.483  1.00  0.00     0.065 C 
HETATM   26  N4  UNL     1      28.931  10.604  47.352  1.00  0.00    -0.397 N 
HETATM   27  C21 UNL     1      30.396  10.724  47.338  1.00  0.00     0.170 C 
HETATM   28  H2  UNL     1      32.336   9.127  48.043  1.00  0.00     0.165 HD
HETATM   29  H9  UNL     1      31.649   4.362  46.801  1.00  0.00     0.329 HD
HETATM   30  H22 UNL     1      28.365  10.166  46.596  1.00  0.00     0.159 HD
ENDROOT
TORSDOF 0
ENDMDL
MODEL 6
REMARK VINA RESULT:      -7.8      5.756      8.926
REMARK  0 active torsions:
REMARK  status: ('A' for Active; 'I' for Inactive)
ROOT
HETATM    1  N1  UNL     1      25.234   8.276  43.316  1.00  0.00    -0.192 NA
HETATM    2  C1  UNL     1      25.768   8.509  44.340  1.00  0.00     0.098 C 
HETATM    3  C2  UNL     1      26.396   8.802  45.592  1.00  0.00     0.055 C 
HETATM    4  C3  UNL     1      27.630   8.440  45.639  1.00  0.00     0.108 C 
HETATM    5  N2  UNL     1      28.581   8.547  46.667  1.00  0.00    -0.363 N 
HETATM    6  C4  UNL     1      29.796   8.039  47.180  1.00  0.00     0.065 A 
HETATM    7  C5  UNL     1      30.788   8.934  47.265  1.00  0.00     0.005 A 
HETATM    8  C6  UNL     1      32.198   9.067  47.676  1.00  0.00     0.033 A 
HETATM    9  C7  UNL     1      32.665   7.715  48.167  1.00  0.00     0.033 A 
HETATM   10  C8  UNL     1      31.517   6.793  48.039  1.00  0.00     0.016 A 
HETATM   11  C9  UNL     1      30.241   6.736  47.651  1.00  0.00     0.193 A 
HETATM   12  N3  UNL     1      29.607   5.468  47.762  1.00  0.00     0.120 N 
HETATM   13  C10 UNL     1      28.427   5.216  48.446  1.00  0.00     0.362 A 
HETATM   14  O1  UNL     1      28.715   6.407  48.529  1.00  0.00    -0.145 OA
HETATM   15  C11 UNL     1      27.245   4.834  49.101  1.00  0.00     0.075 C 
HETATM   16  C12 UNL     1      26.408   3.872  49.419  1.00  0.00     0.007 C 
HETATM   17  C13 UNL     1      25.365   4.570  50.214  1.00  0.00     0.024 C 
HETATM   18  C14 UNL     1      24.039   3.807  50.157  1.00  0.00     0.173 C 
HETATM   19  O2  UNL     1      23.686   4.021  48.840  1.00  0.00    -0.390 OA
HETATM   20  C15 UNL     1      23.935   5.354  48.543  1.00  0.00     0.176 C 
HETATM   21  C16 UNL     1      24.903   5.878  49.613  1.00  0.00     0.038 C 
HETATM   22  C17 UNL     1      24.009   6.541  50.629  1.00  0.00    -0.023 C 
HETATM   23  C18 UNL     1      23.394   7.711  50.463  1.00  0.00    -0.019 C 
HETATM   24  C19 UNL     1      23.877   8.032  49.105  1.00  0.00     0.058 C 
HETATM   25  C20 UNL     1      23.725   9.020  48.202  1.00  0.00     0.065 C 
HETATM   26  N4  UNL     1      24.540   8.619  47.071  1.00  0.00    -0.397 N 
HETATM   27  C21 UNL     1      25.703   9.441  46.704  1.00  0.00     0.170 C 
HETATM   28  H2  UNL     1      28.246   9.312  47.278  1.00  0.00     0.165 HD
HETATM   29  H9  UNL     1      30.142   4.715  47.258  1.00  0.00     0.329 HD
HETATM   30  H22 UNL     1      24.243   7.756  46.572  1.00  0.00     0.159 HD
ENDROOT
TORSDOF 0
ENDMDL
MODEL 7
REMARK VINA RESULT:      -7.6      3.830      7.168
REMARK  0 active torsions:
REMARK  status: ('A' for Active; 'I' for Inactive)
ROOT
HETATM    1  N1  UNL     1      21.869   3.591  44.851  1.00  0.00    -0.192 NA
HETATM    2  C1  UNL     1      21.866   4.314  45.782  1.00  0.00     0.098 C 
HETATM    3  C2  UNL     1      21.840   5.186  46.916  1.00  0.00     0.055 C 
HETATM    4  C3  UNL     1      22.964   5.774  47.131  1.00  0.00     0.108 C 
HETATM    5  N2  UNL     1      23.347   6.691  48.124  1.00  0.00    -0.363 N 
HETATM    6  C4  UNL     1      24.438   7.252  48.825  1.00  0.00     0.065 A 
HETATM    7  C5  UNL     1      24.576   8.575  48.685  1.00  0.00     0.005 A 
HETATM    8  C6  UNL     1      25.427   9.704  49.105  1.00  0.00     0.033 A 
HETATM    9  C7  UNL     1      26.512   9.155  50.004  1.00  0.00     0.033 A 
HETATM   10  C8  UNL     1      26.287   7.697  50.105  1.00  0.00     0.016 A 
HETATM   11  C9  UNL     1      25.480   6.717  49.690  1.00  0.00     0.193 A 
HETATM   12  N3  UNL     1      25.795   5.409  50.149  1.00  0.00     0.120 N 
HETATM   13  C10 UNL     1      24.925   4.560  50.818  1.00  0.00     0.362 A 
HETATM   14  O1  UNL     1      24.359   5.617  50.550  1.00  0.00    -0.145 OA
HETATM   15  C11 UNL     1      24.144   3.613  51.498  1.00  0.00     0.075 C 
HETATM   16  C12 UNL     1      24.065   2.423  52.051  1.00  0.00     0.007 C 
HETATM   17  C13 UNL     1      22.666   2.363  52.545  1.00  0.00     0.024 C 
HETATM   18  C14 UNL     1      22.192   0.912  52.656  1.00  0.00     0.173 C 
HETATM   19  O2  UNL     1      22.113   0.573  51.321  1.00  0.00    -0.390 OA
HETATM   20  C15 UNL     1      21.519   1.632  50.647  1.00  0.00     0.176 C 
HETATM   21  C16 UNL     1      21.639   2.864  51.554  1.00  0.00     0.038 C 
HETATM   22  C17 UNL     1      20.318   2.923  52.277  1.00  0.00    -0.023 C 
HETATM   23  C18 UNL     1      19.163   3.305  51.735  1.00  0.00    -0.019 C 
HETATM   24  C19 UNL     1      19.638   3.601  50.369  1.00  0.00     0.058 C 
HETATM   25  C20 UNL     1      19.116   4.028  49.202  1.00  0.00     0.065 C 
HETATM   26  N4  UNL     1      20.240   4.080  48.288  1.00  0.00    -0.397 N 
HETATM   27  C21 UNL     1      20.659   5.381  47.747  1.00  0.00     0.170 C 
HETATM   28  H2  UNL     1      22.468   7.123  48.458  1.00  0.00     0.165 HD
HETATM   29  H9  UNL     1      26.786   5.141  49.923  1.00  0.00     0.329 HD
HETATM   30  H22 UNL     1      20.691   3.170  48.059  1.00  0.00     0.159 HD
ENDROOT
TORSDOF 0
ENDMDL
MODEL 8
REMARK VINA RESULT:      -7.5      4.177      7.552
REMARK  0 active torsions:
REMARK  status: ('A' for Active; 'I' for Inactive)
ROOT
HETATM    1  N1  UNL     1      21.777   6.318  45.464  1.00  0.00    -0.192 NA
HETATM    2  C1  UNL     1      22.471   6.708  46.333  1.00  0.00     0.098 C 
HETATM    3  C2  UNL     1      23.294   7.182  47.403  1.00  0.00     0.055 C 
HETATM    4  C3  UNL     1      24.531   7.310  47.074  1.00  0.00     0.108 C 
HETATM    5  N2  UNL     1      25.642   7.740  47.820  1.00  0.00    -0.363 N 
HETATM    6  C4  UNL     1      27.051   7.713  47.921  1.00  0.00     0.065 A 
HETATM    7  C5  UNL     1      27.641   8.912  47.862  1.00  0.00     0.005 A 
HETATM    8  C6  UNL     1      28.968   9.556  47.901  1.00  0.00     0.033 A 
HETATM    9  C7  UNL     1      30.004   8.466  48.065  1.00  0.00     0.033 A 
HETATM   10  C8  UNL     1      29.272   7.184  48.121  1.00  0.00     0.016 A 
HETATM   11  C9  UNL     1      28.044   6.660  48.078  1.00  0.00     0.193 A 
HETATM   12  N3  UNL     1      27.961   5.245  48.182  1.00  0.00     0.120 N 
HETATM   13  C10 UNL     1      27.203   4.549  49.112  1.00  0.00     0.362 A 
HETATM   14  O1  UNL     1      27.063   5.759  49.275  1.00  0.00    -0.145 OA
HETATM   15  C11 UNL     1      26.481   3.734  49.997  1.00  0.00     0.075 C 
HETATM   16  C12 UNL     1      26.171   2.519  50.392  1.00  0.00     0.007 C 
HETATM   17  C13 UNL     1      25.232   2.752  51.520  1.00  0.00     0.024 C 
HETATM   18  C14 UNL     1      24.306   1.548  51.712  1.00  0.00     0.173 C 
HETATM   19  O2  UNL     1      23.530   1.648  50.576  1.00  0.00    -0.390 OA
HETATM   20  C15 UNL     1      23.194   2.984  50.406  1.00  0.00     0.176 C 
HETATM   21  C16 UNL     1      24.183   3.805  51.243  1.00  0.00     0.038 C 
HETATM   22  C17 UNL     1      23.455   4.055  52.539  1.00  0.00    -0.023 C 
HETATM   23  C18 UNL     1      22.447   4.912  52.700  1.00  0.00    -0.019 C 
HETATM   24  C19 UNL     1      22.363   5.427  51.318  1.00  0.00     0.058 C 
HETATM   25  C20 UNL     1      21.614   6.309  50.628  1.00  0.00     0.065 C 
HETATM   26  N4  UNL     1      22.146   6.274  49.280  1.00  0.00    -0.397 N 
HETATM   27  C21 UNL     1      22.781   7.483  48.734  1.00  0.00     0.170 C 
HETATM   28  H2  UNL     1      25.254   8.306  48.595  1.00  0.00     0.165 HD
HETATM   29  H9  UNL     1      28.553   4.763  47.458  1.00  0.00     0.329 HD
HETATM   30  H22 UNL     1      22.039   5.377  48.765  1.00  0.00     0.159 HD
ENDROOT
TORSDOF 0
ENDMDL
MODEL 9
REMARK VINA RESULT:      -7.2      3.039      4.873
REMARK  0 active torsions:
REMARK  status: ('A' for Active; 'I' for Inactive)
ROOT
HETATM    1  N1  UNL     1      17.936   2.459  49.032  1.00  0.00    -0.192 NA
HETATM    2  C1  UNL     1      19.114   2.469  48.995  1.00  0.00     0.098 C 
HETATM    3  C2  UNL     1      20.543   2.485  48.927  1.00  0.00     0.055 C 
HETATM    4  C3  UNL     1      21.108   2.269  50.062  1.00  0.00     0.108 C 
HETATM    5  N2  UNL     1      22.467   2.203  50.415  1.00  0.00    -0.363 N 
HETATM    6  C4  UNL     1      23.395   2.305  51.475  1.00  0.00     0.065 A 
HETATM    7  C5  UNL     1      24.112   1.198  51.703  1.00  0.00     0.005 A 
HETATM    8  C6  UNL     1      25.167   0.659  52.581  1.00  0.00     0.033 A 
HETATM    9  C7  UNL     1      25.559   1.749  53.553  1.00  0.00     0.033 A 
HETATM   10  C8  UNL     1      24.725   2.927  53.235  1.00  0.00     0.016 A 
HETATM   11  C9  UNL     1      23.768   3.357  52.409  1.00  0.00     0.193 A 
HETATM   12  N3  UNL     1      23.322   4.693  52.606  1.00  0.00     0.120 N 
HETATM   13  C10 UNL     1      23.294   5.683  51.635  1.00  0.00     0.362 A 
HETATM   14  O1  UNL     1      23.725   4.637  51.157  1.00  0.00    -0.145 OA
HETATM   15  C11 UNL     1      23.215   6.766  50.746  1.00  0.00     0.075 C 
HETATM   16  C12 UNL     1      22.906   8.029  50.551  1.00  0.00     0.007 C 
HETATM   17  C13 UNL     1      23.216   8.243  49.114  1.00  0.00     0.024 C 
HETATM   18  C14 UNL     1      22.386   9.399  48.548  1.00  0.00     0.173 C 
HETATM   19  O2  UNL     1      21.128   8.831  48.560  1.00  0.00    -0.390 OA
HETATM   20  C15 UNL     1      21.243   7.531  48.088  1.00  0.00     0.176 C 
HETATM   21  C16 UNL     1      22.722   7.140  48.205  1.00  0.00     0.038 C 
HETATM   22  C17 UNL     1      23.288   7.412  46.835  1.00  0.00    -0.023 C 
HETATM   23  C18 UNL     1      23.068   6.665  45.753  1.00  0.00    -0.019 C 
HETATM   24  C19 UNL     1      22.197   5.637  46.357  1.00  0.00     0.058 C 
HETATM   25  C20 UNL     1      21.535   4.534  45.958  1.00  0.00     0.065 C 
HETATM   26  N4  UNL     1      20.884   4.039  47.156  1.00  0.00    -0.397 N 
HETATM   27  C21 UNL     1      21.282   2.730  47.694  1.00  0.00     0.170 C 
HETATM   28  H2  UNL     1      22.972   1.985  49.538  1.00  0.00     0.165 HD
HETATM   29  H9  UNL     1      23.007   4.860  53.596  1.00  0.00     0.329 HD
HETATM   30  H22 UNL     1      20.151   4.651  47.569  1.00  0.00     0.159 HD
ENDROOT
TORSDOF 0
ENDMDL
