MODEL 1
REMARK VINA RESULT:      -8.0      0.000      0.000
REMARK  5 active torsions:
REMARK  status: ('A' for Active; 'I' for Inactive)
REMARK    1  A    between atoms: C4_4  and  C5_5 
REMARK    2  A    between atoms: C6_6  and  C8_9 
REMARK       I    between atoms: C8_9  and  N2_11 
REMARK    3  A    between atoms: N2_11  and  C9_12 
REMARK    4  A    between atoms: C9_12  and  C10_13 
REMARK    5  A    between atoms: C10_13  and  C11_14 
ROOT
HETATM    1  C5  UNL     1      24.500   1.034  52.642  1.00  0.00     0.039 C 
HETATM    2  C6  UNL     1      25.739   0.900  52.283  1.00  0.00     0.113 C 
HETATM    3  C7  UNL     1      26.587  -0.238  52.573  1.00  0.00     0.105 C 
HETATM    4  N1  UNL     1      27.290  -1.149  52.798  1.00  0.00    -0.191 NA
ENDROOT
BRANCH   2   5
HETATM    5  C8  UNL     1      26.408   1.944  51.515  1.00  0.00     0.262 C 
HETATM    6  O1  UNL     1      27.551   2.387  51.837  1.00  0.00    -0.267 OA
HETATM    7  N2  UNL     1      25.963   2.627  50.348  1.00  0.00    -0.356 N 
HETATM    8  H6  UNL     1      25.012   2.340  49.984  1.00  0.00     0.162 HD
BRANCH   7   9
HETATM    9  C9  UNL     1      26.729   3.642  49.688  1.00  0.00     0.127 C 
BRANCH   9  10
HETATM   10  C10 UNL     1      25.989   4.884  49.335  1.00  0.00     0.058 C 
BRANCH  10  11
HETATM   11  C11 UNL     1      26.969   5.771  48.609  1.00  0.00    -0.057 A 
HETATM   12  C12 UNL     1      28.299   5.405  48.420  1.00  0.00     0.007 A 
HETATM   13  C13 UNL     1      29.174   6.242  47.748  1.00  0.00     0.001 A 
HETATM   14  C14 UNL     1      28.713   7.447  47.265  1.00  0.00     0.000 A 
HETATM   15  C15 UNL     1      27.403   7.819  47.443  1.00  0.00     0.001 A 
HETATM   16  C16 UNL     1      26.534   6.987  48.112  1.00  0.00     0.007 A 
ENDBRANCH  10  11
ENDBRANCH   9  10
ENDBRANCH   7   9
ENDBRANCH   2   5
BRANCH   1  17
HETATM   17  C4  UNL     1      23.633   0.146  53.397  1.00  0.00    -0.038 A 
HETATM   18  C3  UNL     1      22.249  -0.136  53.137  1.00  0.00     0.013 A 
HETATM   19  C2  UNL     1      21.699  -0.978  53.974  1.00  0.00    -0.080 A 
HETATM   20  C1  UNL     1      20.357  -1.591  54.161  1.00  0.00     0.043 C 
HETATM   21  C18 UNL     1      22.775  -1.342  54.927  1.00  0.00     0.061 A 
HETATM   22  C17 UNL     1      23.954  -0.584  54.480  1.00  0.00    -0.011 A 
ENDBRANCH   1  17
TORSDOF 5
ENDMDL
MODEL 2
REMARK VINA RESULT:      -7.9      1.934      8.553
REMARK  5 active torsions:
REMARK  status: ('A' for Active; 'I' for Inactive)
REMARK    1  A    between atoms: C4_4  and  C5_5 
REMARK    2  A    between atoms: C6_6  and  C8_9 
REMARK       I    between atoms: C8_9  and  N2_11 
REMARK    3  A    between atoms: N2_11  and  C9_12 
REMARK    4  A    between atoms: C9_12  and  C10_13 
REMARK    5  A    between atoms: C10_13  and  C11_14 
ROOT
HETATM    1  C5  UNL     1      25.172   4.478  49.577  1.00  0.00     0.039 C 
HETATM    2  C6  UNL     1      25.111   3.522  50.451  1.00  0.00     0.113 C 
HETATM    3  C7  UNL     1      26.242   2.902  51.110  1.00  0.00     0.105 C 
HETATM    4  N1  UNL     1      27.145   2.388  51.653  1.00  0.00    -0.191 NA
ENDROOT
BRANCH   2   5
HETATM    5  C8  UNL     1      23.825   2.967  50.858  1.00  0.00     0.262 C 
HETATM    6  O1  UNL     1      23.464   2.929  52.072  1.00  0.00    -0.267 OA
HETATM    7  N2  UNL     1      22.795   2.400  50.054  1.00  0.00    -0.356 N 
HETATM    8  H6  UNL     1      22.987   2.375  49.014  1.00  0.00     0.162 HD
BRANCH   7   9
HETATM    9  C9  UNL     1      21.569   1.887  50.590  1.00  0.00     0.127 C 
BRANCH   9  10
HETATM   10  C10 UNL     1      21.483   0.406  50.704  1.00  0.00     0.058 C 
BRANCH  10  11
HETATM   11  C11 UNL     1      21.554   0.088  52.176  1.00  0.00    -0.057 A 
HETATM   12  C12 UNL     1      22.605  -0.641  52.726  1.00  0.00     0.007 A 
HETATM   13  C13 UNL     1      22.642  -0.916  54.083  1.00  0.00     0.001 A 
HETATM   14  C14 UNL     1      21.622  -0.459  54.887  1.00  0.00     0.000 A 
HETATM   15  C15 UNL     1      20.580   0.262  54.358  1.00  0.00     0.001 A 
HETATM   16  C16 UNL     1      20.544   0.534  53.010  1.00  0.00     0.007 A 
ENDBRANCH  10  11
ENDBRANCH   9  10
ENDBRANCH   7   9
ENDBRANCH   2   5
BRANCH   1  17
HETATM   17  C4  UNL     1      26.315   5.182  49.024  1.00  0.00    -0.038 A 
HETATM   18  C3  UNL     1      27.632   4.651  48.803  1.00  0.00     0.013 A 
HETATM   19  C2  UNL     1      28.483   5.502  48.290  1.00  0.00    -0.080 A 
HETATM   20  C1  UNL     1      29.912   5.482  47.877  1.00  0.00     0.043 C 
HETATM   21  C18 UNL     1      27.721   6.763  48.121  1.00  0.00     0.061 A 
HETATM   22  C17 UNL     1      26.368   6.461  48.611  1.00  0.00    -0.011 A 
ENDBRANCH   1  17
TORSDOF 5
ENDMDL
MODEL 3
REMARK VINA RESULT:      -7.8      3.422      7.425
REMARK  5 active torsions:
REMARK  status: ('A' for Active; 'I' for Inactive)
REMARK    1  A    between atoms: C4_4  and  C5_5 
REMARK    2  A    between atoms: C6_6  and  C8_9 
REMARK       I    between atoms: C8_9  and  N2_11 
REMARK    3  A    between atoms: N2_11  and  C9_12 
REMARK    4  A    between atoms: C9_12  and  C10_13 
REMARK    5  A    between atoms: C10_13  and  C11_14 
ROOT
HETATM    1  C5  UNL     1      25.856   1.390  52.894  1.00  0.00     0.039 C 
HETATM    2  C6  UNL     1      25.404   2.105  51.911  1.00  0.00     0.113 C 
HETATM    3  C7  UNL     1      26.209   2.794  50.924  1.00  0.00     0.105 C 
HETATM    4  N1  UNL     1      26.844   3.358  50.116  1.00  0.00    -0.191 NA
ENDROOT
BRANCH   2   5
HETATM    5  C8  UNL     1      23.969   2.278  51.715  1.00  0.00     0.262 C 
HETATM    6  O1  UNL     1      23.267   2.998  52.486  1.00  0.00    -0.267 OA
HETATM    7  N2  UNL     1      23.126   1.725  50.709  1.00  0.00    -0.356 N 
HETATM    8  H6  UNL     1      23.605   1.099  50.003  1.00  0.00     0.162 HD
BRANCH   7   9
HETATM    9  C9  UNL     1      21.718   1.981  50.632  1.00  0.00     0.127 C 
BRANCH   9  10
HETATM   10  C10 UNL     1      20.835   0.801  50.841  1.00  0.00     0.058 C 
BRANCH  10  11
HETATM   11  C11 UNL     1      21.126   0.293  52.230  1.00  0.00    -0.057 A 
HETATM   12  C12 UNL     1      22.005  -0.762  52.463  1.00  0.00     0.007 A 
HETATM   13  C13 UNL     1      22.252  -1.205  53.751  1.00  0.00     0.001 A 
HETATM   14  C14 UNL     1      21.616  -0.590  54.806  1.00  0.00     0.000 A 
HETATM   15  C15 UNL     1      20.749   0.452  54.591  1.00  0.00     0.001 A 
HETATM   16  C16 UNL     1      20.503   0.892  53.311  1.00  0.00     0.007 A 
ENDBRANCH  10  11
ENDBRANCH   9  10
ENDBRANCH   7   9
ENDBRANCH   2   5
BRANCH   1  17
HETATM   17  C4  UNL     1      27.218   1.076  53.287  1.00  0.00    -0.038 A 
HETATM   18  C3  UNL     1      27.872  -0.199  53.194  1.00  0.00     0.013 A 
HETATM   19  C2  UNL     1      29.109  -0.209  53.619  1.00  0.00    -0.080 A 
HETATM   20  C1  UNL     1      30.199  -1.213  53.744  1.00  0.00     0.043 C 
HETATM   21  C18 UNL     1      29.382   1.181  54.060  1.00  0.00     0.061 A 
HETATM   22  C17 UNL     1      28.132   1.914  53.811  1.00  0.00    -0.011 A 
ENDBRANCH   1  17
TORSDOF 5
ENDMDL
MODEL 4
REMARK VINA RESULT:      -7.8      2.261      8.348
REMARK  5 active torsions:
REMARK  status: ('A' for Active; 'I' for Inactive)
REMARK    1  A    between atoms: C4_4  and  C5_5 
REMARK    2  A    between atoms: C6_6  and  C8_9 
REMARK       I    between atoms: C8_9  and  N2_11 
REMARK    3  A    between atoms: N2_11  and  C9_12 
REMARK    4  A    between atoms: C9_12  and  C10_13 
REMARK    5  A    between atoms: C10_13  and  C11_14 
ROOT
HETATM    1  C5  UNL     1      26.212   3.935  49.606  1.00  0.00     0.039 C 
HETATM    2  C6  UNL     1      25.208   3.869  50.424  1.00  0.00     0.113 C 
HETATM    3  C7  UNL     1      24.414   4.989  50.886  1.00  0.00     0.105 C 
HETATM    4  N1  UNL     1      23.761   5.884  51.271  1.00  0.00    -0.191 NA
ENDROOT
BRANCH   2   5
HETATM    5  C8  UNL     1      24.777   2.587  50.971  1.00  0.00     0.262 C 
HETATM    6  O1  UNL     1      23.641   2.091  50.707  1.00  0.00    -0.267 OA
HETATM    7  N2  UNL     1      25.475   1.700  51.838  1.00  0.00    -0.356 N 
HETATM    8  H6  UNL     1      26.443   2.012  52.131  1.00  0.00     0.162 HD
BRANCH   7   9
HETATM    9  C9  UNL     1      24.928   0.459  52.303  1.00  0.00     0.127 C 
BRANCH   9  10
HETATM   10  C10 UNL     1      25.237   0.105  53.715  1.00  0.00     0.058 C 
BRANCH  10  11
HETATM   11  C11 UNL     1      26.702  -0.249  53.754  1.00  0.00    -0.057 A 
HETATM   12  C12 UNL     1      27.605   0.425  54.572  1.00  0.00     0.007 A 
HETATM   13  C13 UNL     1      28.945   0.075  54.586  1.00  0.00     0.001 A 
HETATM   14  C14 UNL     1      29.378  -0.951  53.777  1.00  0.00     0.000 A 
HETATM   15  C15 UNL     1      28.498  -1.625  52.966  1.00  0.00     0.001 A 
HETATM   16  C16 UNL     1      27.167  -1.277  52.953  1.00  0.00     0.007 A 
ENDBRANCH  10  11
ENDBRANCH   9  10
ENDBRANCH   7   9
ENDBRANCH   2   5
BRANCH   1  17
HETATM   17  C4  UNL     1      26.815   5.077  48.941  1.00  0.00    -0.038 A 
HETATM   18  C3  UNL     1      28.184   5.211  48.528  1.00  0.00     0.013 A 
HETATM   19  C2  UNL     1      28.468   6.349  47.946  1.00  0.00    -0.080 A 
HETATM   20  C1  UNL     1      29.674   6.984  47.351  1.00  0.00     0.043 C 
HETATM   21  C18 UNL     1      27.195   7.110  47.934  1.00  0.00     0.061 A 
HETATM   22  C17 UNL     1      26.214   6.226  48.581  1.00  0.00    -0.011 A 
ENDBRANCH   1  17
TORSDOF 5
ENDMDL
MODEL 5
REMARK VINA RESULT:      -7.8      5.031      8.715
REMARK  5 active torsions:
REMARK  status: ('A' for Active; 'I' for Inactive)
REMARK    1  A    between atoms: C4_4  and  C5_5 
REMARK    2  A    between atoms: C6_6  and  C8_9 
REMARK       I    between atoms: C8_9  and  N2_11 
REMARK    3  A    between atoms: N2_11  and  C9_12 
REMARK    4  A    between atoms: C9_12  and  C10_13 
REMARK    5  A    between atoms: C10_13  and  C11_14 
ROOT
HETATM    1  C5  UNL     1      25.020  -0.399  53.284  1.00  0.00     0.039 C 
HETATM    2  C6  UNL     1      24.137   0.507  53.000  1.00  0.00     0.113 C 
HETATM    3  C7  UNL     1      24.332   1.939  53.092  1.00  0.00     0.105 C 
HETATM    4  N1  UNL     1      24.471   3.102  53.160  1.00  0.00    -0.191 NA
ENDROOT
BRANCH   2   5
HETATM    5  C8  UNL     1      22.805   0.130  52.539  1.00  0.00     0.262 C 
HETATM    6  O1  UNL     1      22.212  -0.903  52.973  1.00  0.00    -0.267 OA
HETATM    7  N2  UNL     1      21.964   0.780  51.592  1.00  0.00    -0.356 N 
HETATM    8  H6  UNL     1      22.358   1.661  51.158  1.00  0.00     0.162 HD
BRANCH   7   9
HETATM    9  C9  UNL     1      20.664   0.296  51.229  1.00  0.00     0.127 C 
BRANCH   9  10
HETATM   10  C10 UNL     1      19.514   1.009  51.847  1.00  0.00     0.058 C 
BRANCH  10  11
HETATM   11  C11 UNL     1      18.482  -0.043  52.164  1.00  0.00    -0.057 A 
HETATM   12  C12 UNL     1      18.696  -1.021  53.131  1.00  0.00     0.007 A 
HETATM   13  C13 UNL     1      17.728  -1.974  53.401  1.00  0.00     0.001 A 
HETATM   14  C14 UNL     1      16.544  -1.945  52.697  1.00  0.00     0.000 A 
HETATM   15  C15 UNL     1      16.320  -0.985  51.742  1.00  0.00     0.001 A 
HETATM   16  C16 UNL     1      17.282  -0.039  51.474  1.00  0.00     0.007 A 
ENDBRANCH  10  11
ENDBRANCH   9  10
ENDBRANCH   7   9
ENDBRANCH   2   5
BRANCH   1  17
HETATM   17  C4  UNL     1      26.389  -0.272  53.751  1.00  0.00    -0.038 A 
HETATM   18  C3  UNL     1      27.580  -0.673  53.056  1.00  0.00     0.013 A 
HETATM   19  C2  UNL     1      28.692  -0.444  53.705  1.00  0.00    -0.080 A 
HETATM   20  C1  UNL     1      30.145  -0.652  53.462  1.00  0.00     0.043 C 
HETATM   21  C18 UNL     1      28.277   0.180  54.985  1.00  0.00     0.061 A 
HETATM   22  C17 UNL     1      26.809   0.246  54.920  1.00  0.00    -0.011 A 
ENDBRANCH   1  17
TORSDOF 5
ENDMDL
MODEL 6
REMARK VINA RESULT:      -7.7      5.351      9.983
REMARK  5 active torsions:
REMARK  status: ('A' for Active; 'I' for Inactive)
REMARK    1  A    between atoms: C4_4  and  C5_5 
REMARK    2  A    between atoms: C6_6  and  C8_9 
REMARK       I    between atoms: C8_9  and  N2_11 
REMARK    3  A    between atoms: N2_11  and  C9_12 
REMARK    4  A    between atoms: C9_12  and  C10_13 
REMARK    5  A    between atoms: C10_13  and  C11_14 
ROOT
HETATM    1  C5  UNL     1      23.987  -0.478  53.963  1.00  0.00     0.039 C 
HETATM    2  C6  UNL     1      23.007   0.285  53.591  1.00  0.00     0.113 C 
HETATM    3  C7  UNL     1      23.127   1.502  52.815  1.00  0.00     0.105 C 
HETATM    4  N1  UNL     1      23.204   2.490  52.188  1.00  0.00    -0.191 NA
ENDROOT
BRANCH   2   5
HETATM    5  C8  UNL     1      21.631  -0.045  53.945  1.00  0.00     0.262 C 
HETATM    6  O1  UNL     1      21.167   0.166  55.106  1.00  0.00    -0.267 OA
HETATM    7  N2  UNL     1      20.609  -0.623  53.139  1.00  0.00    -0.356 N 
HETATM    8  H6  UNL     1      20.883  -0.846  52.142  1.00  0.00     0.162 HD
BRANCH   7   9
HETATM    9  C9  UNL     1      19.287  -0.896  53.620  1.00  0.00     0.127 C 
BRANCH   9  10
HETATM   10  C10 UNL     1      18.188  -0.705  52.634  1.00  0.00     0.058 C 
BRANCH  10  11
HETATM   11  C11 UNL     1      17.271  -1.891  52.785  1.00  0.00    -0.057 A 
HETATM   12  C12 UNL     1      16.017  -1.939  52.181  1.00  0.00     0.007 A 
HETATM   13  C13 UNL     1      15.198  -3.045  52.338  1.00  0.00     0.001 A 
HETATM   14  C14 UNL     1      15.637  -4.103  53.102  1.00  0.00     0.000 A 
HETATM   15  C15 UNL     1      16.873  -4.069  53.702  1.00  0.00     0.001 A 
HETATM   16  C16 UNL     1      17.686  -2.971  53.546  1.00  0.00     0.007 A 
ENDBRANCH  10  11
ENDBRANCH   9  10
ENDBRANCH   7   9
ENDBRANCH   2   5
BRANCH   1  17
HETATM   17  C4  UNL     1      25.416  -0.359  53.734  1.00  0.00    -0.038 A 
HETATM   18  C3  UNL     1      26.394   0.180  54.638  1.00  0.00     0.013 A 
HETATM   19  C2  UNL     1      27.621   0.169  54.182  1.00  0.00    -0.080 A 
HETATM   20  C1  UNL     1      28.959   0.586  54.679  1.00  0.00     0.043 C 
HETATM   21  C18 UNL     1      27.530  -0.430  52.829  1.00  0.00     0.061 A 
HETATM   22  C17 UNL     1      26.103  -0.729  52.637  1.00  0.00    -0.011 A 
ENDBRANCH   1  17
TORSDOF 5
ENDMDL
MODEL 7
REMARK VINA RESULT:      -7.6      2.897      7.657
REMARK  5 active torsions:
REMARK  status: ('A' for Active; 'I' for Inactive)
REMARK    1  A    between atoms: C4_4  and  C5_5 
REMARK    2  A    between atoms: C6_6  and  C8_9 
REMARK       I    between atoms: C8_9  and  N2_11 
REMARK    3  A    between atoms: N2_11  and  C9_12 
REMARK    4  A    between atoms: C9_12  and  C10_13 
REMARK    5  A    between atoms: C10_13  and  C11_14 
ROOT
HETATM    1  C5  UNL     1      24.405   3.808  49.853  1.00  0.00     0.039 C 
HETATM    2  C6  UNL     1      25.660   3.573  50.082  1.00  0.00     0.113 C 
HETATM    3  C7  UNL     1      26.775   4.113  49.331  1.00  0.00     0.105 C 
HETATM    4  N1  UNL     1      27.690   4.540  48.736  1.00  0.00    -0.191 NA
ENDROOT
BRANCH   2   5
HETATM    5  C8  UNL     1      26.065   2.698  51.177  1.00  0.00     0.262 C 
HETATM    6  O1  UNL     1      27.283   2.522  51.480  1.00  0.00    -0.267 OA
HETATM    7  N2  UNL     1      25.255   1.926  52.057  1.00  0.00    -0.356 N 
HETATM    8  H6  UNL     1      24.212   1.992  51.897  1.00  0.00     0.162 HD
BRANCH   7   9
HETATM    9  C9  UNL     1      25.790   1.101  53.100  1.00  0.00     0.127 C 
BRANCH   9  10
HETATM   10  C10 UNL     1      25.740  -0.366  52.854  1.00  0.00     0.058 C 
BRANCH  10  11
HETATM   11  C11 UNL     1      27.139  -0.881  53.074  1.00  0.00    -0.057 A 
HETATM   12  C12 UNL     1      28.161  -0.068  53.556  1.00  0.00     0.007 A 
HETATM   13  C13 UNL     1      29.436  -0.572  53.749  1.00  0.00     0.001 A 
HETATM   14  C14 UNL     1      29.686  -1.894  53.455  1.00  0.00     0.000 A 
HETATM   15  C15 UNL     1      28.687  -2.708  52.980  1.00  0.00     0.001 A 
HETATM   16  C16 UNL     1      27.420  -2.207  52.789  1.00  0.00     0.007 A 
ENDBRANCH  10  11
ENDBRANCH   9  10
ENDBRANCH   7   9
ENDBRANCH   2   5
BRANCH   1  17
HETATM   17  C4  UNL     1      23.768   4.630  48.840  1.00  0.00    -0.038 A 
HETATM   18  C3  UNL     1      22.800   4.206  47.866  1.00  0.00     0.013 A 
HETATM   19  C2  UNL     1      22.382   5.153  47.066  1.00  0.00    -0.080 A 
HETATM   20  C1  UNL     1      21.429   5.263  45.930  1.00  0.00     0.043 C 
HETATM   21  C18 UNL     1      23.108   6.374  47.493  1.00  0.00     0.061 A 
HETATM   22  C17 UNL     1      23.955   5.943  48.615  1.00  0.00    -0.011 A 
ENDBRANCH   1  17
TORSDOF 5
ENDMDL
MODEL 8
REMARK VINA RESULT:      -7.6      5.594      8.740
REMARK  5 active torsions:
REMARK  status: ('A' for Active; 'I' for Inactive)
REMARK    1  A    between atoms: C4_4  and  C5_5 
REMARK    2  A    between atoms: C6_6  and  C8_9 
REMARK       I    between atoms: C8_9  and  N2_11 
REMARK    3  A    between atoms: N2_11  and  C9_12 
REMARK    4  A    between atoms: C9_12  and  C10_13 
REMARK    5  A    between atoms: C10_13  and  C11_14 
ROOT
HETATM    1  C5  UNL     1      24.024   0.375  53.013  1.00  0.00     0.039 C 
HETATM    2  C6  UNL     1      22.957  -0.033  53.625  1.00  0.00     0.113 C 
HETATM    3  C7  UNL     1      22.918  -0.970  54.729  1.00  0.00     0.105 C 
HETATM    4  N1  UNL     1      22.866  -1.727  55.623  1.00  0.00    -0.191 NA
ENDROOT
BRANCH   2   5
HETATM    5  C8  UNL     1      21.640   0.450  53.226  1.00  0.00     0.262 C 
HETATM    6  O1  UNL     1      20.687   0.567  54.054  1.00  0.00    -0.267 OA
HETATM    7  N2  UNL     1      21.183   0.855  51.939  1.00  0.00    -0.356 N 
HETATM    8  H6  UNL     1      21.897   0.797  51.161  1.00  0.00     0.162 HD
BRANCH   7   9
HETATM    9  C9  UNL     1      19.849   1.313  51.685  1.00  0.00     0.127 C 
BRANCH   9  10
HETATM   10  C10 UNL     1      19.194   0.754  50.471  1.00  0.00     0.058 C 
BRANCH  10  11
HETATM   11  C11 UNL     1      17.999  -0.027  50.954  1.00  0.00    -0.057 A 
HETATM   12  C12 UNL     1      17.936  -0.565  52.236  1.00  0.00     0.007 A 
HETATM   13  C13 UNL     1      16.823  -1.277  52.651  1.00  0.00     0.001 A 
HETATM   14  C14 UNL     1      15.773  -1.450  51.776  1.00  0.00     0.000 A 
HETATM   15  C15 UNL     1      15.822  -0.923  50.509  1.00  0.00     0.001 A 
HETATM   16  C16 UNL     1      16.928  -0.216  50.098  1.00  0.00     0.007 A 
ENDBRANCH  10  11
ENDBRANCH   9  10
ENDBRANCH   7   9
ENDBRANCH   2   5
BRANCH   1  17
HETATM   17  C4  UNL     1      25.422   0.043  53.228  1.00  0.00    -0.038 A 
HETATM   18  C3  UNL     1      26.352   0.730  54.081  1.00  0.00     0.013 A 
HETATM   19  C2  UNL     1      27.557   0.221  54.092  1.00  0.00    -0.080 A 
HETATM   20  C1  UNL     1      28.848   0.523  54.767  1.00  0.00     0.043 C 
HETATM   21  C18 UNL     1      27.502  -0.937  53.168  1.00  0.00     0.061 A 
HETATM   22  C17 UNL     1      26.117  -0.968  52.674  1.00  0.00    -0.011 A 
ENDBRANCH   1  17
TORSDOF 5
ENDMDL
MODEL 9
REMARK VINA RESULT:      -7.6      1.787      9.322
REMARK  5 active torsions:
REMARK  status: ('A' for Active; 'I' for Inactive)
REMARK    1  A    between atoms: C4_4  and  C5_5 
REMARK    2  A    between atoms: C6_6  and  C8_9 
REMARK       I    between atoms: C8_9  and  N2_11 
REMARK    3  A    between atoms: N2_11  and  C9_12 
REMARK    4  A    between atoms: C9_12  and  C10_13 
REMARK    5  A    between atoms: C10_13  and  C11_14 
ROOT
HETATM    1  C5  UNL     1      26.804   4.656  48.907  1.00  0.00     0.039 C 
HETATM    2  C6  UNL     1      25.768   4.801  49.673  1.00  0.00     0.113 C 
HETATM    3  C7  UNL     1      25.285   6.053  50.219  1.00  0.00     0.105 C 
HETATM    4  N1  UNL     1      24.879   7.056  50.670  1.00  0.00    -0.191 NA
ENDROOT
BRANCH   2   5
HETATM    5  C8  UNL     1      24.965   3.648  50.064  1.00  0.00     0.262 C 
HETATM    6  O1  UNL     1      24.145   3.099  49.268  1.00  0.00    -0.267 OA
HETATM    7  N2  UNL     1      24.932   2.955  51.307  1.00  0.00    -0.356 N 
HETATM    8  H6  UNL     1      25.579   3.327  52.056  1.00  0.00     0.162 HD
BRANCH   7   9
HETATM    9  C9  UNL     1      24.086   1.825  51.558  1.00  0.00     0.127 C 
BRANCH   9  10
HETATM   10  C10 UNL     1      24.621   0.817  52.513  1.00  0.00     0.058 C 
BRANCH  10  11
HETATM   11  C11 UNL     1      23.440   0.307  53.298  1.00  0.00    -0.057 A 
HETATM   12  C12 UNL     1      22.181   0.897  53.210  1.00  0.00     0.007 A 
HETATM   13  C13 UNL     1      21.115   0.404  53.944  1.00  0.00     0.001 A 
HETATM   14  C14 UNL     1      21.313  -0.682  54.767  1.00  0.00     0.000 A 
HETATM   15  C15 UNL     1      22.548  -1.275  54.862  1.00  0.00     0.001 A 
HETATM   16  C16 UNL     1      23.607  -0.784  54.133  1.00  0.00     0.007 A 
ENDBRANCH  10  11
ENDBRANCH   9  10
ENDBRANCH   7   9
ENDBRANCH   2   5
BRANCH   1  17
HETATM   17  C4  UNL     1      27.742   5.638  48.391  1.00  0.00    -0.038 A 
HETATM   18  C3  UNL     1      29.167   5.494  48.278  1.00  0.00     0.013 A 
HETATM   19  C2  UNL     1      29.781   6.535  47.776  1.00  0.00    -0.080 A 
HETATM   20  C1  UNL     1      31.184   6.908  47.453  1.00  0.00     0.043 C 
HETATM   21  C18 UNL     1      28.710   7.524  47.499  1.00  0.00     0.061 A 
HETATM   22  C17 UNL     1      27.464   6.867  47.920  1.00  0.00    -0.011 A 
ENDBRANCH   1  17
TORSDOF 5
ENDMDL
