MODEL 1
REMARK VINA RESULT:      -8.2      0.000      0.000
REMARK  5 active torsions:
REMARK  status: ('A' for Active; 'I' for Inactive)
REMARK    1  A    between atoms: O1_2  and  C2_3 
REMARK    2  A    between atoms: C8_9  and  N1_10 
REMARK    3  A    between atoms: N1_10  and  C9_11 
REMARK    4  A    between atoms: C13_16  and  N3_17 
REMARK    5  A    between atoms: N3_17  and  C14_18 
ROOT
HETATM    1  C9  UNL     1      23.284   2.343  51.665  1.00  0.00     0.019 C 
HETATM    2  C10 UNL     1      22.508   3.415  51.410  1.00  0.00     0.020 C 
HETATM    3  C11 UNL     1      23.192   4.723  51.744  1.00  0.00     0.178 C 
HETATM    4  N2  UNL     1      23.702   4.604  53.110  1.00  0.00    -0.292 NA
HETATM    5  C12 UNL     1      24.375   3.527  53.397  1.00  0.00     0.043 A 
HETATM    6  C13 UNL     1      25.096   2.276  53.545  1.00  0.00     0.145 A 
HETATM    7  C20 UNL     1      24.630   2.580  52.189  1.00  0.00     0.113 A 
ENDROOT
BRANCH   1   8
HETATM    8  N1  UNL     1      22.785   1.039  51.406  1.00  0.00    -0.356 N 
HETATM    9  H10 UNL     1      23.180   0.198  50.957  1.00  0.00     0.166 HD
BRANCH   8  10
HETATM   10  C8  UNL     1      21.453   0.623  51.784  1.00  0.00     0.072 A 
HETATM   11  C2  UNL     1      21.076   0.208  53.070  1.00  0.00     0.095 A 
HETATM   12  C3  UNL     1      19.766  -0.148  53.251  1.00  0.00     0.039 A 
HETATM   13  C4  UNL     1      18.827  -0.119  52.251  1.00  0.00     0.003 A 
HETATM   14  C5  UNL     1      19.207   0.291  50.985  1.00  0.00     0.009 A 
HETATM   15  C6  UNL     1      20.530   0.665  50.751  1.00  0.00    -0.033 A 
HETATM   16  C7  UNL     1      20.743   1.080  49.350  1.00  0.00     0.050 C 
BRANCH  11  17
HETATM   17  O1  UNL     1      22.165   0.256  53.908  1.00  0.00    -0.354 OA
HETATM   18  C1  UNL     1      22.553  -0.886  54.627  1.00  0.00     0.210 C 
ENDBRANCH  11  17
ENDBRANCH   8  10
ENDBRANCH   1   8
BRANCH   6  19
HETATM   19  N3  UNL     1      26.537   2.382  53.743  1.00  0.00    -0.379 N 
HETATM   20  H15 UNL     1      26.849   3.369  53.980  1.00  0.00     0.160 HD
BRANCH  19  21
HETATM   21  C14 UNL     1      27.487   1.345  53.648  1.00  0.00     0.030 A 
HETATM   22  C15 UNL     1      28.814   1.590  53.945  1.00  0.00     0.029 A 
HETATM   23  C16 UNL     1      29.746   0.577  53.854  1.00  0.00     0.004 A 
HETATM   24  C17 UNL     1      29.336  -0.700  53.459  1.00  0.00     0.024 A 
HETATM   25  C18 UNL     1      28.003  -0.939  53.162  1.00  0.00     0.036 A 
HETATM   26 CL1  UNL     1      27.556  -2.541  52.678  1.00  0.00    -0.084 Cl
HETATM   27  C19 UNL     1      27.109   0.088  53.264  1.00  0.00     0.052 A 
ENDBRANCH  19  21
ENDBRANCH   6  19
TORSDOF 5
ENDMDL
MODEL 2
REMARK VINA RESULT:      -8.1      1.131      2.187
REMARK  5 active torsions:
REMARK  status: ('A' for Active; 'I' for Inactive)
REMARK    1  A    between atoms: O1_2  and  C2_3 
REMARK    2  A    between atoms: C8_9  and  N1_10 
REMARK    3  A    between atoms: N1_10  and  C9_11 
REMARK    4  A    between atoms: C13_16  and  N3_17 
REMARK    5  A    between atoms: N3_17  and  C14_18 
ROOT
HETATM    1  C9  UNL     1      22.929   2.303  51.302  1.00  0.00     0.019 C 
HETATM    2  C10 UNL     1      22.113   3.352  51.082  1.00  0.00     0.020 C 
HETATM    3  C11 UNL     1      22.777   4.681  51.370  1.00  0.00     0.178 C 
HETATM    4  N2  UNL     1      23.361   4.585  52.708  1.00  0.00    -0.292 NA
HETATM    5  C12 UNL     1      24.078   3.529  52.966  1.00  0.00     0.043 A 
HETATM    6  C13 UNL     1      24.839   2.299  53.084  1.00  0.00     0.145 A 
HETATM    7  C20 UNL     1      24.294   2.580  51.752  1.00  0.00     0.113 A 
ENDROOT
BRANCH   1   8
HETATM    8  N1  UNL     1      22.453   0.984  51.078  1.00  0.00    -0.356 N 
HETATM    9  H10 UNL     1      22.748   0.213  50.459  1.00  0.00     0.166 HD
BRANCH   8  10
HETATM   10  C8  UNL     1      21.318   0.433  51.783  1.00  0.00     0.072 A 
HETATM   11  C2  UNL     1      19.988   0.506  51.346  1.00  0.00     0.095 A 
HETATM   12  C3  UNL     1      19.037  -0.077  52.141  1.00  0.00     0.039 A 
HETATM   13  C4  UNL     1      19.323  -0.715  53.322  1.00  0.00     0.003 A 
HETATM   14  C5  UNL     1      20.638  -0.783  53.746  1.00  0.00     0.009 A 
HETATM   15  C6  UNL     1      21.643  -0.205  52.970  1.00  0.00    -0.033 A 
HETATM   16  C7  UNL     1      22.977  -0.386  53.577  1.00  0.00     0.050 C 
BRANCH  11  17
HETATM   17  O1  UNL     1      19.931   1.183  50.150  1.00  0.00    -0.354 OA
HETATM   18  C1  UNL     1      18.712   1.705  49.692  1.00  0.00     0.210 C 
ENDBRANCH  11  17
ENDBRANCH   8  10
ENDBRANCH   1   8
BRANCH   6  19
HETATM   19  N3  UNL     1      26.286   2.445  53.205  1.00  0.00    -0.379 N 
HETATM   20  H15 UNL     1      26.598   3.461  53.210  1.00  0.00     0.160 HD
BRANCH  19  21
HETATM   21  C14 UNL     1      27.239   1.412  53.306  1.00  0.00     0.030 A 
HETATM   22  C15 UNL     1      28.515   1.688  53.758  1.00  0.00     0.029 A 
HETATM   23  C16 UNL     1      29.451   0.679  53.859  1.00  0.00     0.004 A 
HETATM   24  C17 UNL     1      29.097  -0.624  53.499  1.00  0.00     0.024 A 
HETATM   25  C18 UNL     1      27.814  -0.894  53.046  1.00  0.00     0.036 A 
HETATM   26 CL1  UNL     1      27.435  -2.528  52.615  1.00  0.00    -0.084 Cl
HETATM   27  C19 UNL     1      26.915   0.130  52.960  1.00  0.00     0.052 A 
ENDBRANCH  19  21
ENDBRANCH   6  19
TORSDOF 5
ENDMDL
MODEL 3
REMARK VINA RESULT:      -7.9      2.815      5.383
REMARK  5 active torsions:
REMARK  status: ('A' for Active; 'I' for Inactive)
REMARK    1  A    between atoms: O1_2  and  C2_3 
REMARK    2  A    between atoms: C8_9  and  N1_10 
REMARK    3  A    between atoms: N1_10  and  C9_11 
REMARK    4  A    between atoms: C13_16  and  N3_17 
REMARK    5  A    between atoms: N3_17  and  C14_18 
ROOT
HETATM    1  C9  UNL     1      25.483   0.199  53.355  1.00  0.00     0.019 C 
HETATM    2  C10 UNL     1      26.289  -0.394  54.257  1.00  0.00     0.020 C 
HETATM    3  C11 UNL     1      27.468   0.472  54.645  1.00  0.00     0.178 C 
HETATM    4  N2  UNL     1      28.102   0.915  53.403  1.00  0.00    -0.292 NA
HETATM    5  C12 UNL     1      27.321   1.405  52.483  1.00  0.00     0.043 A 
HETATM    6  C13 UNL     1      26.314   1.919  51.574  1.00  0.00     0.145 A 
HETATM    7  C20 UNL     1      25.830   1.548  52.907  1.00  0.00     0.113 A 
ENDROOT
BRANCH   1   8
HETATM    8  N1  UNL     1      24.330  -0.487  52.887  1.00  0.00    -0.356 N 
HETATM    9  H10 UNL     1      24.185  -1.336  52.318  1.00  0.00     0.166 HD
BRANCH   8  10
HETATM   10  C8  UNL     1      22.985  -0.042  53.176  1.00  0.00     0.072 A 
HETATM   11  C2  UNL     1      22.221   0.794  52.351  1.00  0.00     0.095 A 
HETATM   12  C3  UNL     1      20.960   1.112  52.780  1.00  0.00     0.039 A 
HETATM   13  C4  UNL     1      20.424   0.658  53.959  1.00  0.00     0.003 A 
HETATM   14  C5  UNL     1      21.184  -0.167  54.768  1.00  0.00     0.009 A 
HETATM   15  C6  UNL     1      22.475  -0.520  54.373  1.00  0.00    -0.033 A 
HETATM   16  C7  UNL     1      23.126  -1.410  55.356  1.00  0.00     0.050 C 
BRANCH  11  17
HETATM   17  O1  UNL     1      22.947   1.127  51.231  1.00  0.00    -0.354 OA
HETATM   18  C1  UNL     1      22.289   1.496  50.047  1.00  0.00     0.210 C 
ENDBRANCH  11  17
ENDBRANCH   8  10
ENDBRANCH   1   8
BRANCH   6  19
HETATM   19  N3  UNL     1      26.357   3.353  51.308  1.00  0.00    -0.379 N 
HETATM   20  H15 UNL     1      27.250   3.810  51.658  1.00  0.00     0.160 HD
BRANCH  19  21
HETATM   21  C14 UNL     1      25.371   4.129  50.666  1.00  0.00     0.030 A 
HETATM   22  C15 UNL     1      25.610   4.654  49.410  1.00  0.00     0.029 A 
HETATM   23  C16 UNL     1      24.647   5.414  48.779  1.00  0.00     0.004 A 
HETATM   24  C17 UNL     1      23.428   5.648  49.420  1.00  0.00     0.024 A 
HETATM   25  C18 UNL     1      23.194   5.118  50.680  1.00  0.00     0.036 A 
HETATM   26 CL1  UNL     1      21.664   5.442  51.424  1.00  0.00    -0.084 Cl
HETATM   27  C19 UNL     1      24.171   4.371  51.274  1.00  0.00     0.052 A 
ENDBRANCH  19  21
ENDBRANCH   6  19
TORSDOF 5
ENDMDL
MODEL 4
REMARK VINA RESULT:      -7.9      1.994      4.182
REMARK  5 active torsions:
REMARK  status: ('A' for Active; 'I' for Inactive)
REMARK    1  A    between atoms: O1_2  and  C2_3 
REMARK    2  A    between atoms: C8_9  and  N1_10 
REMARK    3  A    between atoms: N1_10  and  C9_11 
REMARK    4  A    between atoms: C13_16  and  N3_17 
REMARK    5  A    between atoms: N3_17  and  C14_18 
ROOT
HETATM    1  C9  UNL     1      21.675   0.701  52.641  1.00  0.00     0.019 C 
HETATM    2  C10 UNL     1      20.490   0.144  52.962  1.00  0.00     0.020 C 
HETATM    3  C11 UNL     1      20.565  -0.708  54.210  1.00  0.00     0.178 C 
HETATM    4  N2  UNL     1      21.687  -1.631  54.032  1.00  0.00    -0.292 NA
HETATM    5  C12 UNL     1      22.814  -1.119  53.630  1.00  0.00     0.043 A 
HETATM    6  C13 UNL     1      23.986  -0.389  53.182  1.00  0.00     0.145 A 
HETATM    7  C20 UNL     1      22.818   0.432  53.514  1.00  0.00     0.113 A 
ENDROOT
BRANCH   1   8
HETATM    8  N1  UNL     1      21.771   1.530  51.492  1.00  0.00    -0.356 N 
HETATM    9  H10 UNL     1      21.615   1.376  50.483  1.00  0.00     0.166 HD
BRANCH   8  10
HETATM   10  C8  UNL     1      22.157   2.922  51.562  1.00  0.00     0.072 A 
HETATM   11  C2  UNL     1      21.324   3.966  51.988  1.00  0.00     0.095 A 
HETATM   12  C3  UNL     1      21.859   5.227  51.996  1.00  0.00     0.039 A 
HETATM   13  C4  UNL     1      23.147   5.507  51.613  1.00  0.00     0.003 A 
HETATM   14  C5  UNL     1      23.962   4.471  51.194  1.00  0.00     0.009 A 
HETATM   15  C6  UNL     1      23.463   3.168  51.169  1.00  0.00    -0.033 A 
HETATM   16  C7  UNL     1      24.478   2.201  50.705  1.00  0.00     0.050 C 
BRANCH  11  17
HETATM   17  O1  UNL     1      20.088   3.464  52.323  1.00  0.00    -0.354 OA
HETATM   18  C1  UNL     1      18.987   3.678  51.479  1.00  0.00     0.210 C 
ENDBRANCH  11  17
ENDBRANCH   8  10
ENDBRANCH   1   8
BRANCH   6  19
HETATM   19  N3  UNL     1      25.093  -0.303  54.128  1.00  0.00    -0.379 N 
HETATM   20  H15 UNL     1      24.885  -0.788  55.050  1.00  0.00     0.160 HD
BRANCH  19  21
HETATM   21  C14 UNL     1      26.334   0.333  53.928  1.00  0.00     0.030 A 
HETATM   22  C15 UNL     1      26.399   1.709  53.814  1.00  0.00     0.029 A 
HETATM   23  C16 UNL     1      27.613   2.335  53.618  1.00  0.00     0.004 A 
HETATM   24  C17 UNL     1      28.777   1.565  53.535  1.00  0.00     0.024 A 
HETATM   25  C18 UNL     1      28.706   0.185  53.651  1.00  0.00     0.036 A 
HETATM   26 CL1  UNL     1      30.181  -0.714  53.541  1.00  0.00    -0.084 Cl
HETATM   27  C19 UNL     1      27.486  -0.399  53.844  1.00  0.00     0.052 A 
ENDBRANCH  19  21
ENDBRANCH   6  19
TORSDOF 5
ENDMDL
MODEL 5
REMARK VINA RESULT:      -7.8      2.660      4.903
REMARK  5 active torsions:
REMARK  status: ('A' for Active; 'I' for Inactive)
REMARK    1  A    between atoms: O1_2  and  C2_3 
REMARK    2  A    between atoms: C8_9  and  N1_10 
REMARK    3  A    between atoms: N1_10  and  C9_11 
REMARK    4  A    between atoms: C13_16  and  N3_17 
REMARK    5  A    between atoms: N3_17  and  C14_18 
ROOT
HETATM    1  C9  UNL     1      22.890   2.390  50.928  1.00  0.00     0.019 C 
HETATM    2  C10 UNL     1      21.551   2.517  51.020  1.00  0.00     0.020 C 
HETATM    3  C11 UNL     1      21.035   2.259  52.419  1.00  0.00     0.178 C 
HETATM    4  N2  UNL     1      21.595   0.979  52.854  1.00  0.00    -0.292 NA
HETATM    5  C12 UNL     1      22.874   0.806  52.683  1.00  0.00     0.043 A 
HETATM    6  C13 UNL     1      24.302   0.779  52.423  1.00  0.00     0.145 A 
HETATM    7  C20 UNL     1      23.632   2.053  52.143  1.00  0.00     0.113 A 
ENDROOT
BRANCH   1   8
HETATM    8  N1  UNL     1      23.529   2.599  49.677  1.00  0.00    -0.356 N 
HETATM    9  H10 UNL     1      23.676   2.010  48.842  1.00  0.00     0.166 HD
BRANCH   8  10
HETATM   10  C8  UNL     1      24.165   3.848  49.324  1.00  0.00     0.072 A 
HETATM   11  C2  UNL     1      23.499   4.973  48.817  1.00  0.00     0.095 A 
HETATM   12  C3  UNL     1      24.261   6.077  48.540  1.00  0.00     0.039 A 
HETATM   13  C4  UNL     1      25.619   6.128  48.733  1.00  0.00     0.003 A 
HETATM   14  C5  UNL     1      26.269   5.014  49.234  1.00  0.00     0.009 A 
HETATM   15  C6  UNL     1      25.535   3.865  49.532  1.00  0.00    -0.033 A 
HETATM   16  C7  UNL     1      26.395   2.788  50.062  1.00  0.00     0.050 C 
BRANCH  11  17
HETATM   17  O1  UNL     1      22.155   4.703  48.705  1.00  0.00    -0.354 OA
HETATM   18  C1  UNL     1      21.217   5.745  48.784  1.00  0.00     0.210 C 
ENDBRANCH  11  17
ENDBRANCH   8  10
ENDBRANCH   1   8
BRANCH   6  19
HETATM   19  N3  UNL     1      25.172   0.781  53.594  1.00  0.00    -0.379 N 
HETATM   20  H15 UNL     1      24.635   0.682  54.505  1.00  0.00     0.160 HD
BRANCH  19  21
HETATM   21  C14 UNL     1      26.576   0.898  53.610  1.00  0.00     0.030 A 
HETATM   22  C15 UNL     1      27.168   2.146  53.629  1.00  0.00     0.029 A 
HETATM   23  C16 UNL     1      28.543   2.264  53.645  1.00  0.00     0.004 A 
HETATM   24  C17 UNL     1      29.331   1.110  53.642  1.00  0.00     0.024 A 
HETATM   25  C18 UNL     1      28.731  -0.140  53.622  1.00  0.00     0.036 A 
HETATM   26 CL1  UNL     1      29.759  -1.533  53.619  1.00  0.00    -0.084 Cl
HETATM   27  C19 UNL     1      27.367  -0.217  53.607  1.00  0.00     0.052 A 
ENDBRANCH  19  21
ENDBRANCH   6  19
TORSDOF 5
ENDMDL
MODEL 6
REMARK VINA RESULT:      -7.8      3.640      6.886
REMARK  5 active torsions:
REMARK  status: ('A' for Active; 'I' for Inactive)
REMARK    1  A    between atoms: O1_2  and  C2_3 
REMARK    2  A    between atoms: C8_9  and  N1_10 
REMARK    3  A    between atoms: N1_10  and  C9_11 
REMARK    4  A    between atoms: C13_16  and  N3_17 
REMARK    5  A    between atoms: N3_17  and  C14_18 
ROOT
HETATM    1  C9  UNL     1      23.193   4.106  49.460  1.00  0.00     0.019 C 
HETATM    2  C10 UNL     1      22.978   4.362  48.154  1.00  0.00     0.020 C 
HETATM    3  C11 UNL     1      21.853   3.534  47.573  1.00  0.00     0.178 C 
HETATM    4  N2  UNL     1      22.123   2.139  47.922  1.00  0.00    -0.292 NA
HETATM    5  C12 UNL     1      22.425   1.889  49.164  1.00  0.00     0.043 A 
HETATM    6  C13 UNL     1      22.742   1.788  50.577  1.00  0.00     0.145 A 
HETATM    7  C20 UNL     1      22.334   3.118  50.114  1.00  0.00     0.113 A 
ENDROOT
BRANCH   1   8
HETATM    8  N1  UNL     1      24.219   4.802  50.152  1.00  0.00    -0.356 N 
HETATM    9  H10 UNL     1      24.354   5.083  51.136  1.00  0.00     0.166 HD
BRANCH   8  10
HETATM   10  C8  UNL     1      25.407   5.299  49.495  1.00  0.00     0.072 A 
HETATM   11  C2  UNL     1      25.580   6.611  49.031  1.00  0.00     0.095 A 
HETATM   12  C3  UNL     1      26.775   6.909  48.434  1.00  0.00     0.039 A 
HETATM   13  C4  UNL     1      27.791   5.999  48.274  1.00  0.00     0.003 A 
HETATM   14  C5  UNL     1      27.613   4.707  48.735  1.00  0.00     0.009 A 
HETATM   15  C6  UNL     1      26.411   4.355  49.350  1.00  0.00    -0.033 A 
HETATM   16  C7  UNL     1      26.410   2.942  49.782  1.00  0.00     0.050 C 
BRANCH  11  17
HETATM   17  O1  UNL     1      24.447   7.346  49.294  1.00  0.00    -0.354 OA
HETATM   18  C1  UNL     1      24.495   8.414  50.204  1.00  0.00     0.210 C 
ENDBRANCH  11  17
ENDBRANCH   8  10
ENDBRANCH   1   8
BRANCH   6  19
HETATM   19  N3  UNL     1      21.765   1.095  51.409  1.00  0.00    -0.379 N 
HETATM   20  H15 UNL     1      20.766   1.238  51.077  1.00  0.00     0.160 HD
BRANCH  19  21
HETATM   21  C14 UNL     1      22.025   0.304  52.546  1.00  0.00     0.030 A 
HETATM   22  C15 UNL     1      20.989  -0.342  53.194  1.00  0.00     0.029 A 
HETATM   23  C16 UNL     1      21.240  -1.117  54.307  1.00  0.00     0.004 A 
HETATM   24  C17 UNL     1      22.552  -1.243  54.774  1.00  0.00     0.024 A 
HETATM   25  C18 UNL     1      23.587  -0.593  54.120  1.00  0.00     0.036 A 
HETATM   26 CL1  UNL     1      25.190  -0.787  54.745  1.00  0.00    -0.084 Cl
HETATM   27  C19 UNL     1      23.300   0.166  53.021  1.00  0.00     0.052 A 
ENDBRANCH  19  21
ENDBRANCH   6  19
TORSDOF 5
ENDMDL
MODEL 7
REMARK VINA RESULT:      -7.7      3.152      5.493
REMARK  5 active torsions:
REMARK  status: ('A' for Active; 'I' for Inactive)
REMARK    1  A    between atoms: O1_2  and  C2_3 
REMARK    2  A    between atoms: C8_9  and  N1_10 
REMARK    3  A    between atoms: N1_10  and  C9_11 
REMARK    4  A    between atoms: C13_16  and  N3_17 
REMARK    5  A    between atoms: N3_17  and  C14_18 
ROOT
HETATM    1  C9  UNL     1      22.895   3.400  50.671  1.00  0.00     0.019 C 
HETATM    2  C10 UNL     1      21.753   4.097  50.826  1.00  0.00     0.020 C 
HETATM    3  C11 UNL     1      21.150   3.932  52.204  1.00  0.00     0.178 C 
HETATM    4  N2  UNL     1      21.071   2.495  52.467  1.00  0.00    -0.292 NA
HETATM    5  C12 UNL     1      22.142   1.792  52.231  1.00  0.00     0.043 A 
HETATM    6  C13 UNL     1      23.412   1.164  51.918  1.00  0.00     0.145 A 
HETATM    7  C20 UNL     1      23.386   2.626  51.812  1.00  0.00     0.113 A 
ENDROOT
BRANCH   1   8
HETATM    8  N1  UNL     1      23.585   3.450  49.430  1.00  0.00    -0.356 N 
HETATM    9  H10 UNL     1      23.565   2.870  48.576  1.00  0.00     0.166 HD
BRANCH   8  10
HETATM   10  C8  UNL     1      24.563   4.469  49.120  1.00  0.00     0.072 A 
HETATM   11  C2  UNL     1      24.266   5.735  48.596  1.00  0.00     0.095 A 
HETATM   12  C3  UNL     1      25.320   6.579  48.367  1.00  0.00     0.039 A 
HETATM   13  C4  UNL     1      26.627   6.246  48.622  1.00  0.00     0.003 A 
HETATM   14  C5  UNL     1      26.912   4.994  49.140  1.00  0.00     0.009 A 
HETATM   15  C6  UNL     1      25.871   4.100  49.391  1.00  0.00    -0.033 A 
HETATM   16  C7  UNL     1      26.366   2.825  49.948  1.00  0.00     0.050 C 
BRANCH  11  17
HETATM   17  O1  UNL     1      22.907   5.855  48.420  1.00  0.00    -0.354 OA
HETATM   18  C1  UNL     1      22.274   7.090  48.629  1.00  0.00     0.210 C 
ENDBRANCH  11  17
ENDBRANCH   8  10
ENDBRANCH   1   8
BRANCH   6  19
HETATM   19  N3  UNL     1      24.169   0.639  53.049  1.00  0.00    -0.379 N 
HETATM   20  H15 UNL     1      23.555   0.419  53.888  1.00  0.00     0.160 HD
BRANCH  19  21
HETATM   21  C14 UNL     1      25.559   0.417  53.113  1.00  0.00     0.030 A 
HETATM   22  C15 UNL     1      26.069  -0.851  52.907  1.00  0.00     0.029 A 
HETATM   23  C16 UNL     1      27.430  -1.072  52.968  1.00  0.00     0.004 A 
HETATM   24  C17 UNL     1      28.287  -0.002  53.241  1.00  0.00     0.024 A 
HETATM   25  C18 UNL     1      27.769   1.267  53.446  1.00  0.00     0.036 A 
HETATM   26 CL1  UNL     1      28.881   2.552  53.779  1.00  0.00    -0.084 Cl
HETATM   27  C19 UNL     1      26.417   1.448  53.377  1.00  0.00     0.052 A 
ENDBRANCH  19  21
ENDBRANCH   6  19
TORSDOF 5
ENDMDL
MODEL 8
REMARK VINA RESULT:      -7.6      3.856      5.465
REMARK  5 active torsions:
REMARK  status: ('A' for Active; 'I' for Inactive)
REMARK    1  A    between atoms: O1_2  and  C2_3 
REMARK    2  A    between atoms: C8_9  and  N1_10 
REMARK    3  A    between atoms: N1_10  and  C9_11 
REMARK    4  A    between atoms: C13_16  and  N3_17 
REMARK    5  A    between atoms: N3_17  and  C14_18 
ROOT
HETATM    1  C9  UNL     1      22.307   1.863  50.592  1.00  0.00     0.019 C 
HETATM    2  C10 UNL     1      21.407   1.401  49.702  1.00  0.00     0.020 C 
HETATM    3  C11 UNL     1      21.944   1.372  48.288  1.00  0.00     0.178 C 
HETATM    4  N2  UNL     1      22.502   2.696  48.014  1.00  0.00    -0.292 NA
HETATM    5  C12 UNL     1      23.302   3.197  48.911  1.00  0.00     0.043 A 
HETATM    6  C13 UNL     1      24.166   3.602  50.005  1.00  0.00     0.145 A 
HETATM    7  C20 UNL     1      23.631   2.240  50.093  1.00  0.00     0.113 A 
ENDROOT
BRANCH   1   8
HETATM    8  N1  UNL     1      21.955   1.953  51.965  1.00  0.00    -0.356 N 
HETATM    9  H10 UNL     1      21.832   2.740  52.621  1.00  0.00     0.166 HD
BRANCH   8  10
HETATM   10  C8  UNL     1      21.670   0.791  52.776  1.00  0.00     0.072 A 
HETATM   11  C2  UNL     1      20.389   0.274  53.017  1.00  0.00     0.095 A 
HETATM   12  C3  UNL     1      20.305  -0.840  53.809  1.00  0.00     0.039 A 
HETATM   13  C4  UNL     1      21.396  -1.459  54.365  1.00  0.00     0.003 A 
HETATM   14  C5  UNL     1      22.657  -0.943  54.122  1.00  0.00     0.009 A 
HETATM   15  C6  UNL     1      22.794   0.191  53.321  1.00  0.00    -0.033 A 
HETATM   16  C7  UNL     1      24.209   0.587  53.169  1.00  0.00     0.050 C 
BRANCH  11  17
HETATM   17  O1  UNL     1      19.451   1.042  52.367  1.00  0.00    -0.354 OA
HETATM   18  C1  UNL     1      18.383   0.432  51.692  1.00  0.00     0.210 C 
ENDBRANCH  11  17
ENDBRANCH   8  10
ENDBRANCH   1   8
BRANCH   6  19
HETATM   19  N3  UNL     1      25.590   3.690  49.703  1.00  0.00    -0.379 N 
HETATM   20  H15 UNL     1      26.096   2.764  49.831  1.00  0.00     0.160 HD
BRANCH  19  21
HETATM   21  C14 UNL     1      26.302   4.831  49.283  1.00  0.00     0.030 A 
HETATM   22  C15 UNL     1      27.550   4.698  48.706  1.00  0.00     0.029 A 
HETATM   23  C16 UNL     1      28.250   5.814  48.294  1.00  0.00     0.004 A 
HETATM   24  C17 UNL     1      27.685   7.081  48.466  1.00  0.00     0.024 A 
HETATM   25  C18 UNL     1      26.432   7.208  49.047  1.00  0.00     0.036 A 
HETATM   26 CL1  UNL     1      25.784   8.803  49.234  1.00  0.00    -0.084 Cl
HETATM   27  C19 UNL     1      25.769   6.081  49.442  1.00  0.00     0.052 A 
ENDBRANCH  19  21
ENDBRANCH   6  19
TORSDOF 5
ENDMDL
MODEL 9
REMARK VINA RESULT:      -7.5      4.278      5.827
REMARK  5 active torsions:
REMARK  status: ('A' for Active; 'I' for Inactive)
REMARK    1  A    between atoms: O1_2  and  C2_3 
REMARK    2  A    between atoms: C8_9  and  N1_10 
REMARK    3  A    between atoms: N1_10  and  C9_11 
REMARK    4  A    between atoms: C13_16  and  N3_17 
REMARK    5  A    between atoms: N3_17  and  C14_18 
ROOT
HETATM    1  C9  UNL     1      23.255   2.904  51.223  1.00  0.00     0.019 C 
HETATM    2  C10 UNL     1      22.428   3.299  52.211  1.00  0.00     0.020 C 
HETATM    3  C11 UNL     1      22.129   4.782  52.163  1.00  0.00     0.178 C 
HETATM    4  N2  UNL     1      23.415   5.475  52.080  1.00  0.00    -0.292 NA
HETATM    5  C12 UNL     1      24.263   5.043  51.192  1.00  0.00     0.043 A 
HETATM    6  C13 UNL     1      25.082   4.437  50.159  1.00  0.00     0.145 A 
HETATM    7  C20 UNL     1      23.717   3.914  50.270  1.00  0.00     0.113 A 
ENDROOT
BRANCH   1   8
HETATM    8  N1  UNL     1      23.634   1.538  51.131  1.00  0.00    -0.356 N 
HETATM    9  H10 UNL     1      23.683   0.860  50.354  1.00  0.00     0.166 HD
BRANCH   8  10
HETATM   10  C8  UNL     1      24.075   0.770  52.274  1.00  0.00     0.072 A 
HETATM   11  C2  UNL     1      23.243  -0.017  53.083  1.00  0.00     0.095 A 
HETATM   12  C3  UNL     1      23.832  -0.682  54.124  1.00  0.00     0.039 A 
HETATM   13  C4  UNL     1      25.174  -0.613  54.405  1.00  0.00     0.003 A 
HETATM   14  C5  UNL     1      25.989   0.165  53.602  1.00  0.00     0.009 A 
HETATM   15  C6  UNL     1      25.434   0.861  52.528  1.00  0.00    -0.033 A 
HETATM   16  C7  UNL     1      26.456   1.626  51.784  1.00  0.00     0.050 C 
BRANCH  11  17
HETATM   17  O1  UNL     1      21.948   0.058  52.624  1.00  0.00    -0.354 OA
HETATM   18  C1  UNL     1      20.893  -0.437  53.405  1.00  0.00     0.210 C 
ENDBRANCH  11  17
ENDBRANCH   8  10
ENDBRANCH   1   8
BRANCH   6  19
HETATM   19  N3  UNL     1      25.338   5.253  48.977  1.00  0.00    -0.379 N 
HETATM   20  H15 UNL     1      24.459   5.447  48.413  1.00  0.00     0.160 HD
BRANCH  19  21
HETATM   21  C14 UNL     1      26.578   5.769  48.552  1.00  0.00     0.030 A 
HETATM   22  C15 UNL     1      27.718   4.992  48.635  1.00  0.00     0.029 A 
HETATM   23  C16 UNL     1      28.935   5.494  48.220  1.00  0.00     0.004 A 
HETATM   24  C17 UNL     1      29.004   6.796  47.715  1.00  0.00     0.024 A 
HETATM   25  C18 UNL     1      27.856   7.570  47.633  1.00  0.00     0.036 A 
HETATM   26 CL1  UNL     1      28.005   9.174  46.999  1.00  0.00    -0.084 Cl
HETATM   27  C19 UNL     1      26.670   7.039  48.054  1.00  0.00     0.052 A 
ENDBRANCH  19  21
ENDBRANCH   6  19
TORSDOF 5
ENDMDL
