MODEL 1
REMARK VINA RESULT:      -8.4      0.000      0.000
REMARK  6 active torsions:
REMARK  status: ('A' for Active; 'I' for Inactive)
REMARK    1  A    between atoms: C1_2  and  O2_3 
REMARK       I    between atoms: C1_2  and  N1_4 
REMARK    2  A    between atoms: N1_4  and  C2_5 
REMARK    3  A    between atoms: C2_5  and  C3_6 
REMARK    4  A    between atoms: C8_12  and  N2_13 
REMARK    5  A    between atoms: N2_13  and  S1_14 
REMARK    6  A    between atoms: S1_14  and  C9_17 
ROOT
HETATM    1  C3  UNL     1      23.311   1.182  52.182  1.00  0.00    -0.012 A 
HETATM    2  C4  UNL     1      22.409   1.088  51.145  1.00  0.00     0.030 A 
HETATM    3  C5  UNL     1      22.532   1.835  49.999  1.00  0.00     0.011 A 
HETATM    4 BR1  UNL     1      21.269   1.679  48.586  1.00  0.00    -0.051 Br
HETATM    5  C6  UNL     1      23.592   2.712  49.875  1.00  0.00     0.021 A 
HETATM    6  C7  UNL     1      24.467   2.773  50.936  1.00  0.00     0.032 A 
HETATM    7  C8  UNL     1      24.400   2.043  52.126  1.00  0.00     0.050 A 
ENDROOT
BRANCH   7   8
HETATM    8  N2  UNL     1      25.378   2.229  53.117  1.00  0.00    -0.280 N 
HETATM    9  H8  UNL     1      24.924   2.536  54.032  1.00  0.00     0.179 HD
BRANCH   8  10
HETATM   10  S1  UNL     1      27.083   2.025  53.002  1.00  0.00     0.263 S 
HETATM   11  O3  UNL     1      27.646   2.729  51.800  1.00  0.00    -0.200 OA
HETATM   12  O4  UNL     1      27.704   2.692  54.197  1.00  0.00    -0.200 OA
BRANCH  10  13
HETATM   13  C9  UNL     1      27.507   0.331  53.012  1.00  0.00     0.080 A 
HETATM   14  C10 UNL     1      28.781   0.026  53.489  1.00  0.00     0.028 A 
HETATM   15  C11 UNL     1      29.255  -1.268  53.553  1.00  0.00     0.044 A 
HETATM   16  C12 UNL     1      28.449  -2.304  53.134  1.00  0.00     0.116 A 
HETATM   17  F1  UNL     1      28.855  -3.604  53.171  1.00  0.00    -0.206 F 
HETATM   18  C13 UNL     1      27.164  -2.043  52.649  1.00  0.00     0.044 A 
HETATM   19  C14 UNL     1      26.745  -0.744  52.606  1.00  0.00     0.028 A 
ENDBRANCH  10  13
ENDBRANCH   8  10
ENDBRANCH   7   8
BRANCH   1  20
HETATM   20  C2  UNL     1      23.169   0.375  53.415  1.00  0.00     0.166 C 
BRANCH  20  21
HETATM   21  N1  UNL     1      21.911  -0.303  53.535  1.00  0.00    -0.333 N 
HETATM   22  C1  UNL     1      21.835  -1.195  54.655  1.00  0.00     0.249 C 
HETATM   23  O1  UNL     1      22.831  -1.316  55.424  1.00  0.00    -0.632 OA
HETATM   24  H2  UNL     1      21.045  -0.249  52.933  1.00  0.00     0.165 HD
BRANCH  22  25
HETATM   25  O2  UNL     1      20.678  -1.928  54.910  1.00  0.00    -0.760 OA
HETATM   26  H1  UNL     1      19.792  -1.496  55.138  1.00  0.00     0.169 HD
ENDBRANCH  22  25
ENDBRANCH  20  21
ENDBRANCH   1  20
TORSDOF 6
ENDMDL
MODEL 2
REMARK VINA RESULT:      -8.2      4.208      6.401
REMARK  6 active torsions:
REMARK  status: ('A' for Active; 'I' for Inactive)
REMARK    1  A    between atoms: C1_2  and  O2_3 
REMARK       I    between atoms: C1_2  and  N1_4 
REMARK    2  A    between atoms: N1_4  and  C2_5 
REMARK    3  A    between atoms: C2_5  and  C3_6 
REMARK    4  A    between atoms: C8_12  and  N2_13 
REMARK    5  A    between atoms: N2_13  and  S1_14 
REMARK    6  A    between atoms: S1_14  and  C9_17 
ROOT
HETATM    1  C3  UNL     1      25.038   0.437  52.729  1.00  0.00    -0.012 A 
HETATM    2  C4  UNL     1      24.275  -0.450  53.457  1.00  0.00     0.030 A 
HETATM    3  C5  UNL     1      22.919  -0.295  53.609  1.00  0.00     0.011 A 
HETATM    4 BR1  UNL     1      21.897  -1.541  54.620  1.00  0.00    -0.051 Br
HETATM    5  C6  UNL     1      22.292   0.784  53.018  1.00  0.00     0.021 A 
HETATM    6  C7  UNL     1      23.093   1.645  52.302  1.00  0.00     0.032 A 
HETATM    7  C8  UNL     1      24.474   1.545  52.108  1.00  0.00     0.050 A 
ENDROOT
BRANCH   7   8
HETATM    8  N2  UNL     1      25.145   2.517  51.349  1.00  0.00    -0.280 N 
HETATM    9  H8  UNL     1      26.195   2.468  51.530  1.00  0.00     0.179 HD
BRANCH   8  10
HETATM   10  S1  UNL     1      24.492   3.673  50.254  1.00  0.00     0.263 S 
HETATM   11  O3  UNL     1      23.562   3.033  49.262  1.00  0.00    -0.200 OA
HETATM   12  O4  UNL     1      23.647   4.628  51.050  1.00  0.00    -0.200 OA
BRANCH  10  13
HETATM   13  C9  UNL     1      25.765   4.565  49.460  1.00  0.00     0.080 A 
HETATM   14  C10 UNL     1      25.438   5.856  49.049  1.00  0.00     0.028 A 
HETATM   15  C11 UNL     1      26.340   6.677  48.405  1.00  0.00     0.044 A 
HETATM   16  C12 UNL     1      27.614   6.216  48.156  1.00  0.00     0.116 A 
HETATM   17  F1  UNL     1      28.555   6.975  47.526  1.00  0.00    -0.206 F 
HETATM   18  C13 UNL     1      27.985   4.927  48.551  1.00  0.00     0.044 A 
HETATM   19  C14 UNL     1      27.053   4.155  49.184  1.00  0.00     0.028 A 
ENDBRANCH  10  13
ENDBRANCH   8  10
ENDBRANCH   7   8
BRANCH   1  20
HETATM   20  C2  UNL     1      26.499   0.264  52.572  1.00  0.00     0.166 C 
BRANCH  20  21
HETATM   21  N1  UNL     1      27.273   0.733  53.685  1.00  0.00    -0.333 N 
HETATM   22  C1  UNL     1      28.026   1.922  53.411  1.00  0.00     0.249 C 
HETATM   23  O1  UNL     1      27.961   2.450  52.265  1.00  0.00    -0.632 OA
HETATM   24  H2  UNL     1      27.371   0.343  54.661  1.00  0.00     0.165 HD
BRANCH  22  25
HETATM   25  O2  UNL     1      28.829   2.503  54.390  1.00  0.00    -0.760 OA
HETATM   26  H1  UNL     1      28.589   3.368  54.855  1.00  0.00     0.169 HD
ENDBRANCH  22  25
ENDBRANCH  20  21
ENDBRANCH   1  20
TORSDOF 6
ENDMDL
MODEL 3
REMARK VINA RESULT:      -8.0      4.080      5.809
REMARK  6 active torsions:
REMARK  status: ('A' for Active; 'I' for Inactive)
REMARK    1  A    between atoms: C1_2  and  O2_3 
REMARK       I    between atoms: C1_2  and  N1_4 
REMARK    2  A    between atoms: N1_4  and  C2_5 
REMARK    3  A    between atoms: C2_5  and  C3_6 
REMARK    4  A    between atoms: C8_12  and  N2_13 
REMARK    5  A    between atoms: N2_13  and  S1_14 
REMARK    6  A    between atoms: S1_14  and  C9_17 
ROOT
HETATM    1  C3  UNL     1      25.861   0.534  53.118  1.00  0.00    -0.012 A 
HETATM    2  C4  UNL     1      26.922  -0.333  53.262  1.00  0.00     0.030 A 
HETATM    3  C5  UNL     1      28.222   0.107  53.328  1.00  0.00     0.011 A 
HETATM    4 BR1  UNL     1      29.662  -1.118  53.528  1.00  0.00    -0.051 Br
HETATM    5  C6  UNL     1      28.481   1.461  53.248  1.00  0.00     0.021 A 
HETATM    6  C7  UNL     1      27.390   2.289  53.104  1.00  0.00     0.032 A 
HETATM    7  C8  UNL     1      26.048   1.908  53.030  1.00  0.00     0.050 A 
ENDROOT
BRANCH   7   8
HETATM    8  N2  UNL     1      25.051   2.885  52.878  1.00  0.00    -0.280 N 
HETATM    9  H8  UNL     1      24.800   3.309  53.823  1.00  0.00     0.179 HD
BRANCH   8  10
HETATM   10  S1  UNL     1      24.269   3.414  51.438  1.00  0.00     0.263 S 
HETATM   11  O3  UNL     1      23.535   2.291  50.761  1.00  0.00    -0.200 OA
HETATM   12  O4  UNL     1      23.218   4.414  51.831  1.00  0.00    -0.200 OA
BRANCH  10  13
HETATM   13  C9  UNL     1      25.409   4.180  50.359  1.00  0.00     0.080 A 
HETATM   14  C10 UNL     1      25.148   5.513  50.047  1.00  0.00     0.028 A 
HETATM   15  C11 UNL     1      25.958   6.247  49.205  1.00  0.00     0.044 A 
HETATM   16  C12 UNL     1      27.069   5.650  48.648  1.00  0.00     0.116 A 
HETATM   17  F1  UNL     1      27.911   6.318  47.810  1.00  0.00    -0.206 F 
HETATM   18  C13 UNL     1      27.367   4.315  48.935  1.00  0.00     0.044 A 
HETATM   19  C14 UNL     1      26.531   3.635  49.773  1.00  0.00     0.028 A 
ENDBRANCH  10  13
ENDBRANCH   8  10
ENDBRANCH   7   8
BRANCH   1  20
HETATM   20  C2  UNL     1      24.464   0.051  53.045  1.00  0.00     0.166 C 
BRANCH  20  21
HETATM   21  N1  UNL     1      23.989  -0.569  54.249  1.00  0.00    -0.333 N 
HETATM   22  C1  UNL     1      22.642  -1.052  54.163  1.00  0.00     0.249 C 
HETATM   23  O1  UNL     1      21.995  -0.907  53.087  1.00  0.00    -0.632 OA
HETATM   24  H2  UNL     1      24.473  -0.722  55.175  1.00  0.00     0.165 HD
BRANCH  22  25
HETATM   25  O2  UNL     1      22.036  -1.681  55.249  1.00  0.00    -0.760 OA
HETATM   26  H1  UNL     1      21.945  -1.243  56.156  1.00  0.00     0.169 HD
ENDBRANCH  22  25
ENDBRANCH  20  21
ENDBRANCH   1  20
TORSDOF 6
ENDMDL
MODEL 4
REMARK VINA RESULT:      -7.7      3.742      5.626
REMARK  6 active torsions:
REMARK  status: ('A' for Active; 'I' for Inactive)
REMARK    1  A    between atoms: C1_2  and  O2_3 
REMARK       I    between atoms: C1_2  and  N1_4 
REMARK    2  A    between atoms: N1_4  and  C2_5 
REMARK    3  A    between atoms: C2_5  and  C3_6 
REMARK    4  A    between atoms: C8_12  and  N2_13 
REMARK    5  A    between atoms: N2_13  and  S1_14 
REMARK    6  A    between atoms: S1_14  and  C9_17 
ROOT
HETATM    1  C3  UNL     1      26.150   3.530  50.134  1.00  0.00    -0.012 A 
HETATM    2  C4  UNL     1      27.099   4.336  49.545  1.00  0.00     0.030 A 
HETATM    3  C5  UNL     1      26.762   5.448  48.811  1.00  0.00     0.011 A 
HETATM    4 BR1  UNL     1      28.099   6.538  48.012  1.00  0.00    -0.051 Br
HETATM    5  C6  UNL     1      25.429   5.775  48.655  1.00  0.00     0.021 A 
HETATM    6  C7  UNL     1      24.516   4.941  49.261  1.00  0.00     0.032 A 
HETATM    7  C8  UNL     1      24.791   3.799  50.018  1.00  0.00     0.050 A 
ENDROOT
BRANCH   7   8
HETATM    8  N2  UNL     1      23.736   3.051  50.566  1.00  0.00    -0.280 N 
HETATM    9  H8  UNL     1      23.338   2.382  49.837  1.00  0.00     0.179 HD
BRANCH   8  10
HETATM   10  S1  UNL     1      23.085   3.110  52.158  1.00  0.00     0.263 S 
HETATM   11  O3  UNL     1      23.965   3.896  53.089  1.00  0.00    -0.200 OA
HETATM   12  O4  UNL     1      21.784   3.861  52.092  1.00  0.00    -0.200 OA
BRANCH  10  13
HETATM   13  C9  UNL     1      22.784   1.501  52.765  1.00  0.00     0.080 A 
HETATM   14  C10 UNL     1      21.451   1.193  53.035  1.00  0.00     0.028 A 
HETATM   15  C11 UNL     1      21.062  -0.037  53.522  1.00  0.00     0.044 A 
HETATM   16  C12 UNL     1      22.016  -1.005  53.753  1.00  0.00     0.116 A 
HETATM   17  F1  UNL     1      21.699  -2.241  54.232  1.00  0.00    -0.206 F 
HETATM   18  C13 UNL     1      23.364  -0.738  53.496  1.00  0.00     0.044 A 
HETATM   19  C14 UNL     1      23.695   0.497  53.016  1.00  0.00     0.028 A 
ENDBRANCH  10  13
ENDBRANCH   8  10
ENDBRANCH   7   8
BRANCH   1  20
HETATM   20  C2  UNL     1      26.522   2.333  50.920  1.00  0.00     0.166 C 
BRANCH  20  21
HETATM   21  N1  UNL     1      26.796   2.595  52.303  1.00  0.00    -0.333 N 
HETATM   22  C1  UNL     1      27.219   1.442  53.043  1.00  0.00     0.249 C 
HETATM   23  O1  UNL     1      27.316   0.327  52.456  1.00  0.00    -0.632 OA
HETATM   24  H2  UNL     1      26.736   3.495  52.852  1.00  0.00     0.165 HD
BRANCH  22  25
HETATM   25  O2  UNL     1      27.524   1.533  54.399  1.00  0.00    -0.760 OA
HETATM   26  H1  UNL     1      28.446   1.770  54.740  1.00  0.00     0.169 HD
ENDBRANCH  22  25
ENDBRANCH  20  21
ENDBRANCH   1  20
TORSDOF 6
ENDMDL
MODEL 5
REMARK VINA RESULT:      -7.5      4.141      6.438
REMARK  6 active torsions:
REMARK  status: ('A' for Active; 'I' for Inactive)
REMARK    1  A    between atoms: C1_2  and  O2_3 
REMARK       I    between atoms: C1_2  and  N1_4 
REMARK    2  A    between atoms: N1_4  and  C2_5 
REMARK    3  A    between atoms: C2_5  and  C3_6 
REMARK    4  A    between atoms: C8_12  and  N2_13 
REMARK    5  A    between atoms: N2_13  and  S1_14 
REMARK    6  A    between atoms: S1_14  and  C9_17 
ROOT
HETATM    1  C3  UNL     1      25.063   0.330  52.610  1.00  0.00    -0.012 A 
HETATM    2  C4  UNL     1      24.276  -0.488  53.390  1.00  0.00     0.030 A 
HETATM    3  C5  UNL     1      22.947  -0.225  53.616  1.00  0.00     0.011 A 
HETATM    4 BR1  UNL     1      21.889  -1.376  54.699  1.00  0.00    -0.051 Br
HETATM    5  C6  UNL     1      22.374   0.895  53.045  1.00  0.00     0.021 A 
HETATM    6  C7  UNL     1      23.199   1.683  52.274  1.00  0.00     0.032 A 
HETATM    7  C8  UNL     1      24.554   1.472  52.005  1.00  0.00     0.050 A 
ENDROOT
BRANCH   7   8
HETATM    8  N2  UNL     1      25.256   2.382  51.196  1.00  0.00    -0.280 N 
HETATM    9  H8  UNL     1      26.237   2.017  50.995  1.00  0.00     0.179 HD
BRANCH   8  10
HETATM   10  S1  UNL     1      24.727   3.889  50.558  1.00  0.00     0.263 S 
HETATM   11  O3  UNL     1      24.084   4.744  51.614  1.00  0.00    -0.200 OA
HETATM   12  O4  UNL     1      25.944   4.645  50.103  1.00  0.00    -0.200 OA
BRANCH  10  13
HETATM   13  C9  UNL     1      23.665   3.647  49.193  1.00  0.00     0.080 A 
HETATM   14  C10 UNL     1      23.300   4.798  48.496  1.00  0.00     0.028 A 
HETATM   15  C11 UNL     1      22.464   4.762  47.399  1.00  0.00     0.044 A 
HETATM   16  C12 UNL     1      21.967   3.551  46.967  1.00  0.00     0.116 A 
HETATM   17  F1  UNL     1      21.139   3.445  45.891  1.00  0.00    -0.206 F 
HETATM   18  C13 UNL     1      22.308   2.373  47.638  1.00  0.00     0.044 A 
HETATM   19  C14 UNL     1      23.138   2.465  48.719  1.00  0.00     0.028 A 
ENDBRANCH  10  13
ENDBRANCH   8  10
ENDBRANCH   7   8
BRANCH   1  20
HETATM   20  C2  UNL     1      26.495   0.040  52.374  1.00  0.00     0.166 C 
BRANCH  20  21
HETATM   21  N1  UNL     1      26.785  -1.341  52.118  1.00  0.00    -0.333 N 
HETATM   22  C1  UNL     1      27.798  -1.892  52.969  1.00  0.00     0.249 C 
HETATM   23  O1  UNL     1      28.342  -1.161  53.845  1.00  0.00    -0.632 OA
HETATM   24  H2  UNL     1      26.372  -2.005  51.408  1.00  0.00     0.165 HD
BRANCH  22  25
HETATM   25  O2  UNL     1      28.192  -3.223  52.845  1.00  0.00    -0.760 OA
HETATM   26  H1  UNL     1      27.534  -3.981  52.724  1.00  0.00     0.169 HD
ENDBRANCH  22  25
ENDBRANCH  20  21
ENDBRANCH   1  20
TORSDOF 6
ENDMDL
MODEL 6
REMARK VINA RESULT:      -7.5      3.694      4.668
REMARK  6 active torsions:
REMARK  status: ('A' for Active; 'I' for Inactive)
REMARK    1  A    between atoms: C1_2  and  O2_3 
REMARK       I    between atoms: C1_2  and  N1_4 
REMARK    2  A    between atoms: N1_4  and  C2_5 
REMARK    3  A    between atoms: C2_5  and  C3_6 
REMARK    4  A    between atoms: C8_12  and  N2_13 
REMARK    5  A    between atoms: N2_13  and  S1_14 
REMARK    6  A    between atoms: S1_14  and  C9_17 
ROOT
HETATM    1  C3  UNL     1      24.806   4.823  50.170  1.00  0.00    -0.012 A 
HETATM    2  C4  UNL     1      25.471   5.826  49.500  1.00  0.00     0.030 A 
HETATM    3  C5  UNL     1      26.690   5.622  48.900  1.00  0.00     0.011 A 
HETATM    4 BR1  UNL     1      27.579   7.030  47.982  1.00  0.00    -0.051 Br
HETATM    5  C6  UNL     1      27.275   4.373  48.968  1.00  0.00     0.021 A 
HETATM    6  C7  UNL     1      26.575   3.402  49.648  1.00  0.00     0.032 A 
HETATM    7  C8  UNL     1      25.336   3.543  50.278  1.00  0.00     0.050 A 
ENDROOT
BRANCH   7   8
HETATM    8  N2  UNL     1      24.757   2.446  50.937  1.00  0.00    -0.280 N 
HETATM    9  H8  UNL     1      24.175   1.869  50.255  1.00  0.00     0.179 HD
BRANCH   8  10
HETATM   10  S1  UNL     1      24.890   1.988  52.591  1.00  0.00     0.263 S 
HETATM   11  O3  UNL     1      24.533   3.121  53.511  1.00  0.00    -0.200 OA
HETATM   12  O4  UNL     1      23.871   0.912  52.849  1.00  0.00    -0.200 OA
BRANCH  10  13
HETATM   13  C9  UNL     1      26.482   1.358  52.935  1.00  0.00     0.080 A 
HETATM   14  C10 UNL     1      26.633  -0.021  52.795  1.00  0.00     0.028 A 
HETATM   15  C11 UNL     1      27.832  -0.660  53.036  1.00  0.00     0.044 A 
HETATM   16  C12 UNL     1      28.925   0.081  53.428  1.00  0.00     0.116 A 
HETATM   17  F1  UNL     1      30.138  -0.487  53.681  1.00  0.00    -0.206 F 
HETATM   18  C13 UNL     1      28.818   1.467  53.580  1.00  0.00     0.044 A 
HETATM   19  C14 UNL     1      27.608   2.049  53.330  1.00  0.00     0.028 A 
ENDBRANCH  10  13
ENDBRANCH   8  10
ENDBRANCH   7   8
BRANCH   1  20
HETATM   20  C2  UNL     1      23.494   5.052  50.815  1.00  0.00     0.166 C 
BRANCH  20  21
HETATM   21  N1  UNL     1      22.379   5.019  49.914  1.00  0.00    -0.333 N 
HETATM   22  C1  UNL     1      21.507   3.897  50.106  1.00  0.00     0.249 C 
HETATM   23  O1  UNL     1      21.766   3.055  51.012  1.00  0.00    -0.632 OA
HETATM   24  H2  UNL     1      22.105   5.685  49.141  1.00  0.00     0.165 HD
BRANCH  22  25
HETATM   25  O2  UNL     1      20.377   3.723  49.309  1.00  0.00    -0.760 OA
HETATM   26  H1  UNL     1      19.483   4.144  49.524  1.00  0.00     0.169 HD
ENDBRANCH  22  25
ENDBRANCH  20  21
ENDBRANCH   1  20
TORSDOF 6
ENDMDL
MODEL 7
REMARK VINA RESULT:      -7.4      8.180     10.060
REMARK  6 active torsions:
REMARK  status: ('A' for Active; 'I' for Inactive)
REMARK    1  A    between atoms: C1_2  and  O2_3 
REMARK       I    between atoms: C1_2  and  N1_4 
REMARK    2  A    between atoms: N1_4  and  C2_5 
REMARK    3  A    between atoms: C2_5  and  C3_6 
REMARK    4  A    between atoms: C8_12  and  N2_13 
REMARK    5  A    between atoms: N2_13  and  S1_14 
REMARK    6  A    between atoms: S1_14  and  C9_17 
ROOT
HETATM    1  C3  UNL     1      28.106   7.354  48.618  1.00  0.00    -0.012 A 
HETATM    2  C4  UNL     1      26.850   6.907  48.966  1.00  0.00     0.030 A 
HETATM    3  C5  UNL     1      26.531   5.571  48.992  1.00  0.00     0.011 A 
HETATM    4 BR1  UNL     1      24.787   4.989  49.478  1.00  0.00    -0.051 Br
HETATM    5  C6  UNL     1      27.496   4.640  48.660  1.00  0.00     0.021 A 
HETATM    6  C7  UNL     1      28.735   5.133  48.319  1.00  0.00     0.032 A 
HETATM    7  C8  UNL     1      29.124   6.474  48.273  1.00  0.00     0.050 A 
ENDROOT
BRANCH   7   8
HETATM    8  N2  UNL     1      30.435   6.810  47.897  1.00  0.00    -0.280 N 
HETATM    9  H8  UNL     1      30.424   7.454  47.048  1.00  0.00     0.179 HD
BRANCH   8  10
HETATM   10  S1  UNL     1      31.921   6.323  48.616  1.00  0.00     0.263 S 
HETATM   11  O3  UNL     1      32.696   7.499  49.139  1.00  0.00    -0.200 OA
HETATM   12  O4  UNL     1      31.592   5.480  49.816  1.00  0.00    -0.200 OA
BRANCH  10  13
HETATM   13  C9  UNL     1      32.870   5.375  47.497  1.00  0.00     0.080 A 
HETATM   14  C10 UNL     1      33.873   4.590  48.064  1.00  0.00     0.028 A 
HETATM   15  C11 UNL     1      34.704   3.792  47.306  1.00  0.00     0.044 A 
HETATM   16  C12 UNL     1      34.544   3.760  45.938  1.00  0.00     0.116 A 
HETATM   17  F1  UNL     1      35.330   2.993  45.130  1.00  0.00    -0.206 F 
HETATM   18  C13 UNL     1      33.550   4.531  45.327  1.00  0.00     0.044 A 
HETATM   19  C14 UNL     1      32.756   5.304  46.125  1.00  0.00     0.028 A 
ENDBRANCH  10  13
ENDBRANCH   8  10
ENDBRANCH   7   8
BRANCH   1  20
HETATM   20  C2  UNL     1      28.440   8.796  48.590  1.00  0.00     0.166 C 
BRANCH  20  21
HETATM   21  N1  UNL     1      29.044   9.286  49.795  1.00  0.00    -0.333 N 
HETATM   22  C1  UNL     1      30.326   9.897  49.597  1.00  0.00     0.249 C 
HETATM   23  O1  UNL     1      30.814   9.960  48.433  1.00  0.00    -0.632 OA
HETATM   24  H2  UNL     1      28.695   9.266  50.791  1.00  0.00     0.165 HD
BRANCH  22  25
HETATM   25  O2  UNL     1      31.042  10.423  50.671  1.00  0.00    -0.760 OA
HETATM   26  H1  UNL     1      31.921  10.910  50.559  1.00  0.00     0.169 HD
ENDBRANCH  22  25
ENDBRANCH  20  21
ENDBRANCH   1  20
TORSDOF 6
ENDMDL
MODEL 8
REMARK VINA RESULT:      -7.3      4.568      6.152
REMARK  6 active torsions:
REMARK  status: ('A' for Active; 'I' for Inactive)
REMARK    1  A    between atoms: C1_2  and  O2_3 
REMARK       I    between atoms: C1_2  and  N1_4 
REMARK    2  A    between atoms: N1_4  and  C2_5 
REMARK    3  A    between atoms: C2_5  and  C3_6 
REMARK    4  A    between atoms: C8_12  and  N2_13 
REMARK    5  A    between atoms: N2_13  and  S1_14 
REMARK    6  A    between atoms: S1_14  and  C9_17 
ROOT
HETATM    1  C3  UNL     1      25.382   5.934  48.725  1.00  0.00    -0.012 A 
HETATM    2  C4  UNL     1      26.458   6.708  48.349  1.00  0.00     0.030 A 
HETATM    3  C5  UNL     1      27.742   6.220  48.340  1.00  0.00     0.011 A 
HETATM    4 BR1  UNL     1      29.203   7.317  47.814  1.00  0.00    -0.051 Br
HETATM    5  C6  UNL     1      27.970   4.913  48.720  1.00  0.00     0.021 A 
HETATM    6  C7  UNL     1      26.866   4.177  49.088  1.00  0.00     0.032 A 
HETATM    7  C8  UNL     1      25.538   4.611  49.119  1.00  0.00     0.050 A 
ENDROOT
BRANCH   7   8
HETATM    8  N2  UNL     1      24.523   3.729  49.527  1.00  0.00    -0.280 N 
HETATM    9  H8  UNL     1      24.084   3.253  48.680  1.00  0.00     0.179 HD
BRANCH   8  10
HETATM   10  S1  UNL     1      23.976   3.377  51.120  1.00  0.00     0.263 S 
HETATM   11  O3  UNL     1      24.135   4.558  52.035  1.00  0.00    -0.200 OA
HETATM   12  O4  UNL     1      22.498   3.112  51.046  1.00  0.00    -0.200 OA
BRANCH  10  13
HETATM   13  C9  UNL     1      24.777   1.961  51.753  1.00  0.00     0.080 A 
HETATM   14  C10 UNL     1      24.001   1.135  52.566  1.00  0.00     0.028 A 
HETATM   15  C11 UNL     1      24.500  -0.016  53.139  1.00  0.00     0.044 A 
HETATM   16  C12 UNL     1      25.810  -0.373  52.906  1.00  0.00     0.116 A 
HETATM   17  F1  UNL     1      26.365  -1.498  53.441  1.00  0.00    -0.206 F 
HETATM   18  C13 UNL     1      26.624   0.426  52.098  1.00  0.00     0.044 A 
HETATM   19  C14 UNL     1      26.080   1.555  51.556  1.00  0.00     0.028 A 
ENDBRANCH  10  13
ENDBRANCH   8  10
ENDBRANCH   7   8
BRANCH   1  20
HETATM   20  C2  UNL     1      24.002   6.468  48.734  1.00  0.00     0.166 C 
BRANCH  20  21
HETATM   21  N1  UNL     1      23.591   7.023  49.991  1.00  0.00    -0.333 N 
HETATM   22  C1  UNL     1      22.225   6.753  50.329  1.00  0.00     0.249 C 
HETATM   23  O1  UNL     1      21.509   6.076  49.537  1.00  0.00    -0.632 OA
HETATM   24  H2  UNL     1      24.133   7.594  50.695  1.00  0.00     0.165 HD
BRANCH  22  25
HETATM   25  O2  UNL     1      21.675   7.224  51.519  1.00  0.00    -0.760 OA
HETATM   26  H1  UNL     1      20.866   6.802  51.956  1.00  0.00     0.169 HD
ENDBRANCH  22  25
ENDBRANCH  20  21
ENDBRANCH   1  20
TORSDOF 6
ENDMDL
MODEL 9
REMARK VINA RESULT:      -7.2      4.131      5.890
REMARK  6 active torsions:
REMARK  status: ('A' for Active; 'I' for Inactive)
REMARK    1  A    between atoms: C1_2  and  O2_3 
REMARK       I    between atoms: C1_2  and  N1_4 
REMARK    2  A    between atoms: N1_4  and  C2_5 
REMARK    3  A    between atoms: C2_5  and  C3_6 
REMARK    4  A    between atoms: C8_12  and  N2_13 
REMARK    5  A    between atoms: N2_13  and  S1_14 
REMARK    6  A    between atoms: S1_14  and  C9_17 
ROOT
HETATM    1  C3  UNL     1      24.779   4.773  50.454  1.00  0.00    -0.012 A 
HETATM    2  C4  UNL     1      25.452   5.785  49.805  1.00  0.00     0.030 A 
HETATM    3  C5  UNL     1      26.594   5.554  49.077  1.00  0.00     0.011 A 
HETATM    4 BR1  UNL     1      27.497   6.974  48.193  1.00  0.00    -0.051 Br
HETATM    5  C6  UNL     1      27.091   4.268  48.990  1.00  0.00     0.021 A 
HETATM    6  C7  UNL     1      26.386   3.290  49.655  1.00  0.00     0.032 A 
HETATM    7  C8  UNL     1      25.222   3.457  50.409  1.00  0.00     0.050 A 
ENDROOT
BRANCH   7   8
HETATM    8  N2  UNL     1      24.626   2.347  51.032  1.00  0.00    -0.280 N 
HETATM    9  H8  UNL     1      23.673   2.146  50.598  1.00  0.00     0.179 HD
BRANCH   8  10
HETATM   10  S1  UNL     1      25.238   1.371  52.310  1.00  0.00     0.263 S 
HETATM   11  O3  UNL     1      26.380   0.508  51.853  1.00  0.00    -0.200 OA
HETATM   12  O4  UNL     1      25.809   2.291  53.353  1.00  0.00    -0.200 OA
BRANCH  10  13
HETATM   13  C9  UNL     1      23.962   0.419  53.029  1.00  0.00     0.080 A 
HETATM   14  C10 UNL     1      22.707   0.537  52.435  1.00  0.00     0.028 A 
HETATM   15  C11 UNL     1      21.603  -0.151  52.895  1.00  0.00     0.044 A 
HETATM   16  C12 UNL     1      21.736  -0.989  53.981  1.00  0.00     0.116 A 
HETATM   17  F1  UNL     1      20.687  -1.698  54.486  1.00  0.00    -0.206 F 
HETATM   18  C13 UNL     1      22.977  -1.137  54.608  1.00  0.00     0.044 A 
HETATM   19  C14 UNL     1      24.036  -0.432  54.112  1.00  0.00     0.028 A 
ENDBRANCH  10  13
ENDBRANCH   8  10
ENDBRANCH   7   8
BRANCH   1  20
HETATM   20  C2  UNL     1      23.550   5.031  51.238  1.00  0.00     0.166 C 
BRANCH  20  21
HETATM   21  N1  UNL     1      23.124   6.400  51.235  1.00  0.00    -0.333 N 
HETATM   22  C1  UNL     1      21.745   6.581  50.885  1.00  0.00     0.249 C 
HETATM   23  O1  UNL     1      21.033   5.571  50.618  1.00  0.00    -0.632 OA
HETATM   24  H2  UNL     1      23.662   7.284  51.446  1.00  0.00     0.165 HD
BRANCH  22  25
HETATM   25  O2  UNL     1      21.179   7.853  50.838  1.00  0.00    -0.760 OA
HETATM   26  H1  UNL     1      21.430   8.590  51.483  1.00  0.00     0.169 HD
ENDBRANCH  22  25
ENDBRANCH  20  21
ENDBRANCH   1  20
TORSDOF 6
ENDMDL
