MODEL 1
REMARK VINA RESULT:      -7.4      0.000      0.000
REMARK  6 active torsions:
REMARK  status: ('A' for Active; 'I' for Inactive)
REMARK    1  A    between atoms: C3_3  and  N1_4 
REMARK    2  A    between atoms: C3_3  and  N2_5 
REMARK    3  A    between atoms: N2_5  and  C4_6 
REMARK    4  A    between atoms: C4_6  and  C5_7 
REMARK    5  A    between atoms: C4_6  and  C13_16 
REMARK    6  A    between atoms: C6_8  and  C7_9 
ROOT
HETATM    1  C4  UNL     1      23.771   2.369  52.782  1.00  0.00     0.141 C 
ENDROOT
BRANCH   1   2
HETATM    2  N2  UNL     1      24.035   3.516  51.972  1.00  0.00    -0.365 N 
HETATM    3  H7  UNL     1      24.601   3.547  51.094  1.00  0.00     0.162 HD
BRANCH   2   4
HETATM    4  C3  UNL     1      23.570   4.815  52.219  1.00  0.00     0.090 C 
HETATM    5  C2  UNL     1      22.857   5.499  51.332  1.00  0.00     0.017 C 
HETATM    6  C1  UNL     1      22.549   4.847  50.030  1.00  0.00     0.040 C 
BRANCH   4   7
HETATM    7  N1  UNL     1      23.875   5.422  53.469  1.00  0.00    -0.386 N 
HETATM    8  H5  UNL     1      23.814   6.482  53.473  1.00  0.00     0.157 HD
HETATM    9  H6  UNL     1      24.155   5.219  54.457  1.00  0.00     0.157 HD
ENDBRANCH   4   7
ENDBRANCH   2   4
ENDBRANCH   1   2
BRANCH   1  10
HETATM   10  C5  UNL     1      25.016   1.648  53.216  1.00  0.00     0.004 C 
HETATM   11  C6  UNL     1      25.958   1.170  52.400  1.00  0.00     0.010 C 
BRANCH  11  12
HETATM   12  C7  UNL     1      27.167   0.471  52.814  1.00  0.00    -0.036 A 
HETATM   13  C8  UNL     1      28.244   1.229  53.290  1.00  0.00     0.014 A 
HETATM   14  C9  UNL     1      29.372   0.556  53.675  1.00  0.00     0.043 A 
HETATM   15  C10 UNL     1      29.463  -0.826  53.603  1.00  0.00     0.116 A 
HETATM   16  F1  UNL     1      30.625  -1.371  54.010  1.00  0.00    -0.206 F 
HETATM   17  C11 UNL     1      28.402  -1.569  53.133  1.00  0.00     0.043 A 
HETATM   18  C12 UNL     1      27.264  -0.890  52.745  1.00  0.00     0.014 A 
ENDBRANCH  11  12
ENDBRANCH   1  10
BRANCH   1  19
HETATM   19  C13 UNL     1      22.787   1.420  52.194  1.00  0.00    -0.014 A 
HETATM   20  C14 UNL     1      22.146   0.315  52.616  1.00  0.00     0.019 A 
HETATM   21 BR1  UNL     1      22.129  -0.701  54.250  1.00  0.00    -0.050 Br
HETATM   22  C15 UNL     1      21.459   0.168  51.357  1.00  0.00     0.020 A 
HETATM   23  C16 UNL     1      22.078   1.246  50.932  1.00  0.00     0.012 A 
ENDBRANCH   1  19
TORSDOF 6
ENDMDL
MODEL 2
REMARK VINA RESULT:      -7.4      1.810      2.611
REMARK  6 active torsions:
REMARK  status: ('A' for Active; 'I' for Inactive)
REMARK    1  A    between atoms: C3_3  and  N1_4 
REMARK    2  A    between atoms: C3_3  and  N2_5 
REMARK    3  A    between atoms: N2_5  and  C4_6 
REMARK    4  A    between atoms: C4_6  and  C5_7 
REMARK    5  A    between atoms: C4_6  and  C13_16 
REMARK    6  A    between atoms: C6_8  and  C7_9 
ROOT
HETATM    1  C4  UNL     1      23.309   0.804  53.003  1.00  0.00     0.141 C 
ENDROOT
BRANCH   1   2
HETATM    2  N2  UNL     1      23.138   0.957  51.592  1.00  0.00    -0.365 N 
HETATM    3  H7  UNL     1      23.129   0.197  50.875  1.00  0.00     0.162 HD
BRANCH   2   4
HETATM    4  C3  UNL     1      22.947   2.173  50.920  1.00  0.00     0.090 C 
HETATM    5  C2  UNL     1      22.214   2.271  49.817  1.00  0.00     0.017 C 
HETATM    6  C1  UNL     1      21.578   1.034  49.287  1.00  0.00     0.040 C 
BRANCH   4   7
HETATM    7  N1  UNL     1      23.562   3.344  51.442  1.00  0.00    -0.386 N 
HETATM    8  H5  UNL     1      24.594   3.442  51.210  1.00  0.00     0.157 HD
HETATM    9  H6  UNL     1      23.384   4.209  52.003  1.00  0.00     0.157 HD
ENDBRANCH   4   7
ENDBRANCH   2   4
ENDBRANCH   1   2
BRANCH   1  10
HETATM   10  C5  UNL     1      24.727   0.511  53.401  1.00  0.00     0.004 C 
HETATM   11  C6  UNL     1      25.599  -0.208  52.689  1.00  0.00     0.010 C 
BRANCH  11  12
HETATM   12  C7  UNL     1      26.975  -0.496  53.070  1.00  0.00    -0.036 A 
HETATM   13  C8  UNL     1      27.507  -1.750  52.746  1.00  0.00     0.014 A 
HETATM   14  C9  UNL     1      28.801  -2.004  53.111  1.00  0.00     0.043 A 
HETATM   15  C10 UNL     1      29.573  -1.065  53.779  1.00  0.00     0.116 A 
HETATM   16  F1  UNL     1      30.832  -1.432  54.084  1.00  0.00    -0.206 F 
HETATM   17  C11 UNL     1      29.048   0.169  54.097  1.00  0.00     0.043 A 
HETATM   18  C12 UNL     1      27.741   0.424  53.728  1.00  0.00     0.014 A 
ENDBRANCH  11  12
ENDBRANCH   1  10
BRANCH   1  19
HETATM   19  C13 UNL     1      22.371  -0.167  53.629  1.00  0.00    -0.014 A 
HETATM   20  C14 UNL     1      21.066  -0.466  53.497  1.00  0.00     0.019 A 
HETATM   21 BR1  UNL     1      19.628   0.199  52.405  1.00  0.00    -0.050 Br
HETATM   22  C15 UNL     1      21.144  -1.495  54.504  1.00  0.00     0.020 A 
HETATM   23  C16 UNL     1      22.419  -1.213  54.644  1.00  0.00     0.012 A 
ENDBRANCH   1  19
TORSDOF 6
ENDMDL
MODEL 3
REMARK VINA RESULT:      -7.4      3.873      6.461
REMARK  6 active torsions:
REMARK  status: ('A' for Active; 'I' for Inactive)
REMARK    1  A    between atoms: C3_3  and  N1_4 
REMARK    2  A    between atoms: C3_3  and  N2_5 
REMARK    3  A    between atoms: N2_5  and  C4_6 
REMARK    4  A    between atoms: C4_6  and  C5_7 
REMARK    5  A    between atoms: C4_6  and  C13_16 
REMARK    6  A    between atoms: C6_8  and  C7_9 
ROOT
HETATM    1  C4  UNL     1      26.519   0.399  54.240  1.00  0.00     0.141 C 
ENDROOT
BRANCH   1   2
HETATM    2  N2  UNL     1      25.737  -0.796  54.297  1.00  0.00    -0.365 N 
HETATM    3  H7  UNL     1      25.816  -1.629  53.671  1.00  0.00     0.162 HD
BRANCH   2   4
HETATM    4  C3  UNL     1      24.715  -1.059  55.220  1.00  0.00     0.090 C 
HETATM    5  C2  UNL     1      23.431  -1.058  54.882  1.00  0.00     0.017 C 
HETATM    6  C1  UNL     1      23.080  -0.765  53.466  1.00  0.00     0.040 C 
BRANCH   4   7
HETATM    7  N1  UNL     1      25.069  -1.336  56.570  1.00  0.00    -0.386 N 
HETATM    8  H5  UNL     1      25.899  -1.989  56.683  1.00  0.00     0.157 HD
HETATM    9  H6  UNL     1      24.814  -1.135  57.565  1.00  0.00     0.157 HD
ENDBRANCH   4   7
ENDBRANCH   2   4
ENDBRANCH   1   2
BRANCH   1  10
HETATM   10  C5  UNL     1      25.971   1.423  53.287  1.00  0.00     0.004 C 
HETATM   11  C6  UNL     1      26.130   1.410  51.961  1.00  0.00     0.010 C 
BRANCH  11  12
HETATM   12  C7  UNL     1      25.601   2.399  51.032  1.00  0.00    -0.036 A 
HETATM   13  C8  UNL     1      26.503   3.245  50.377  1.00  0.00     0.014 A 
HETATM   14  C9  UNL     1      25.990   4.170  49.508  1.00  0.00     0.043 A 
HETATM   15  C10 UNL     1      24.627   4.279  49.273  1.00  0.00     0.116 A 
HETATM   16  F1  UNL     1      24.244   5.227  48.396  1.00  0.00    -0.206 F 
HETATM   17  C11 UNL     1      23.741   3.445  49.919  1.00  0.00     0.043 A 
HETATM   18  C12 UNL     1      24.260   2.512  50.796  1.00  0.00     0.014 A 
ENDBRANCH  11  12
ENDBRANCH   1  10
BRANCH   1  19
HETATM   19  C13 UNL     1      27.969   0.167  53.994  1.00  0.00    -0.014 A 
HETATM   20  C14 UNL     1      28.716  -0.853  53.538  1.00  0.00     0.019 A 
HETATM   21 BR1  UNL     1      28.341  -2.640  52.929  1.00  0.00    -0.050 Br
HETATM   22  C15 UNL     1      29.935  -0.096  53.679  1.00  0.00     0.020 A 
HETATM   23  C16 UNL     1      29.217   0.909  54.126  1.00  0.00     0.012 A 
ENDBRANCH   1  19
TORSDOF 6
ENDMDL
MODEL 4
REMARK VINA RESULT:      -7.4      3.303      5.693
REMARK  6 active torsions:
REMARK  status: ('A' for Active; 'I' for Inactive)
REMARK    1  A    between atoms: C3_3  and  N1_4 
REMARK    2  A    between atoms: C3_3  and  N2_5 
REMARK    3  A    between atoms: N2_5  and  C4_6 
REMARK    4  A    between atoms: C4_6  and  C5_7 
REMARK    5  A    between atoms: C4_6  and  C13_16 
REMARK    6  A    between atoms: C6_8  and  C7_9 
ROOT
HETATM    1  C4  UNL     1      26.357   1.859  51.666  1.00  0.00     0.141 C 
ENDROOT
BRANCH   1   2
HETATM    2  N2  UNL     1      26.003   3.224  51.432  1.00  0.00    -0.365 N 
HETATM    3  H7  UNL     1      25.735   3.935  52.149  1.00  0.00     0.162 HD
BRANCH   2   4
HETATM    4  C3  UNL     1      25.958   3.852  50.179  1.00  0.00     0.090 C 
HETATM    5  C2  UNL     1      24.819   4.076  49.535  1.00  0.00     0.017 C 
HETATM    6  C1  UNL     1      23.552   3.638  50.179  1.00  0.00     0.040 C 
BRANCH   4   7
HETATM    7  N1  UNL     1      27.179   4.265  49.579  1.00  0.00    -0.386 N 
HETATM    8  H5  UNL     1      27.071   4.984  48.806  1.00  0.00     0.157 HD
HETATM    9  H6  UNL     1      28.217   4.127  49.602  1.00  0.00     0.157 HD
ENDBRANCH   4   7
ENDBRANCH   2   4
ENDBRANCH   1   2
BRANCH   1  10
HETATM   10  C5  UNL     1      25.179   0.989  51.999  1.00  0.00     0.004 C 
HETATM   11  C6  UNL     1      24.308   1.209  52.987  1.00  0.00     0.010 C 
BRANCH  11  12
HETATM   12  C7  UNL     1      23.164   0.369  53.315  1.00  0.00    -0.036 A 
HETATM   13  C8  UNL     1      21.950   0.616  52.664  1.00  0.00     0.014 A 
HETATM   14  C9  UNL     1      20.884  -0.183  52.984  1.00  0.00     0.043 A 
HETATM   15  C10 UNL     1      20.987  -1.204  53.917  1.00  0.00     0.116 A 
HETATM   16  F1  UNL     1      19.869  -1.920  54.146  1.00  0.00    -0.206 F 
HETATM   17  C11 UNL     1      22.183  -1.444  54.557  1.00  0.00     0.043 A 
HETATM   18  C12 UNL     1      23.257  -0.638  54.233  1.00  0.00     0.014 A 
ENDBRANCH  11  12
ENDBRANCH   1  10
BRANCH   1  19
HETATM   19  C13 UNL     1      27.451   1.674  52.659  1.00  0.00    -0.014 A 
HETATM   20  C14 UNL     1      28.063   0.622  53.230  1.00  0.00     0.019 A 
HETATM   21 BR1  UNL     1      27.879  -1.288  53.096  1.00  0.00    -0.050 Br
HETATM   22  C15 UNL     1      28.931   1.477  54.001  1.00  0.00     0.020 A 
HETATM   23  C16 UNL     1      28.342   2.514  53.451  1.00  0.00     0.012 A 
ENDBRANCH   1  19
TORSDOF 6
ENDMDL
MODEL 5
REMARK VINA RESULT:      -7.3      3.698      6.243
REMARK  6 active torsions:
REMARK  status: ('A' for Active; 'I' for Inactive)
REMARK    1  A    between atoms: C3_3  and  N1_4 
REMARK    2  A    between atoms: C3_3  and  N2_5 
REMARK    3  A    between atoms: N2_5  and  C4_6 
REMARK    4  A    between atoms: C4_6  and  C5_7 
REMARK    5  A    between atoms: C4_6  and  C13_16 
REMARK    6  A    between atoms: C6_8  and  C7_9 
ROOT
HETATM    1  C4  UNL     1      25.815   2.421  52.090  1.00  0.00     0.141 C 
ENDROOT
BRANCH   1   2
HETATM    2  N2  UNL     1      26.935   1.534  52.135  1.00  0.00    -0.365 N 
HETATM    3  H7  UNL     1      27.231   0.859  51.393  1.00  0.00     0.162 HD
BRANCH   2   4
HETATM    4  C3  UNL     1      27.842   1.417  53.197  1.00  0.00     0.090 C 
HETATM    5  C2  UNL     1      28.256   0.241  53.655  1.00  0.00     0.017 C 
HETATM    6  C1  UNL     1      27.727  -0.989  53.006  1.00  0.00     0.040 C 
BRANCH   4   7
HETATM    7  N1  UNL     1      28.337   2.603  53.805  1.00  0.00    -0.386 N 
HETATM    8  H5  UNL     1      27.637   3.107  54.425  1.00  0.00     0.157 HD
HETATM    9  H6  UNL     1      29.180   3.218  53.888  1.00  0.00     0.157 HD
ENDBRANCH   4   7
ENDBRANCH   2   4
ENDBRANCH   1   2
BRANCH   1  10
HETATM   10  C5  UNL     1      24.500   1.730  52.310  1.00  0.00     0.004 C 
HETATM   11  C6  UNL     1      24.278   0.745  53.184  1.00  0.00     0.010 C 
BRANCH  11  12
HETATM   12  C7  UNL     1      23.005   0.072  53.402  1.00  0.00    -0.036 A 
HETATM   13  C8  UNL     1      21.913   0.442  52.608  1.00  0.00     0.014 A 
HETATM   14  C9  UNL     1      20.724  -0.200  52.826  1.00  0.00     0.043 A 
HETATM   15  C10 UNL     1      20.588  -1.185  53.794  1.00  0.00     0.116 A 
HETATM   16  F1  UNL     1      19.368  -1.743  53.913  1.00  0.00    -0.206 F 
HETATM   17  C11 UNL     1      21.665  -1.547  54.574  1.00  0.00     0.043 A 
HETATM   18  C12 UNL     1      22.864  -0.898  54.353  1.00  0.00     0.014 A 
ENDBRANCH  11  12
ENDBRANCH   1  10
BRANCH   1  19
HETATM   19  C13 UNL     1      25.767   3.281  50.876  1.00  0.00    -0.014 A 
HETATM   20  C14 UNL     1      25.008   4.308  50.455  1.00  0.00     0.019 A 
HETATM   21 BR1  UNL     1      23.518   5.280  51.188  1.00  0.00    -0.050 Br
HETATM   22  C15 UNL     1      25.742   4.415  49.219  1.00  0.00     0.020 A 
HETATM   23  C16 UNL     1      26.490   3.412  49.617  1.00  0.00     0.012 A 
ENDBRANCH   1  19
TORSDOF 6
ENDMDL
MODEL 6
REMARK VINA RESULT:      -7.2      2.337      3.912
REMARK  6 active torsions:
REMARK  status: ('A' for Active; 'I' for Inactive)
REMARK    1  A    between atoms: C3_3  and  N1_4 
REMARK    2  A    between atoms: C3_3  and  N2_5 
REMARK    3  A    between atoms: N2_5  and  C4_6 
REMARK    4  A    between atoms: C4_6  and  C5_7 
REMARK    5  A    between atoms: C4_6  and  C13_16 
REMARK    6  A    between atoms: C6_8  and  C7_9 
ROOT
HETATM    1  C4  UNL     1      23.275   1.187  52.304  1.00  0.00     0.141 C 
ENDROOT
BRANCH   1   2
HETATM    2  N2  UNL     1      22.430   0.888  53.417  1.00  0.00    -0.365 N 
HETATM    3  H7  UNL     1      22.427   1.363  54.347  1.00  0.00     0.162 HD
BRANCH   2   4
HETATM    4  C3  UNL     1      21.444  -0.108  53.448  1.00  0.00     0.090 C 
HETATM    5  C2  UNL     1      21.526  -1.167  54.245  1.00  0.00     0.017 C 
HETATM    6  C1  UNL     1      22.716  -1.287  55.131  1.00  0.00     0.040 C 
BRANCH   4   7
HETATM    7  N1  UNL     1      20.315   0.022  52.594  1.00  0.00    -0.386 N 
HETATM    8  H5  UNL     1      20.293   0.918  52.025  1.00  0.00     0.157 HD
HETATM    9  H6  UNL     1      19.435  -0.452  52.285  1.00  0.00     0.157 HD
ENDBRANCH   4   7
ENDBRANCH   2   4
ENDBRANCH   1   2
BRANCH   1  10
HETATM   10  C5  UNL     1      24.647   0.585  52.420  1.00  0.00     0.004 C 
HETATM   11  C6  UNL     1      25.453   0.692  53.479  1.00  0.00     0.010 C 
BRANCH  11  12
HETATM   12  C7  UNL     1      26.783   0.110  53.597  1.00  0.00    -0.036 A 
HETATM   13  C8  UNL     1      27.717   0.749  54.420  1.00  0.00     0.014 A 
HETATM   14  C9  UNL     1      28.963   0.189  54.520  1.00  0.00     0.043 A 
HETATM   15  C10 UNL     1      29.304  -0.968  53.837  1.00  0.00     0.116 A 
HETATM   16  F1  UNL     1      30.559  -1.422  54.016  1.00  0.00    -0.206 F 
HETATM   17  C11 UNL     1      28.382  -1.595  53.026  1.00  0.00     0.043 A 
HETATM   18  C12 UNL     1      27.126  -1.030  52.927  1.00  0.00     0.014 A 
ENDBRANCH  11  12
ENDBRANCH   1  10
BRANCH   1  19
HETATM   19  C13 UNL     1      23.359   2.636  51.974  1.00  0.00    -0.014 A 
HETATM   20  C14 UNL     1      23.318   3.370  50.847  1.00  0.00     0.019 A 
HETATM   21 BR1  UNL     1      23.127   2.968  48.975  1.00  0.00    -0.050 Br
HETATM   22  C15 UNL     1      23.476   4.602  51.579  1.00  0.00     0.020 A 
HETATM   23  C16 UNL     1      23.518   3.898  52.687  1.00  0.00     0.012 A 
ENDBRANCH   1  19
TORSDOF 6
ENDMDL
MODEL 7
REMARK VINA RESULT:      -7.0      3.460      5.637
REMARK  6 active torsions:
REMARK  status: ('A' for Active; 'I' for Inactive)
REMARK    1  A    between atoms: C3_3  and  N1_4 
REMARK    2  A    between atoms: C3_3  and  N2_5 
REMARK    3  A    between atoms: N2_5  and  C4_6 
REMARK    4  A    between atoms: C4_6  and  C5_7 
REMARK    5  A    between atoms: C4_6  and  C13_16 
REMARK    6  A    between atoms: C6_8  and  C7_9 
ROOT
HETATM    1  C4  UNL     1      24.460  -0.179  53.253  1.00  0.00     0.141 C 
ENDROOT
BRANCH   1   2
HETATM    2  N2  UNL     1      25.447  -0.482  54.240  1.00  0.00    -0.365 N 
HETATM    3  H7  UNL     1      25.294  -0.966  55.154  1.00  0.00     0.162 HD
BRANCH   2   4
HETATM    4  C3  UNL     1      26.813  -0.180  54.148  1.00  0.00     0.090 C 
HETATM    5  C2  UNL     1      27.642  -0.855  53.361  1.00  0.00     0.017 C 
HETATM    6  C1  UNL     1      27.084  -1.973  52.552  1.00  0.00     0.040 C 
BRANCH   4   7
HETATM    7  N1  UNL     1      27.329   0.891  54.929  1.00  0.00    -0.386 N 
HETATM    8  H5  UNL     1      27.431   0.674  55.964  1.00  0.00     0.157 HD
HETATM    9  H6  UNL     1      27.671   1.879  54.881  1.00  0.00     0.157 HD
ENDBRANCH   4   7
ENDBRANCH   2   4
ENDBRANCH   1   2
BRANCH   1  10
HETATM   10  C5  UNL     1      24.620   1.189  52.652  1.00  0.00     0.004 C 
HETATM   11  C6  UNL     1      25.130   1.450  51.446  1.00  0.00     0.010 C 
BRANCH  11  12
HETATM   12  C7  UNL     1      25.288   2.773  50.858  1.00  0.00    -0.036 A 
HETATM   13  C8  UNL     1      26.384   3.000  50.017  1.00  0.00     0.014 A 
HETATM   14  C9  UNL     1      26.518   4.249  49.472  1.00  0.00     0.043 A 
HETATM   15  C10 UNL     1      25.611   5.265  49.734  1.00  0.00     0.116 A 
HETATM   16  F1  UNL     1      25.850   6.450  49.140  1.00  0.00    -0.206 F 
HETATM   17  C11 UNL     1      24.533   5.039  50.563  1.00  0.00     0.043 A 
HETATM   18  C12 UNL     1      24.399   3.778  51.111  1.00  0.00     0.014 A 
ENDBRANCH  11  12
ENDBRANCH   1  10
BRANCH   1  19
HETATM   19  C13 UNL     1      23.058  -0.398  53.705  1.00  0.00    -0.014 A 
HETATM   20  C14 UNL     1      21.837  -0.233  53.167  1.00  0.00     0.019 A 
HETATM   21 BR1  UNL     1      21.178   0.395  51.471  1.00  0.00    -0.050 Br
HETATM   22  C15 UNL     1      21.186  -0.711  54.361  1.00  0.00     0.020 A 
HETATM   23  C16 UNL     1      22.372  -0.877  54.899  1.00  0.00     0.012 A 
ENDBRANCH   1  19
TORSDOF 6
ENDMDL
MODEL 8
REMARK VINA RESULT:      -6.9      3.769      6.088
REMARK  6 active torsions:
REMARK  status: ('A' for Active; 'I' for Inactive)
REMARK    1  A    between atoms: C3_3  and  N1_4 
REMARK    2  A    between atoms: C3_3  and  N2_5 
REMARK    3  A    between atoms: N2_5  and  C4_6 
REMARK    4  A    between atoms: C4_6  and  C5_7 
REMARK    5  A    between atoms: C4_6  and  C13_16 
REMARK    6  A    between atoms: C6_8  and  C7_9 
ROOT
HETATM    1  C4  UNL     1      24.868   0.941  53.132  1.00  0.00     0.141 C 
ENDROOT
BRANCH   1   2
HETATM    2  N2  UNL     1      23.680   0.211  52.819  1.00  0.00    -0.365 N 
HETATM    3  H7  UNL     1      23.602  -0.623  52.194  1.00  0.00     0.162 HD
BRANCH   2   4
HETATM    4  C3  UNL     1      22.396   0.494  53.306  1.00  0.00     0.090 C 
HETATM    5  C2  UNL     1      21.860  -0.165  54.327  1.00  0.00     0.017 C 
HETATM    6  C1  UNL     1      22.664  -1.241  54.966  1.00  0.00     0.040 C 
BRANCH   4   7
HETATM    7  N1  UNL     1      21.641   1.525  52.682  1.00  0.00    -0.386 N 
HETATM    8  H5  UNL     1      22.138   2.462  52.623  1.00  0.00     0.157 HD
HETATM    9  H6  UNL     1      20.724   1.738  52.226  1.00  0.00     0.157 HD
ENDBRANCH   4   7
ENDBRANCH   2   4
ENDBRANCH   1   2
BRANCH   1  10
HETATM   10  C5  UNL     1      25.031   2.191  52.315  1.00  0.00     0.004 C 
HETATM   11  C6  UNL     1      25.470   2.242  51.056  1.00  0.00     0.010 C 
BRANCH  11  12
HETATM   12  C7  UNL     1      25.630   3.451  50.259  1.00  0.00    -0.036 A 
HETATM   13  C8  UNL     1      24.540   4.323  50.149  1.00  0.00     0.014 A 
HETATM   14  C9  UNL     1      24.707   5.454  49.396  1.00  0.00     0.043 A 
HETATM   15  C10 UNL     1      25.904   5.742  48.758  1.00  0.00     0.116 A 
HETATM   16  F1  UNL     1      25.945   6.884  48.046  1.00  0.00    -0.206 F 
HETATM   17  C11 UNL     1      26.975   4.881  48.867  1.00  0.00     0.043 A 
HETATM   18  C12 UNL     1      26.806   3.740  49.627  1.00  0.00     0.014 A 
ENDBRANCH  11  12
ENDBRANCH   1  10
BRANCH   1  19
HETATM   19  C13 UNL     1      26.111   0.123  53.102  1.00  0.00    -0.014 A 
HETATM   20  C14 UNL     1      27.426   0.365  53.253  1.00  0.00     0.019 A 
HETATM   21 BR1  UNL     1      28.483   1.935  53.598  1.00  0.00    -0.050 Br
HETATM   22  C15 UNL     1      27.760  -1.023  53.054  1.00  0.00     0.020 A 
HETATM   23  C16 UNL     1      26.480  -1.274  52.904  1.00  0.00     0.012 A 
ENDBRANCH   1  19
TORSDOF 6
ENDMDL
MODEL 9
REMARK VINA RESULT:      -6.8      1.527      2.043
REMARK  6 active torsions:
REMARK  status: ('A' for Active; 'I' for Inactive)
REMARK    1  A    between atoms: C3_3  and  N1_4 
REMARK    2  A    between atoms: C3_3  and  N2_5 
REMARK    3  A    between atoms: N2_5  and  C4_6 
REMARK    4  A    between atoms: C4_6  and  C5_7 
REMARK    5  A    between atoms: C4_6  and  C13_16 
REMARK    6  A    between atoms: C6_8  and  C7_9 
ROOT
HETATM    1  C4  UNL     1      22.806   1.928  52.688  1.00  0.00     0.141 C 
ENDROOT
BRANCH   1   2
HETATM    2  N2  UNL     1      22.715   2.837  51.589  1.00  0.00    -0.365 N 
HETATM    3  H7  UNL     1      22.345   3.814  51.612  1.00  0.00     0.162 HD
BRANCH   2   4
HETATM    4  C3  UNL     1      23.114   2.568  50.272  1.00  0.00     0.090 C 
HETATM    5  C2  UNL     1      24.181   3.135  49.721  1.00  0.00     0.017 C 
HETATM    6  C1  UNL     1      24.971   4.089  50.545  1.00  0.00     0.040 C 
BRANCH   4   7
HETATM    7  N1  UNL     1      22.346   1.654  49.500  1.00  0.00    -0.386 N 
HETATM    8  H5  UNL     1      22.853   1.251  48.659  1.00  0.00     0.157 HD
HETATM    9  H6  UNL     1      21.411   1.188  49.431  1.00  0.00     0.157 HD
ENDBRANCH   4   7
ENDBRANCH   2   4
ENDBRANCH   1   2
BRANCH   1  10
HETATM   10  C5  UNL     1      24.071   1.119  52.687  1.00  0.00     0.004 C 
HETATM   11  C6  UNL     1      25.227   1.487  53.246  1.00  0.00     0.010 C 
BRANCH  11  12
HETATM   12  C7  UNL     1      26.457   0.707  53.249  1.00  0.00    -0.036 A 
HETATM   13  C8  UNL     1      27.647   1.344  53.617  1.00  0.00     0.014 A 
HETATM   14  C9  UNL     1      28.794   0.596  53.614  1.00  0.00     0.043 A 
HETATM   15  C10 UNL     1      28.795  -0.745  53.261  1.00  0.00     0.116 A 
HETATM   16  F1  UNL     1      29.986  -1.373  53.297  1.00  0.00    -0.206 F 
HETATM   17  C11 UNL     1      27.621  -1.370  52.899  1.00  0.00     0.043 A 
HETATM   18  C12 UNL     1      26.465  -0.615  52.902  1.00  0.00     0.014 A 
ENDBRANCH  11  12
ENDBRANCH   1  10
BRANCH   1  19
HETATM   19  C13 UNL     1      21.615   1.050  52.854  1.00  0.00    -0.014 A 
HETATM   20  C14 UNL     1      21.322  -0.048  53.573  1.00  0.00     0.019 A 
HETATM   21 BR1  UNL     1      22.288  -1.144  54.826  1.00  0.00    -0.050 Br
HETATM   22  C15 UNL     1      19.982  -0.104  53.043  1.00  0.00     0.020 A 
HETATM   23  C16 UNL     1      20.255   0.968  52.335  1.00  0.00     0.012 A 
ENDBRANCH   1  19
TORSDOF 6
ENDMDL
