MODEL 1
REMARK VINA RESULT:      -8.0      0.000      0.000
REMARK  6 active torsions:
REMARK  status: ('A' for Active; 'I' for Inactive)
REMARK    1  A    between atoms: C2_2  and  C3_3 
REMARK    2  A    between atoms: C4_4  and  O1_5 
REMARK    3  A    between atoms: O1_5  and  N1_6 
REMARK    4  A    between atoms: C7_9  and  O2_11 
REMARK    5  A    between atoms: C11_14  and  N2_15 
REMARK    6  A    between atoms: N2_15  and  C12_16 
ROOT
HETATM    1  C1  UNL     1      21.035   0.051  54.477  1.00  0.00     0.049 C 
HETATM    2  C2  UNL     1      22.071   0.240  53.400  1.00  0.00    -0.044 C 
HETATM    3  C11 UNL     1      21.954   1.172  52.440  1.00  0.00     0.113 C 
ENDROOT
BRANCH   2   4
HETATM    4  C3  UNL     1      23.235  -0.672  53.428  1.00  0.00     0.034 C 
HETATM    5  C4  UNL     1      24.280  -0.429  54.225  1.00  0.00     0.161 C 
BRANCH   5   6
HETATM    6  O1  UNL     1      25.334  -1.330  54.198  1.00  0.00    -0.274 OA
BRANCH   6   7
HETATM    7  N1  UNL     1      26.611  -0.909  54.021  1.00  0.00    -0.192 NA
HETATM    8  C5  UNL     1      26.704  -0.227  52.771  1.00  0.00     0.124 C 
HETATM    9  C6  UNL     1      28.024   0.439  52.520  1.00  0.00     0.054 C 
HETATM   10  C7  UNL     1      29.016   0.039  53.606  1.00  0.00     0.056 C 
HETATM   11  C8  UNL     1      29.364  -1.411  53.523  1.00  0.00     0.045 C 
HETATM   12  C9  UNL     1      28.398   0.456  54.910  1.00  0.00     0.054 C 
HETATM   13  C10 UNL     1      27.067  -0.187  55.165  1.00  0.00     0.124 C 
BRANCH  10  14
HETATM   14  O2  UNL     1      30.153   0.848  53.425  1.00  0.00    -0.390 OA
HETATM   15  H13 UNL     1      30.906   0.447  53.954  1.00  0.00     0.210 HD
ENDBRANCH  10  14
ENDBRANCH   6   7
ENDBRANCH   5   6
ENDBRANCH   2   4
BRANCH   3  16
HETATM   16  N2  UNL     1      22.965   1.329  51.425  1.00  0.00    -0.196 N 
HETATM   17  H19 UNL     1      23.502   0.725  50.788  1.00  0.00     0.183 HD
BRANCH  16  18
HETATM   18  C12 UNL     1      23.065   2.764  51.527  1.00  0.00     0.743 A 
HETATM   19  N3  UNL     1      22.276   3.622  52.207  1.00  0.00    -0.071 NA
HETATM   20  C13 UNL     1      22.604   4.944  52.121  1.00  0.00     0.168 A 
HETATM   21  C14 UNL     1      23.695   5.398  51.373  1.00  0.00     0.077 A 
HETATM   22  C15 UNL     1      24.208   6.657  51.140  1.00  0.00     0.035 A 
HETATM   23  N4  UNL     1      24.452   4.496  50.711  1.00  0.00    -0.222 N 
HETATM   24  C16 UNL     1      25.284   6.478  50.329  1.00  0.00     0.029 A 
HETATM   25  C17 UNL     1      25.456   5.136  50.048  1.00  0.00     0.033 A 
HETATM   26  C18 UNL     1      26.522   4.541  49.201  1.00  0.00     0.070 C 
HETATM   27  N5  UNL     1      24.134   3.193  50.793  1.00  0.00     0.026 NA
ENDBRANCH  16  18
ENDBRANCH   3  16
TORSDOF 6
ENDMDL
MODEL 2
REMARK VINA RESULT:      -7.9      2.913      7.056
REMARK  6 active torsions:
REMARK  status: ('A' for Active; 'I' for Inactive)
REMARK    1  A    between atoms: C2_2  and  C3_3 
REMARK    2  A    between atoms: C4_4  and  O1_5 
REMARK    3  A    between atoms: O1_5  and  N1_6 
REMARK    4  A    between atoms: C7_9  and  O2_11 
REMARK    5  A    between atoms: C11_14  and  N2_15 
REMARK    6  A    between atoms: N2_15  and  C12_16 
ROOT
HETATM    1  C1  UNL     1      23.094   0.366  52.509  1.00  0.00     0.049 C 
HETATM    2  C2  UNL     1      24.008   1.562  52.571  1.00  0.00    -0.044 C 
HETATM    3  C11 UNL     1      25.049   1.632  53.417  1.00  0.00     0.113 C 
ENDROOT
BRANCH   2   4
HETATM    4  C3  UNL     1      23.698   2.686  51.662  1.00  0.00     0.034 C 
HETATM    5  C4  UNL     1      22.713   3.546  51.943  1.00  0.00     0.161 C 
BRANCH   5   6
HETATM    6  O1  UNL     1      22.482   4.576  51.044  1.00  0.00    -0.274 OA
BRANCH   6   7
HETATM    7  N1  UNL     1      23.504   5.152  50.362  1.00  0.00    -0.192 NA
HETATM    8  C5  UNL     1      23.084   5.400  49.021  1.00  0.00     0.124 C 
HETATM    9  C6  UNL     1      24.059   6.188  48.198  1.00  0.00     0.054 C 
HETATM   10  C7  UNL     1      25.365   6.352  48.966  1.00  0.00     0.056 C 
HETATM   11  C8  UNL     1      26.069   5.045  49.139  1.00  0.00     0.045 C 
HETATM   12  C9  UNL     1      25.009   7.041  50.253  1.00  0.00     0.054 C 
HETATM   13  C10 UNL     1      24.018   6.274  51.078  1.00  0.00     0.124 C 
BRANCH  10  14
HETATM   14  O2  UNL     1      26.150   7.260  48.230  1.00  0.00    -0.390 OA
HETATM   15  H13 UNL     1      26.845   6.736  47.732  1.00  0.00     0.210 HD
ENDBRANCH  10  14
ENDBRANCH   6   7
ENDBRANCH   5   6
ENDBRANCH   2   4
BRANCH   3  16
HETATM   16  N2  UNL     1      25.907   2.790  53.450  1.00  0.00    -0.196 N 
HETATM   17  H19 UNL     1      25.809   3.811  53.371  1.00  0.00     0.183 HD
BRANCH  16  18
HETATM   18  C12 UNL     1      27.138   2.064  53.652  1.00  0.00     0.743 A 
HETATM   19  N3  UNL     1      28.312   2.509  54.146  1.00  0.00    -0.071 NA
HETATM   20  C13 UNL     1      29.323   1.595  54.219  1.00  0.00     0.168 A 
HETATM   21  C14 UNL     1      29.164   0.268  53.809  1.00  0.00     0.077 A 
HETATM   22  C15 UNL     1      30.022  -0.811  53.786  1.00  0.00     0.035 A 
HETATM   23  N4  UNL     1      27.966  -0.125  53.323  1.00  0.00    -0.222 N 
HETATM   24  C16 UNL     1      29.305  -1.849  53.278  1.00  0.00     0.029 A 
HETATM   25  C17 UNL     1      28.018  -1.443  52.981  1.00  0.00     0.033 A 
HETATM   26  C18 UNL     1      26.936  -2.288  52.413  1.00  0.00     0.070 C 
HETATM   27  N5  UNL     1      26.967   0.771  53.248  1.00  0.00     0.026 NA
ENDBRANCH  16  18
ENDBRANCH   3  16
TORSDOF 6
ENDMDL
MODEL 3
REMARK VINA RESULT:      -7.8      3.003      6.940
REMARK  6 active torsions:
REMARK  status: ('A' for Active; 'I' for Inactive)
REMARK    1  A    between atoms: C2_2  and  C3_3 
REMARK    2  A    between atoms: C4_4  and  O1_5 
REMARK    3  A    between atoms: O1_5  and  N1_6 
REMARK    4  A    between atoms: C7_9  and  O2_11 
REMARK    5  A    between atoms: C11_14  and  N2_15 
REMARK    6  A    between atoms: N2_15  and  C12_16 
ROOT
HETATM    1  C1  UNL     1      24.790   3.205  49.745  1.00  0.00     0.049 C 
HETATM    2  C2  UNL     1      24.669   2.877  51.210  1.00  0.00    -0.044 C 
HETATM    3  C11 UNL     1      25.703   2.974  52.061  1.00  0.00     0.113 C 
ENDROOT
BRANCH   2   4
HETATM    4  C3  UNL     1      23.346   2.413  51.681  1.00  0.00     0.034 C 
HETATM    5  C4  UNL     1      22.219   2.868  51.124  1.00  0.00     0.161 C 
BRANCH   5   6
HETATM    6  O1  UNL     1      21.016   2.386  51.618  1.00  0.00    -0.274 OA
BRANCH   6   7
HETATM    7  N1  UNL     1      20.966   1.236  52.336  1.00  0.00    -0.192 NA
HETATM    8  C5  UNL     1      20.948   1.559  53.726  1.00  0.00     0.124 C 
HETATM    9  C6  UNL     1      20.724   0.388  54.636  1.00  0.00     0.054 C 
HETATM   10  C7  UNL     1      20.774  -0.905  53.831  1.00  0.00     0.056 C 
HETATM   11  C8  UNL     1      22.144  -1.167  53.296  1.00  0.00     0.045 C 
HETATM   12  C9  UNL     1      19.710  -0.782  52.778  1.00  0.00     0.054 C 
HETATM   13  C10 UNL     1      19.909   0.397  51.872  1.00  0.00     0.124 C 
BRANCH  10  14
HETATM   14  O2  UNL     1      20.360  -1.932  54.700  1.00  0.00    -0.390 OA
HETATM   15  H13 UNL     1      19.393  -2.123  54.516  1.00  0.00     0.210 HD
ENDBRANCH  10  14
ENDBRANCH   6   7
ENDBRANCH   5   6
ENDBRANCH   2   4
BRANCH   3  16
HETATM   16  N2  UNL     1      25.553   2.655  53.459  1.00  0.00    -0.196 N 
HETATM   17  H19 UNL     1      24.837   2.764  54.190  1.00  0.00     0.183 HD
BRANCH  16  18
HETATM   18  C12 UNL     1      26.852   2.050  53.620  1.00  0.00     0.743 A 
HETATM   19  N3  UNL     1      28.001   2.611  54.051  1.00  0.00    -0.071 NA
HETATM   20  C13 UNL     1      29.093   1.796  54.098  1.00  0.00     0.168 A 
HETATM   21  C14 UNL     1      29.040   0.449  53.723  1.00  0.00     0.077 A 
HETATM   22  C15 UNL     1      29.992  -0.547  53.684  1.00  0.00     0.035 A 
HETATM   23  N4  UNL     1      27.864  -0.063  53.299  1.00  0.00    -0.222 N 
HETATM   24  C16 UNL     1      29.352  -1.658  53.230  1.00  0.00     0.029 A 
HETATM   25  C17 UNL     1      28.022  -1.379  52.983  1.00  0.00     0.033 A 
HETATM   26  C18 UNL     1      26.998  -2.333  52.482  1.00  0.00     0.070 C 
HETATM   27  N5  UNL     1      26.784   0.737  53.251  1.00  0.00     0.026 NA
ENDBRANCH  16  18
ENDBRANCH   3  16
TORSDOF 6
ENDMDL
MODEL 4
REMARK VINA RESULT:      -7.6      5.310      7.610
REMARK  6 active torsions:
REMARK  status: ('A' for Active; 'I' for Inactive)
REMARK    1  A    between atoms: C2_2  and  C3_3 
REMARK    2  A    between atoms: C4_4  and  O1_5 
REMARK    3  A    between atoms: O1_5  and  N1_6 
REMARK    4  A    between atoms: C7_9  and  O2_11 
REMARK    5  A    between atoms: C11_14  and  N2_15 
REMARK    6  A    between atoms: N2_15  and  C12_16 
ROOT
HETATM    1  C1  UNL     1      26.130   6.729  48.622  1.00  0.00     0.049 C 
HETATM    2  C2  UNL     1      27.267   5.741  48.580  1.00  0.00    -0.044 C 
HETATM    3  C11 UNL     1      28.480   6.056  48.099  1.00  0.00     0.113 C 
ENDROOT
BRANCH   2   4
HETATM    4  C3  UNL     1      26.984   4.379  49.081  1.00  0.00     0.034 C 
HETATM    5  C4  UNL     1      25.998   4.158  49.956  1.00  0.00     0.161 C 
BRANCH   5   6
HETATM    6  O1  UNL     1      25.792   2.853  50.378  1.00  0.00    -0.274 OA
BRANCH   6   7
HETATM    7  N1  UNL     1      26.367   2.387  51.514  1.00  0.00    -0.192 NA
HETATM    8  C5  UNL     1      25.529   2.711  52.623  1.00  0.00     0.124 C 
HETATM    9  C6  UNL     1      25.960   2.109  53.928  1.00  0.00     0.054 C 
HETATM   10  C7  UNL     1      27.326   1.452  53.765  1.00  0.00     0.056 C 
HETATM   11  C8  UNL     1      28.394   2.465  53.507  1.00  0.00     0.045 C 
HETATM   12  C9  UNL     1      27.169   0.425  52.680  1.00  0.00     0.054 C 
HETATM   13  C10 UNL     1      26.718   1.011  51.374  1.00  0.00     0.124 C 
BRANCH  10  14
HETATM   14  O2  UNL     1      27.572   0.743  54.955  1.00  0.00    -0.390 OA
HETATM   15  H13 UNL     1      27.265  -0.203  54.822  1.00  0.00     0.210 HD
ENDBRANCH  10  14
ENDBRANCH   6   7
ENDBRANCH   5   6
ENDBRANCH   2   4
BRANCH   3  16
HETATM   16  N2  UNL     1      29.549   5.089  48.076  1.00  0.00    -0.196 N 
HETATM   17  H19 UNL     1      29.649   4.070  47.968  1.00  0.00     0.183 HD
BRANCH  16  18
HETATM   18  C12 UNL     1      30.619   6.035  48.273  1.00  0.00     0.743 A 
HETATM   19  N3  UNL     1      30.544   7.359  48.525  1.00  0.00    -0.071 NA
HETATM   20  C13 UNL     1      31.731   8.017  48.661  1.00  0.00     0.168 A 
HETATM   21  C14 UNL     1      32.965   7.369  48.550  1.00  0.00     0.077 A 
HETATM   22  C15 UNL     1      34.266   7.815  48.646  1.00  0.00     0.035 A 
HETATM   23  N4  UNL     1      32.983   6.042  48.299  1.00  0.00    -0.222 N 
HETATM   24  C16 UNL     1      35.052   6.724  48.446  1.00  0.00     0.029 A 
HETATM   25  C17 UNL     1      34.271   5.604  48.228  1.00  0.00     0.033 A 
HETATM   26  C18 UNL     1      34.760   4.224  47.974  1.00  0.00     0.070 C 
HETATM   27  N5  UNL     1      31.816   5.388  48.163  1.00  0.00     0.026 NA
ENDBRANCH  16  18
ENDBRANCH   3  16
TORSDOF 6
ENDMDL
MODEL 5
REMARK VINA RESULT:      -7.6      2.692      6.655
REMARK  6 active torsions:
REMARK  status: ('A' for Active; 'I' for Inactive)
REMARK    1  A    between atoms: C2_2  and  C3_3 
REMARK    2  A    between atoms: C4_4  and  O1_5 
REMARK    3  A    between atoms: O1_5  and  N1_6 
REMARK    4  A    between atoms: C7_9  and  O2_11 
REMARK    5  A    between atoms: C11_14  and  N2_15 
REMARK    6  A    between atoms: N2_15  and  C12_16 
ROOT
HETATM    1  C1  UNL     1      21.135   0.717  51.998  1.00  0.00     0.049 C 
HETATM    2  C2  UNL     1      22.337   1.561  52.335  1.00  0.00    -0.044 C 
HETATM    3  C11 UNL     1      23.362   1.098  53.068  1.00  0.00     0.113 C 
ENDROOT
BRANCH   2   4
HETATM    4  C3  UNL     1      22.335   2.952  51.834  1.00  0.00     0.034 C 
HETATM    5  C4  UNL     1      22.735   3.237  50.590  1.00  0.00     0.161 C 
BRANCH   5   6
HETATM    6  O1  UNL     1      22.703   4.564  50.192  1.00  0.00    -0.274 OA
BRANCH   6   7
HETATM    7  N1  UNL     1      23.838   5.214  49.832  1.00  0.00    -0.192 NA
HETATM    8  C5  UNL     1      24.075   6.276  50.754  1.00  0.00     0.124 C 
HETATM    9  C6  UNL     1      25.389   6.977  50.575  1.00  0.00     0.054 C 
HETATM   10  C7  UNL     1      26.062   6.489  49.297  1.00  0.00     0.056 C 
HETATM   11  C8  UNL     1      25.301   6.911  48.082  1.00  0.00     0.045 C 
HETATM   12  C9  UNL     1      26.216   5.003  49.448  1.00  0.00     0.054 C 
HETATM   13  C10 UNL     1      24.911   4.291  49.649  1.00  0.00     0.124 C 
BRANCH  10  14
HETATM   14  O2  UNL     1      27.361   7.029  49.299  1.00  0.00    -0.390 OA
HETATM   15  H13 UNL     1      27.855   6.651  48.511  1.00  0.00     0.210 HD
ENDBRANCH  10  14
ENDBRANCH   6   7
ENDBRANCH   5   6
ENDBRANCH   2   4
BRANCH   3  16
HETATM   16  N2  UNL     1      24.500   1.930  53.370  1.00  0.00    -0.196 N 
HETATM   17  H19 UNL     1      24.679   2.916  53.605  1.00  0.00     0.183 HD
BRANCH  16  18
HETATM   18  C12 UNL     1      25.491   0.889  53.244  1.00  0.00     0.743 A 
HETATM   19  N3  UNL     1      25.336  -0.381  52.814  1.00  0.00    -0.071 NA
HETATM   20  C13 UNL     1      26.457  -1.158  52.805  1.00  0.00     0.168 A 
HETATM   21  C14 UNL     1      27.705  -0.678  53.215  1.00  0.00     0.077 A 
HETATM   22  C15 UNL     1      28.950  -1.263  53.293  1.00  0.00     0.035 A 
HETATM   23  N4  UNL     1      27.804   0.603  53.635  1.00  0.00    -0.222 N 
HETATM   24  C16 UNL     1      29.787  -0.302  53.768  1.00  0.00     0.029 A 
HETATM   25  C17 UNL     1      29.093   0.872  53.988  1.00  0.00     0.033 A 
HETATM   26  C18 UNL     1      29.657   2.148  54.500  1.00  0.00     0.070 C 
HETATM   27  N5  UNL     1      26.703   1.372  53.646  1.00  0.00     0.026 NA
ENDBRANCH  16  18
ENDBRANCH   3  16
TORSDOF 6
ENDMDL
MODEL 6
REMARK VINA RESULT:      -7.5      1.537      2.381
REMARK  6 active torsions:
REMARK  status: ('A' for Active; 'I' for Inactive)
REMARK    1  A    between atoms: C2_2  and  C3_3 
REMARK    2  A    between atoms: C4_4  and  O1_5 
REMARK    3  A    between atoms: O1_5  and  N1_6 
REMARK    4  A    between atoms: C7_9  and  O2_11 
REMARK    5  A    between atoms: C11_14  and  N2_15 
REMARK    6  A    between atoms: N2_15  and  C12_16 
ROOT
HETATM    1  C1  UNL     1      21.315   1.439  50.596  1.00  0.00     0.049 C 
HETATM    2  C2  UNL     1      21.932   2.389  51.589  1.00  0.00    -0.044 C 
HETATM    3  C11 UNL     1      21.823   3.723  51.477  1.00  0.00     0.113 C 
ENDROOT
BRANCH   2   4
HETATM    4  C3  UNL     1      22.695   1.785  52.703  1.00  0.00     0.034 C 
HETATM    5  C4  UNL     1      23.813   1.089  52.473  1.00  0.00     0.161 C 
BRANCH   5   6
HETATM    6  O1  UNL     1      24.475   0.554  53.568  1.00  0.00    -0.274 OA
BRANCH   6   7
HETATM    7  N1  UNL     1      25.824   0.639  53.679  1.00  0.00    -0.192 NA
HETATM    8  C5  UNL     1      26.422  -0.246  52.733  1.00  0.00     0.124 C 
HETATM    9  C6  UNL     1      27.914  -0.133  52.629  1.00  0.00     0.054 C 
HETATM   10  C7  UNL     1      28.438   0.782  53.730  1.00  0.00     0.056 C 
HETATM   11  C8  UNL     1      28.252   0.174  55.083  1.00  0.00     0.045 C 
HETATM   12  C9  UNL     1      27.745   2.101  53.542  1.00  0.00     0.054 C 
HETATM   13  C10 UNL     1      26.251   1.999  53.622  1.00  0.00     0.124 C 
BRANCH  10  14
HETATM   14  O2  UNL     1      29.800   1.001  53.453  1.00  0.00    -0.390 OA
HETATM   15  H13 UNL     1      29.967   1.990  53.482  1.00  0.00     0.210 HD
ENDBRANCH  10  14
ENDBRANCH   6   7
ENDBRANCH   5   6
ENDBRANCH   2   4
BRANCH   3  16
HETATM   16  N2  UNL     1      22.424   4.605  52.447  1.00  0.00    -0.196 N 
HETATM   17  H19 UNL     1      22.362   4.775  53.460  1.00  0.00     0.183 HD
BRANCH  16  18
HETATM   18  C12 UNL     1      23.268   5.309  51.513  1.00  0.00     0.743 A 
HETATM   19  N3  UNL     1      23.160   6.577  51.062  1.00  0.00    -0.071 NA
HETATM   20  C13 UNL     1      24.106   6.983  50.167  1.00  0.00     0.168 A 
HETATM   21  C14 UNL     1      25.137   6.144  49.733  1.00  0.00     0.077 A 
HETATM   22  C15 UNL     1      26.182   6.328  48.852  1.00  0.00     0.035 A 
HETATM   23  N4  UNL     1      25.198   4.884  50.216  1.00  0.00    -0.222 N 
HETATM   24  C16 UNL     1      26.862   5.151  48.828  1.00  0.00     0.029 A 
HETATM   25  C17 UNL     1      26.266   4.234  49.673  1.00  0.00     0.033 A 
HETATM   26  C18 UNL     1      26.716   2.840  49.921  1.00  0.00     0.070 C 
HETATM   27  N5  UNL     1      24.269   4.478  51.098  1.00  0.00     0.026 NA
ENDBRANCH  16  18
ENDBRANCH   3  16
TORSDOF 6
ENDMDL
MODEL 7
REMARK VINA RESULT:      -7.5      4.110      6.072
REMARK  6 active torsions:
REMARK  status: ('A' for Active; 'I' for Inactive)
REMARK    1  A    between atoms: C2_2  and  C3_3 
REMARK    2  A    between atoms: C4_4  and  O1_5 
REMARK    3  A    between atoms: O1_5  and  N1_6 
REMARK    4  A    between atoms: C7_9  and  O2_11 
REMARK    5  A    between atoms: C11_14  and  N2_15 
REMARK    6  A    between atoms: N2_15  and  C12_16 
ROOT
HETATM    1  C1  UNL     1      24.338   5.584  49.637  1.00  0.00     0.049 C 
HETATM    2  C2  UNL     1      25.615   4.839  49.349  1.00  0.00    -0.044 C 
HETATM    3  C11 UNL     1      26.675   5.421  48.766  1.00  0.00     0.113 C 
ENDROOT
BRANCH   2   4
HETATM    4  C3  UNL     1      25.649   3.408  49.720  1.00  0.00     0.034 C 
HETATM    5  C4  UNL     1      25.454   3.020  50.984  1.00  0.00     0.161 C 
BRANCH   5   6
HETATM    6  O1  UNL     1      25.499   1.661  51.255  1.00  0.00    -0.274 OA
BRANCH   6   7
HETATM    7  N1  UNL     1      26.243   1.176  52.280  1.00  0.00    -0.192 NA
HETATM    8  C5  UNL     1      26.607  -0.173  51.990  1.00  0.00     0.124 C 
HETATM    9  C6  UNL     1      27.572  -0.781  52.963  1.00  0.00     0.054 C 
HETATM   10  C7  UNL     1      27.767   0.156  54.149  1.00  0.00     0.056 C 
HETATM   11  C8  UNL     1      26.520   0.276  54.963  1.00  0.00     0.045 C 
HETATM   12  C9  UNL     1      28.264   1.454  53.579  1.00  0.00     0.054 C 
HETATM   13  C10 UNL     1      27.317   2.064  52.588  1.00  0.00     0.124 C 
BRANCH  10  14
HETATM   14  O2  UNL     1      28.823  -0.378  54.910  1.00  0.00    -0.390 OA
HETATM   15  H13 UNL     1      29.335  -1.014  54.328  1.00  0.00     0.210 HD
ENDBRANCH  10  14
ENDBRANCH   6   7
ENDBRANCH   5   6
ENDBRANCH   2   4
BRANCH   3  16
HETATM   16  N2  UNL     1      27.884   4.680  48.506  1.00  0.00    -0.196 N 
HETATM   17  H19 UNL     1      28.163   3.696  48.393  1.00  0.00     0.183 HD
BRANCH  16  18
HETATM   18  C12 UNL     1      28.755   5.828  48.430  1.00  0.00     0.743 A 
HETATM   19  N3  UNL     1      28.434   7.138  48.452  1.00  0.00    -0.071 NA
HETATM   20  C13 UNL     1      29.473   8.018  48.356  1.00  0.00     0.168 A 
HETATM   21  C14 UNL     1      30.802   7.598  48.243  1.00  0.00     0.077 A 
HETATM   22  C15 UNL     1      31.992   8.286  48.133  1.00  0.00     0.035 A 
HETATM   23  N4  UNL     1      31.068   6.274  48.228  1.00  0.00    -0.222 N 
HETATM   24  C16 UNL     1      32.966   7.340  48.054  1.00  0.00     0.029 A 
HETATM   25  C17 UNL     1      32.411   6.075  48.111  1.00  0.00     0.033 A 
HETATM   26  C18 UNL     1      33.148   4.786  48.058  1.00  0.00     0.070 C 
HETATM   27  N5  UNL     1      30.049   5.403  48.321  1.00  0.00     0.026 NA
ENDBRANCH  16  18
ENDBRANCH   3  16
TORSDOF 6
ENDMDL
MODEL 8
REMARK VINA RESULT:      -7.4      4.505      7.821
REMARK  6 active torsions:
REMARK  status: ('A' for Active; 'I' for Inactive)
REMARK    1  A    between atoms: C2_2  and  C3_3 
REMARK    2  A    between atoms: C4_4  and  O1_5 
REMARK    3  A    between atoms: O1_5  and  N1_6 
REMARK    4  A    between atoms: C7_9  and  O2_11 
REMARK    5  A    between atoms: C11_14  and  N2_15 
REMARK    6  A    between atoms: N2_15  and  C12_16 
ROOT
HETATM    1  C1  UNL     1      26.023   6.542  48.385  1.00  0.00     0.049 C 
HETATM    2  C2  UNL     1      26.590   5.324  49.068  1.00  0.00    -0.044 C 
HETATM    3  C11 UNL     1      25.960   4.703  50.077  1.00  0.00     0.113 C 
ENDROOT
BRANCH   2   4
HETATM    4  C3  UNL     1      27.904   4.843  48.588  1.00  0.00     0.034 C 
HETATM    5  C4  UNL     1      28.891   5.700  48.309  1.00  0.00     0.161 C 
BRANCH   5   6
HETATM    6  O1  UNL     1      30.095   5.174  47.866  1.00  0.00    -0.274 OA
BRANCH   6   7
HETATM    7  N1  UNL     1      31.250   5.876  47.982  1.00  0.00    -0.192 NA
HETATM    8  C5  UNL     1      31.053   6.939  48.914  1.00  0.00     0.124 C 
HETATM    9  C6  UNL     1      32.298   7.698  49.266  1.00  0.00     0.054 C 
HETATM   10  C7  UNL     1      33.444   7.253  48.364  1.00  0.00     0.056 C 
HETATM   11  C8  UNL     1      33.211   7.653  46.944  1.00  0.00     0.045 C 
HETATM   12  C9  UNL     1      33.591   5.773  48.576  1.00  0.00     0.054 C 
HETATM   13  C10 UNL     1      32.346   5.003  48.248  1.00  0.00     0.124 C 
BRANCH  10  14
HETATM   14  O2  UNL     1      34.610   7.849  48.878  1.00  0.00    -0.390 OA
HETATM   15  H13 UNL     1      34.427   8.827  49.010  1.00  0.00     0.210 HD
ENDBRANCH  10  14
ENDBRANCH   6   7
ENDBRANCH   5   6
ENDBRANCH   2   4
BRANCH   3  16
HETATM   16  N2  UNL     1      26.528   3.537  50.708  1.00  0.00    -0.196 N 
HETATM   17  H19 UNL     1      27.459   3.114  50.823  1.00  0.00     0.183 HD
BRANCH  16  18
HETATM   18  C12 UNL     1      25.284   3.017  51.221  1.00  0.00     0.743 A 
HETATM   19  N3  UNL     1      24.041   3.532  51.113  1.00  0.00    -0.071 NA
HETATM   20  C13 UNL     1      23.039   2.824  51.708  1.00  0.00     0.168 A 
HETATM   21  C14 UNL     1      23.272   1.628  52.395  1.00  0.00     0.077 A 
HETATM   22  C15 UNL     1      22.437   0.758  53.064  1.00  0.00     0.035 A 
HETATM   23  N4  UNL     1      24.535   1.157  52.473  1.00  0.00    -0.222 N 
HETATM   24  C16 UNL     1      23.234  -0.237  53.536  1.00  0.00     0.029 A 
HETATM   25  C17 UNL     1      24.549  -0.009  53.179  1.00  0.00     0.033 A 
HETATM   26  C18 UNL     1      25.715  -0.871  53.505  1.00  0.00     0.070 C 
HETATM   27  N5  UNL     1      25.527   1.850  51.888  1.00  0.00     0.026 NA
ENDBRANCH  16  18
ENDBRANCH   3  16
TORSDOF 6
ENDMDL
MODEL 9
REMARK VINA RESULT:      -7.4      2.604      4.549
REMARK  6 active torsions:
REMARK  status: ('A' for Active; 'I' for Inactive)
REMARK    1  A    between atoms: C2_2  and  C3_3 
REMARK    2  A    between atoms: C4_4  and  O1_5 
REMARK    3  A    between atoms: O1_5  and  N1_6 
REMARK    4  A    between atoms: C7_9  and  O2_11 
REMARK    5  A    between atoms: C11_14  and  N2_15 
REMARK    6  A    between atoms: N2_15  and  C12_16 
ROOT
HETATM    1  C1  UNL     1      23.305   3.012  48.864  1.00  0.00     0.049 C 
HETATM    2  C2  UNL     1      24.042   3.820  49.900  1.00  0.00    -0.044 C 
HETATM    3  C11 UNL     1      23.899   5.150  50.015  1.00  0.00     0.113 C 
ENDROOT
BRANCH   2   4
HETATM    4  C3  UNL     1      24.963   3.080  50.790  1.00  0.00     0.034 C 
HETATM    5  C4  UNL     1      26.251   2.920  50.468  1.00  0.00     0.161 C 
BRANCH   5   6
HETATM    6  O1  UNL     1      27.053   2.217  51.354  1.00  0.00    -0.274 OA
BRANCH   6   7
HETATM    7  N1  UNL     1      26.511   1.388  52.281  1.00  0.00    -0.192 NA
HETATM    8  C5  UNL     1      26.766   0.037  51.899  1.00  0.00     0.124 C 
HETATM    9  C6  UNL     1      26.368  -0.986  52.921  1.00  0.00     0.054 C 
HETATM   10  C7  UNL     1      25.593  -0.312  54.048  1.00  0.00     0.056 C 
HETATM   11  C8  UNL     1      24.273   0.203  53.574  1.00  0.00     0.045 C 
HETATM   12  C9  UNL     1      26.505   0.740  54.611  1.00  0.00     0.054 C 
HETATM   13  C10 UNL     1      26.929   1.759  53.594  1.00  0.00     0.124 C 
BRANCH  10  14
HETATM   14  O2  UNL     1      25.430  -1.281  55.055  1.00  0.00    -0.390 OA
HETATM   15  H13 UNL     1      24.496  -1.203  55.414  1.00  0.00     0.210 HD
ENDBRANCH  10  14
ENDBRANCH   6   7
ENDBRANCH   5   6
ENDBRANCH   2   4
BRANCH   3  16
HETATM   16  N2  UNL     1      24.617   5.894  51.020  1.00  0.00    -0.196 N 
HETATM   17  H19 UNL     1      24.755   5.857  52.039  1.00  0.00     0.183 HD
BRANCH  16  18
HETATM   18  C12 UNL     1      25.189   6.862  50.116  1.00  0.00     0.743 A 
HETATM   19  N3  UNL     1      24.733   8.090  49.790  1.00  0.00    -0.071 NA
HETATM   20  C13 UNL     1      25.481   8.795  48.893  1.00  0.00     0.168 A 
HETATM   21  C14 UNL     1      26.658   8.286  48.334  1.00  0.00     0.077 A 
HETATM   22  C15 UNL     1      27.559   8.801  47.427  1.00  0.00     0.035 A 
HETATM   23  N4  UNL     1      27.070   7.051  48.697  1.00  0.00    -0.222 N 
HETATM   24  C16 UNL     1      28.512   7.845  47.262  1.00  0.00     0.029 A 
HETATM   25  C17 UNL     1      28.227   6.743  48.046  1.00  0.00     0.033 A 
HETATM   26  C18 UNL     1      29.032   5.497  48.143  1.00  0.00     0.070 C 
HETATM   27  N5  UNL     1      26.337   6.353  49.580  1.00  0.00     0.026 NA
ENDBRANCH  16  18
ENDBRANCH   3  16
TORSDOF 6
ENDMDL
