MODEL 1
REMARK VINA RESULT:      -7.0      0.000      0.000
REMARK  6 active torsions:
REMARK  status: ('A' for Active; 'I' for Inactive)
REMARK    1  A    between atoms: C1_2  and  C2_3 
REMARK    2  A    between atoms: C1_2  and  S1_11 
REMARK    3  A    between atoms: C2_3  and  C3_4 
REMARK    4  A    between atoms: S1_11  and  C8_13 
REMARK    5  A    between atoms: C8_13  and  C9_14 
REMARK    6  A    between atoms: C14_19  and  P1_20 
ROOT
HETATM    1  S1  UNL     1      24.210   2.594  51.216  1.00  0.00     0.090 S 
HETATM    2  O2  UNL     1      23.031   2.032  50.406  1.00  0.00    -0.249 OA
ENDROOT
BRANCH   1   3
HETATM    3  C1  UNL     1      24.091   1.939  52.852  1.00  0.00     0.219 C 
HETATM    4  O1  UNL     1      23.135   1.174  52.979  1.00  0.00    -0.283 OA
BRANCH   3   5
HETATM    5  C2  UNL     1      25.206   2.497  53.668  1.00  0.00     0.133 C 
BRANCH   5   6
HETATM    6  C3  UNL     1      26.360   1.579  53.776  1.00  0.00    -0.033 A 
HETATM    7  C4  UNL     1      27.571   2.028  53.243  1.00  0.00     0.012 A 
HETATM    8  C5  UNL     1      28.752   1.281  53.266  1.00  0.00     0.045 A 
HETATM    9  C6  UNL     1      28.665   0.029  53.862  1.00  0.00     0.125 A 
HETATM   10 CL1  UNL     1      30.137  -0.935  53.907  1.00  0.00    -0.062 Cl
HETATM   11  N1  UNL     1      27.489  -0.403  54.378  1.00  0.00    -0.248 NA
HETATM   12  C7  UNL     1      26.366   0.341  54.342  1.00  0.00     0.126 A 
ENDBRANCH   5   6
ENDBRANCH   3   5
ENDBRANCH   1   3
BRANCH   1  13
HETATM   13  C8  UNL     1      24.090   4.383  51.170  1.00  0.00     0.156 C 
BRANCH  13  14
HETATM   14  C9  UNL     1      25.196   4.846  50.282  1.00  0.00    -0.036 A 
HETATM   15  C10 UNL     1      26.112   3.939  49.793  1.00  0.00     0.009 A 
HETATM   16  C11 UNL     1      27.185   4.240  48.961  1.00  0.00     0.001 A 
HETATM   17  C12 UNL     1      27.330   5.579  48.597  1.00  0.00     0.001 A 
HETATM   18  C13 UNL     1      26.420   6.503  49.078  1.00  0.00     0.012 A 
HETATM   19  C14 UNL     1      25.372   6.162  49.901  1.00  0.00    -0.030 A 
BRANCH  19  20
HETATM   20  P1  UNL     1      24.188   7.411  50.517  1.00  0.00    -0.106 P 
HETATM   21  H12 UNL     1      22.850   7.175  50.015  1.00  0.00     0.059 HD
HETATM   22  H13 UNL     1      24.234   7.550  51.945  1.00  0.00     0.059 HD
ENDBRANCH  19  20
ENDBRANCH  13  14
ENDBRANCH   1  13
TORSDOF 6
ENDMDL
MODEL 2
REMARK VINA RESULT:      -7.0      3.180      5.329
REMARK  6 active torsions:
REMARK  status: ('A' for Active; 'I' for Inactive)
REMARK    1  A    between atoms: C1_2  and  C2_3 
REMARK    2  A    between atoms: C1_2  and  S1_11 
REMARK    3  A    between atoms: C2_3  and  C3_4 
REMARK    4  A    between atoms: S1_11  and  C8_13 
REMARK    5  A    between atoms: C8_13  and  C9_14 
REMARK    6  A    between atoms: C14_19  and  P1_20 
ROOT
HETATM    1  S1  UNL     1      23.160   2.623  52.363  1.00  0.00     0.090 S 
HETATM    2  O2  UNL     1      22.615   3.878  51.663  1.00  0.00    -0.249 OA
ENDROOT
BRANCH   1   3
HETATM    3  C1  UNL     1      24.924   2.719  52.328  1.00  0.00     0.219 C 
HETATM    4  O1  UNL     1      25.355   2.943  51.197  1.00  0.00    -0.283 OA
BRANCH   3   5
HETATM    5  C2  UNL     1      25.438   2.497  53.709  1.00  0.00     0.133 C 
BRANCH   5   6
HETATM    6  C3  UNL     1      26.540   1.511  53.764  1.00  0.00    -0.033 A 
HETATM    7  C4  UNL     1      27.820   1.982  53.461  1.00  0.00     0.012 A 
HETATM    8  C5  UNL     1      28.963   1.180  53.468  1.00  0.00     0.045 A 
HETATM    9  C6  UNL     1      28.764  -0.154  53.803  1.00  0.00     0.125 A 
HETATM   10 CL1  UNL     1      30.186  -1.191  53.823  1.00  0.00    -0.062 Cl
HETATM   11  N1  UNL     1      27.522  -0.608  54.096  1.00  0.00    -0.248 NA
HETATM   12  C7  UNL     1      26.437   0.191  54.081  1.00  0.00     0.126 A 
ENDBRANCH   5   6
ENDBRANCH   3   5
ENDBRANCH   1   3
BRANCH   1  13
HETATM   13  C8  UNL     1      22.521   1.196  51.485  1.00  0.00     0.156 C 
BRANCH  13  14
HETATM   14  C9  UNL     1      21.999   0.269  52.531  1.00  0.00    -0.036 A 
HETATM   15  C10 UNL     1      22.866  -0.311  53.431  1.00  0.00     0.009 A 
HETATM   16  C11 UNL     1      22.509  -1.188  54.450  1.00  0.00     0.001 A 
HETATM   17  C12 UNL     1      21.153  -1.495  54.556  1.00  0.00     0.001 A 
HETATM   18  C13 UNL     1      20.267  -0.922  53.661  1.00  0.00     0.012 A 
HETATM   19  C14 UNL     1      20.663  -0.058  52.666  1.00  0.00    -0.030 A 
BRANCH  19  20
HETATM   20  P1  UNL     1      19.465   0.681  51.501  1.00  0.00    -0.106 P 
HETATM   21  H12 UNL     1      18.313  -0.175  51.300  1.00  0.00     0.059 HD
HETATM   22  H13 UNL     1      19.108   2.024  51.864  1.00  0.00     0.059 HD
ENDBRANCH  19  20
ENDBRANCH  13  14
ENDBRANCH   1  13
TORSDOF 6
ENDMDL
MODEL 3
REMARK VINA RESULT:      -6.7      4.289      6.408
REMARK  6 active torsions:
REMARK  status: ('A' for Active; 'I' for Inactive)
REMARK    1  A    between atoms: C1_2  and  C2_3 
REMARK    2  A    between atoms: C1_2  and  S1_11 
REMARK    3  A    between atoms: C2_3  and  C3_4 
REMARK    4  A    between atoms: S1_11  and  C8_13 
REMARK    5  A    between atoms: C8_13  and  C9_14 
REMARK    6  A    between atoms: C14_19  and  P1_20 
ROOT
HETATM    1  S1  UNL     1      26.110   2.087  51.242  1.00  0.00     0.090 S 
HETATM    2  O2  UNL     1      27.020   3.200  50.697  1.00  0.00    -0.249 OA
ENDROOT
BRANCH   1   3
HETATM    3  C1  UNL     1      24.441   2.653  51.111  1.00  0.00     0.219 C 
HETATM    4  O1  UNL     1      24.101   2.833  49.943  1.00  0.00    -0.283 OA
BRANCH   3   5
HETATM    5  C2  UNL     1      23.871   2.767  52.483  1.00  0.00     0.133 C 
BRANCH   5   6
HETATM    6  C3  UNL     1      22.706   1.882  52.700  1.00  0.00    -0.033 A 
HETATM    7  C4  UNL     1      22.974   0.592  53.165  1.00  0.00     0.012 A 
HETATM    8  C5  UNL     1      21.985  -0.362  53.419  1.00  0.00     0.045 A 
HETATM    9  C6  UNL     1      20.678   0.044  53.181  1.00  0.00     0.125 A 
HETATM   10 CL1  UNL     1      19.409  -1.135  53.493  1.00  0.00    -0.062 Cl
HETATM   11  N1  UNL     1      20.420   1.295  52.729  1.00  0.00    -0.248 NA
HETATM   12  C7  UNL     1      21.397   2.195  52.494  1.00  0.00     0.126 A 
ENDBRANCH   5   6
ENDBRANCH   3   5
ENDBRANCH   1   3
BRANCH   1  13
HETATM   13  C8  UNL     1      26.608   1.766  52.934  1.00  0.00     0.156 C 
BRANCH  13  14
HETATM   14  C9  UNL     1      27.171   0.385  52.943  1.00  0.00    -0.036 A 
HETATM   15  C10 UNL     1      26.456  -0.653  52.385  1.00  0.00     0.009 A 
HETATM   16  C11 UNL     1      26.866  -1.981  52.327  1.00  0.00     0.001 A 
HETATM   17  C12 UNL     1      28.111  -2.269  52.886  1.00  0.00     0.001 A 
HETATM   18  C13 UNL     1      28.844  -1.240  53.450  1.00  0.00     0.012 A 
HETATM   19  C14 UNL     1      28.399   0.061  53.486  1.00  0.00    -0.030 A 
BRANCH  19  20
HETATM   20  P1  UNL     1      29.394   1.396  54.239  1.00  0.00    -0.106 P 
HETATM   21  H12 UNL     1      30.593   0.882  54.871  1.00  0.00     0.059 HD
HETATM   22  H13 UNL     1      29.661   2.465  53.318  1.00  0.00     0.059 HD
ENDBRANCH  19  20
ENDBRANCH  13  14
ENDBRANCH   1  13
TORSDOF 6
ENDMDL
MODEL 4
REMARK VINA RESULT:      -6.6      3.985      6.211
REMARK  6 active torsions:
REMARK  status: ('A' for Active; 'I' for Inactive)
REMARK    1  A    between atoms: C1_2  and  C2_3 
REMARK    2  A    between atoms: C1_2  and  S1_11 
REMARK    3  A    between atoms: C2_3  and  C3_4 
REMARK    4  A    between atoms: S1_11  and  C8_13 
REMARK    5  A    between atoms: C8_13  and  C9_14 
REMARK    6  A    between atoms: C14_19  and  P1_20 
ROOT
HETATM    1  S1  UNL     1      23.826   3.769  52.165  1.00  0.00     0.090 S 
HETATM    2  O2  UNL     1      23.479   4.788  53.262  1.00  0.00    -0.249 OA
ENDROOT
BRANCH   1   3
HETATM    3  C1  UNL     1      23.051   4.309  50.672  1.00  0.00     0.219 C 
HETATM    4  O1  UNL     1      22.065   5.013  50.888  1.00  0.00    -0.283 OA
BRANCH   3   5
HETATM    5  C2  UNL     1      23.813   3.757  49.517  1.00  0.00     0.133 C 
BRANCH   5   6
HETATM    6  C3  UNL     1      24.986   4.581  49.151  1.00  0.00    -0.033 A 
HETATM    7  C4  UNL     1      26.234   3.955  49.204  1.00  0.00     0.012 A 
HETATM    8  C5  UNL     1      27.435   4.594  48.889  1.00  0.00     0.045 A 
HETATM    9  C6  UNL     1      27.331   5.926  48.507  1.00  0.00     0.125 A 
HETATM   10 CL1  UNL     1      28.828   6.759  48.103  1.00  0.00    -0.062 Cl
HETATM   11  N1  UNL     1      26.119   6.531  48.456  1.00  0.00    -0.248 NA
HETATM   12  C7  UNL     1      24.976   5.887  48.766  1.00  0.00     0.126 A 
ENDBRANCH   5   6
ENDBRANCH   3   5
ENDBRANCH   1   3
BRANCH   1  13
HETATM   13  C8  UNL     1      23.239   2.166  52.716  1.00  0.00     0.156 C 
BRANCH  13  14
HETATM   14  C9  UNL     1      24.413   1.249  52.635  1.00  0.00    -0.036 A 
HETATM   15  C10 UNL     1      25.578   1.673  52.033  1.00  0.00     0.009 A 
HETATM   16  C11 UNL     1      26.739   0.920  51.893  1.00  0.00     0.001 A 
HETATM   17  C12 UNL     1      26.704  -0.374  52.414  1.00  0.00     0.001 A 
HETATM   18  C13 UNL     1      25.543  -0.817  53.023  1.00  0.00     0.012 A 
HETATM   19  C14 UNL     1      24.416  -0.038  53.139  1.00  0.00    -0.030 A 
BRANCH  19  20
HETATM   20  P1  UNL     1      22.899  -0.656  53.950  1.00  0.00    -0.106 P 
HETATM   21  H12 UNL     1      22.084   0.426  54.463  1.00  0.00     0.059 HD
HETATM   22  H13 UNL     1      22.164  -1.563  53.115  1.00  0.00     0.059 HD
ENDBRANCH  19  20
ENDBRANCH  13  14
ENDBRANCH   1  13
TORSDOF 6
ENDMDL
MODEL 5
REMARK VINA RESULT:      -6.5      2.913      3.519
REMARK  6 active torsions:
REMARK  status: ('A' for Active; 'I' for Inactive)
REMARK    1  A    between atoms: C1_2  and  C2_3 
REMARK    2  A    between atoms: C1_2  and  S1_11 
REMARK    3  A    between atoms: C2_3  and  C3_4 
REMARK    4  A    between atoms: S1_11  and  C8_13 
REMARK    5  A    between atoms: C8_13  and  C9_14 
REMARK    6  A    between atoms: C14_19  and  P1_20 
ROOT
HETATM    1  S1  UNL     1      22.031   0.330  52.704  1.00  0.00     0.090 S 
HETATM    2  O2  UNL     1      20.835   0.061  53.632  1.00  0.00    -0.249 OA
ENDROOT
BRANCH   1   3
HETATM    3  C1  UNL     1      23.500  -0.068  53.601  1.00  0.00     0.219 C 
HETATM    4  O1  UNL     1      23.321  -0.983  54.404  1.00  0.00    -0.283 OA
BRANCH   3   5
HETATM    5  C2  UNL     1      24.595   0.830  53.138  1.00  0.00     0.133 C 
BRANCH   5   6
HETATM    6  C3  UNL     1      25.936   0.217  53.259  1.00  0.00    -0.033 A 
HETATM    7  C4  UNL     1      26.944   1.014  53.808  1.00  0.00     0.012 A 
HETATM    8  C5  UNL     1      28.260   0.584  53.989  1.00  0.00     0.045 A 
HETATM    9  C6  UNL     1      28.533  -0.718  53.587  1.00  0.00     0.125 A 
HETATM   10 CL1  UNL     1      30.183  -1.290  53.804  1.00  0.00    -0.062 Cl
HETATM   11  N1  UNL     1      27.553  -1.489  53.056  1.00  0.00    -0.248 NA
HETATM   12  C7  UNL     1      26.291  -1.046  52.893  1.00  0.00     0.126 A 
ENDBRANCH   5   6
ENDBRANCH   3   5
ENDBRANCH   1   3
BRANCH   1  13
HETATM   13  C8  UNL     1      21.956   2.055  52.218  1.00  0.00     0.156 C 
BRANCH  13  14
HETATM   14  C9  UNL     1      22.144   2.073  50.738  1.00  0.00    -0.036 A 
HETATM   15  C10 UNL     1      21.452   1.183  49.945  1.00  0.00     0.009 A 
HETATM   16  C11 UNL     1      21.536   1.097  48.559  1.00  0.00     0.001 A 
HETATM   17  C12 UNL     1      22.400   1.997  47.934  1.00  0.00     0.001 A 
HETATM   18  C13 UNL     1      23.103   2.898  48.714  1.00  0.00     0.012 A 
HETATM   19  C14 UNL     1      22.990   2.949  50.084  1.00  0.00    -0.030 A 
BRANCH  19  20
HETATM   20  P1  UNL     1      23.934   4.153  51.082  1.00  0.00    -0.106 P 
HETATM   21  H12 UNL     1      23.915   5.475  50.490  1.00  0.00     0.059 HD
HETATM   22  H13 UNL     1      23.533   4.153  52.461  1.00  0.00     0.059 HD
ENDBRANCH  19  20
ENDBRANCH  13  14
ENDBRANCH   1  13
TORSDOF 6
ENDMDL
MODEL 6
REMARK VINA RESULT:      -6.4      4.021      6.617
REMARK  6 active torsions:
REMARK  status: ('A' for Active; 'I' for Inactive)
REMARK    1  A    between atoms: C1_2  and  C2_3 
REMARK    2  A    between atoms: C1_2  and  S1_11 
REMARK    3  A    between atoms: C2_3  and  C3_4 
REMARK    4  A    between atoms: S1_11  and  C8_13 
REMARK    5  A    between atoms: C8_13  and  C9_14 
REMARK    6  A    between atoms: C14_19  and  P1_20 
ROOT
HETATM    1  S1  UNL     1      21.992   2.723  52.076  1.00  0.00     0.090 S 
HETATM    2  O2  UNL     1      20.565   2.732  51.506  1.00  0.00    -0.249 OA
ENDROOT
BRANCH   1   3
HETATM    3  C1  UNL     1      22.830   4.140  51.436  1.00  0.00     0.219 C 
HETATM    4  O1  UNL     1      23.031   4.992  52.301  1.00  0.00    -0.283 OA
BRANCH   3   5
HETATM    5  C2  UNL     1      23.080   3.926  49.982  1.00  0.00     0.133 C 
BRANCH   5   6
HETATM    6  C3  UNL     1      24.423   4.374  49.554  1.00  0.00    -0.033 A 
HETATM    7  C4  UNL     1      25.469   3.459  49.706  1.00  0.00     0.012 A 
HETATM    8  C5  UNL     1      26.792   3.728  49.350  1.00  0.00     0.045 A 
HETATM    9  C6  UNL     1      27.032   4.990  48.820  1.00  0.00     0.125 A 
HETATM   10 CL1  UNL     1      28.690   5.359  48.360  1.00  0.00    -0.062 Cl
HETATM   11  N1  UNL     1      26.017   5.875  48.674  1.00  0.00    -0.248 NA
HETATM   12  C7  UNL     1      24.748   5.586  49.027  1.00  0.00     0.126 A 
ENDBRANCH   5   6
ENDBRANCH   3   5
ENDBRANCH   1   3
BRANCH   1  13
HETATM   13  C8  UNL     1      22.757   1.177  51.583  1.00  0.00     0.156 C 
BRANCH  13  14
HETATM   14  C9  UNL     1      22.836   0.345  52.819  1.00  0.00    -0.036 A 
HETATM   15  C10 UNL     1      21.681  -0.093  53.429  1.00  0.00     0.009 A 
HETATM   16  C11 UNL     1      21.617  -0.871  54.580  1.00  0.00     0.001 A 
HETATM   17  C12 UNL     1      22.838  -1.232  55.152  1.00  0.00     0.001 A 
HETATM   18  C13 UNL     1      24.008  -0.802  54.553  1.00  0.00     0.012 A 
HETATM   19  C14 UNL     1      24.026  -0.032  53.413  1.00  0.00    -0.030 A 
BRANCH  19  20
HETATM   20  P1  UNL     1      25.591   0.518  52.648  1.00  0.00    -0.106 P 
HETATM   21  H12 UNL     1      25.816  -0.119  51.367  1.00  0.00     0.059 HD
HETATM   22  H13 UNL     1      25.697   1.949  52.589  1.00  0.00     0.059 HD
ENDBRANCH  19  20
ENDBRANCH  13  14
ENDBRANCH   1  13
TORSDOF 6
ENDMDL
MODEL 7
REMARK VINA RESULT:      -6.4      3.987      6.680
REMARK  6 active torsions:
REMARK  status: ('A' for Active; 'I' for Inactive)
REMARK    1  A    between atoms: C1_2  and  C2_3 
REMARK    2  A    between atoms: C1_2  and  S1_11 
REMARK    3  A    between atoms: C2_3  and  C3_4 
REMARK    4  A    between atoms: S1_11  and  C8_13 
REMARK    5  A    between atoms: C8_13  and  C9_14 
REMARK    6  A    between atoms: C14_19  and  P1_20 
ROOT
HETATM    1  S1  UNL     1      22.721   3.086  52.221  1.00  0.00     0.090 S 
HETATM    2  O2  UNL     1      21.245   3.496  52.090  1.00  0.00    -0.249 OA
ENDROOT
BRANCH   1   3
HETATM    3  C1  UNL     1      23.680   4.252  51.304  1.00  0.00     0.219 C 
HETATM    4  O1  UNL     1      23.736   5.348  51.860  1.00  0.00    -0.283 OA
BRANCH   3   5
HETATM    5  C2  UNL     1      24.182   3.586  50.069  1.00  0.00     0.133 C 
BRANCH   5   6
HETATM    6  C3  UNL     1      25.403   4.219  49.526  1.00  0.00    -0.033 A 
HETATM    7  C4  UNL     1      25.264   5.510  49.009  1.00  0.00     0.012 A 
HETATM    8  C5  UNL     1      26.318   6.244  48.460  1.00  0.00     0.045 A 
HETATM    9  C6  UNL     1      27.555   5.611  48.451  1.00  0.00     0.125 A 
HETATM   10 CL1  UNL     1      28.905   6.510  47.768  1.00  0.00    -0.062 Cl
HETATM   11  N1  UNL     1      27.688   4.359  48.953  1.00  0.00    -0.248 NA
HETATM   12  C7  UNL     1      26.650   3.676  49.477  1.00  0.00     0.126 A 
ENDBRANCH   5   6
ENDBRANCH   3   5
ENDBRANCH   1   3
BRANCH   1  13
HETATM   13  C8  UNL     1      22.871   1.412  51.595  1.00  0.00     0.156 C 
BRANCH  13  14
HETATM   14  C9  UNL     1      22.847   0.521  52.791  1.00  0.00    -0.036 A 
HETATM   15  C10 UNL     1      21.644   0.180  53.370  1.00  0.00     0.009 A 
HETATM   16  C11 UNL     1      21.483  -0.639  54.483  1.00  0.00     0.001 A 
HETATM   17  C12 UNL     1      22.651  -1.150  55.049  1.00  0.00     0.001 A 
HETATM   18  C13 UNL     1      23.868  -0.819  54.481  1.00  0.00     0.012 A 
HETATM   19  C14 UNL     1      23.982  -0.004  53.379  1.00  0.00    -0.030 A 
BRANCH  19  20
HETATM   20  P1  UNL     1      25.607   0.413  52.654  1.00  0.00    -0.106 P 
HETATM   21  H12 UNL     1      26.034  -0.576  51.686  1.00  0.00     0.059 HD
HETATM   22  H13 UNL     1      25.648   1.753  52.140  1.00  0.00     0.059 HD
ENDBRANCH  19  20
ENDBRANCH  13  14
ENDBRANCH   1  13
TORSDOF 6
ENDMDL
MODEL 8
REMARK VINA RESULT:      -6.3      1.578      1.966
REMARK  6 active torsions:
REMARK  status: ('A' for Active; 'I' for Inactive)
REMARK    1  A    between atoms: C1_2  and  C2_3 
REMARK    2  A    between atoms: C1_2  and  S1_11 
REMARK    3  A    between atoms: C2_3  and  C3_4 
REMARK    4  A    between atoms: S1_11  and  C8_13 
REMARK    5  A    between atoms: C8_13  and  C9_14 
REMARK    6  A    between atoms: C14_19  and  P1_20 
ROOT
HETATM    1  S1  UNL     1      22.792   4.021  51.190  1.00  0.00     0.090 S 
HETATM    2  O2  UNL     1      23.753   4.962  51.933  1.00  0.00    -0.249 OA
ENDROOT
BRANCH   1   3
HETATM    3  C1  UNL     1      23.169   2.370  51.694  1.00  0.00     0.219 C 
HETATM    4  O1  UNL     1      22.774   1.534  50.881  1.00  0.00    -0.283 OA
BRANCH   3   5
HETATM    5  C2  UNL     1      23.881   2.425  53.001  1.00  0.00     0.133 C 
BRANCH   5   6
HETATM    6  C3  UNL     1      25.114   1.607  53.023  1.00  0.00    -0.033 A 
HETATM    7  C4  UNL     1      24.970   0.263  53.376  1.00  0.00     0.012 A 
HETATM    8  C5  UNL     1      26.034  -0.639  53.443  1.00  0.00     0.045 A 
HETATM    9  C6  UNL     1      27.286  -0.123  53.132  1.00  0.00     0.125 A 
HETATM   10 CL1  UNL     1      28.648  -1.236  53.205  1.00  0.00    -0.062 Cl
HETATM   11  N1  UNL     1      27.423   1.181  52.790  1.00  0.00    -0.248 NA
HETATM   12  C7  UNL     1      26.376   2.028  52.733  1.00  0.00     0.126 A 
ENDBRANCH   5   6
ENDBRANCH   3   5
ENDBRANCH   1   3
BRANCH   1  13
HETATM   13  C8  UNL     1      23.033   4.285  49.432  1.00  0.00     0.156 C 
BRANCH  13  14
HETATM   14  C9  UNL     1      24.491   4.546  49.251  1.00  0.00    -0.036 A 
HETATM   15  C10 UNL     1      25.403   3.536  49.472  1.00  0.00     0.009 A 
HETATM   16  C11 UNL     1      26.783   3.648  49.339  1.00  0.00     0.001 A 
HETATM   17  C12 UNL     1      27.269   4.895  48.946  1.00  0.00     0.001 A 
HETATM   18  C13 UNL     1      26.368   5.920  48.720  1.00  0.00     0.012 A 
HETATM   19  C14 UNL     1      25.008   5.767  48.864  1.00  0.00    -0.030 A 
BRANCH  19  20
HETATM   20  P1  UNL     1      23.848   7.144  48.555  1.00  0.00    -0.106 P 
HETATM   21  H12 UNL     1      23.198   7.021  47.266  1.00  0.00     0.059 HD
HETATM   22  H13 UNL     1      22.919   7.328  49.635  1.00  0.00     0.059 HD
ENDBRANCH  19  20
ENDBRANCH  13  14
ENDBRANCH   1  13
TORSDOF 6
ENDMDL
MODEL 9
REMARK VINA RESULT:      -6.3      3.706      5.733
REMARK  6 active torsions:
REMARK  status: ('A' for Active; 'I' for Inactive)
REMARK    1  A    between atoms: C1_2  and  C2_3 
REMARK    2  A    between atoms: C1_2  and  S1_11 
REMARK    3  A    between atoms: C2_3  and  C3_4 
REMARK    4  A    between atoms: S1_11  and  C8_13 
REMARK    5  A    between atoms: C8_13  and  C9_14 
REMARK    6  A    between atoms: C14_19  and  P1_20 
ROOT
HETATM    1  S1  UNL     1      22.670   2.402  52.149  1.00  0.00     0.090 S 
HETATM    2  O2  UNL     1      21.910   3.376  51.236  1.00  0.00    -0.249 OA
ENDROOT
BRANCH   1   3
HETATM    3  C1  UNL     1      24.359   2.916  52.187  1.00  0.00     0.219 C 
HETATM    4  O1  UNL     1      24.697   3.480  51.147  1.00  0.00    -0.283 OA
BRANCH   3   5
HETATM    5  C2  UNL     1      24.944   2.523  53.500  1.00  0.00     0.133 C 
BRANCH   5   6
HETATM    6  C3  UNL     1      25.710   1.259  53.437  1.00  0.00    -0.033 A 
HETATM    7  C4  UNL     1      26.018   0.774  52.163  1.00  0.00     0.012 A 
HETATM    8  C5  UNL     1      26.732  -0.403  51.933  1.00  0.00     0.045 A 
HETATM    9  C6  UNL     1      27.139  -1.096  53.068  1.00  0.00     0.125 A 
HETATM   10 CL1  UNL     1      28.043  -2.584  52.812  1.00  0.00    -0.062 Cl
HETATM   11  N1  UNL     1      26.839  -0.624  54.302  1.00  0.00    -0.248 NA
HETATM   12  C7  UNL     1      26.147   0.518  54.492  1.00  0.00     0.126 A 
ENDBRANCH   5   6
ENDBRANCH   3   5
ENDBRANCH   1   3
BRANCH   1  13
HETATM   13  C8  UNL     1      22.457   0.754  51.471  1.00  0.00     0.156 C 
BRANCH  13  14
HETATM   14  C9  UNL     1      21.129   0.279  51.957  1.00  0.00    -0.036 A 
HETATM   15  C10 UNL     1      19.995   0.529  51.214  1.00  0.00     0.009 A 
HETATM   16  C11 UNL     1      18.703   0.141  51.552  1.00  0.00     0.001 A 
HETATM   17  C12 UNL     1      18.560  -0.561  52.749  1.00  0.00     0.001 A 
HETATM   18  C13 UNL     1      19.687  -0.822  53.508  1.00  0.00     0.012 A 
HETATM   19  C14 UNL     1      20.949  -0.419  53.135  1.00  0.00    -0.030 A 
BRANCH  19  20
HETATM   20  P1  UNL     1      22.416  -0.782  54.162  1.00  0.00    -0.106 P 
HETATM   21  H12 UNL     1      23.167  -1.909  53.648  1.00  0.00     0.059 HD
HETATM   22  H13 UNL     1      23.231   0.380  54.381  1.00  0.00     0.059 HD
ENDBRANCH  19  20
ENDBRANCH  13  14
ENDBRANCH   1  13
TORSDOF 6
ENDMDL
