MODEL 1
REMARK VINA RESULT:      -8.3      0.000      0.000
REMARK  1 active torsions:
REMARK  status: ('A' for Active; 'I' for Inactive)
REMARK    1  A    between atoms: C10_14  and  N4_15 
ROOT
HETATM    1  O1  UNL     1      22.494  -0.067  52.714  1.00  0.00     0.000 OA
HETATM    2  C1  UNL     1      22.848  -0.825  53.671  1.00  0.00     0.285 A 
HETATM    3  C2  UNL     1      23.646   0.187  53.128  1.00  0.00     0.046 A 
HETATM    4  C3  UNL     1      24.287   1.028  52.665  1.00  0.00    -0.126 C 
HETATM    5  C4  UNL     1      25.016   2.026  52.106  1.00  0.00     0.179 C 
HETATM    6  C5  UNL     1      24.124   2.529  50.892  1.00  0.00     0.058 C 
HETATM    7  C6  UNL     1      22.856   2.109  50.590  1.00  0.00     0.030 C 
HETATM    8  C7  UNL     1      21.570   1.346  50.682  1.00  0.00     0.029 C 
HETATM    9  C8  UNL     1      21.057   0.323  51.481  1.00  0.00     0.236 C 
HETATM   10  N1  UNL     1      21.709  -0.470  52.662  1.00  0.00     0.129 N 
HETATM   11  N2  UNL     1      24.773   3.248  49.850  1.00  0.00    -0.245 NA
HETATM   12  C9  UNL     1      26.087   3.259  49.828  1.00  0.00     0.235 C 
HETATM   13  N3  UNL     1      26.823   2.615  50.845  1.00  0.00    -0.227 NA
HETATM   14  C10 UNL     1      26.376   2.031  51.875  1.00  0.00     0.129 C 
HETATM   15  H5  UNL     1      20.946  -1.195  52.960  1.00  0.00     0.324 HD
ENDROOT
BRANCH  14  16
HETATM   16  N4  UNL     1      27.382   1.445  52.682  1.00  0.00    -0.339 N 
HETATM   17  C11 UNL     1      27.673   0.031  52.663  1.00  0.00     0.111 A 
HETATM   18  C12 UNL     1      28.594  -0.618  53.303  1.00  0.00     0.026 A 
HETATM   19 BR1  UNL     1      28.801  -2.491  53.128  1.00  0.00    -0.050 Br
HETATM   20  C13 UNL     1      29.454   0.139  54.184  1.00  0.00     0.018 A 
HETATM   21  C14 UNL     1      29.186   1.424  54.229  1.00  0.00    -0.005 A 
HETATM   22  C15 UNL     1      28.177   2.269  53.564  1.00  0.00     0.157 A 
ENDBRANCH  14  16
TORSDOF 1
ENDMDL
MODEL 2
REMARK VINA RESULT:      -8.1      2.082      3.757
REMARK  1 active torsions:
REMARK  status: ('A' for Active; 'I' for Inactive)
REMARK    1  A    between atoms: C10_14  and  N4_15 
ROOT
HETATM    1  O1  UNL     1      21.659   1.670  51.396  1.00  0.00     0.000 OA
HETATM    2  C1  UNL     1      22.420   2.451  50.743  1.00  0.00     0.285 A 
HETATM    3  C2  UNL     1      22.870   1.461  51.622  1.00  0.00     0.046 A 
HETATM    4  C3  UNL     1      23.220   0.636  52.351  1.00  0.00    -0.126 C 
HETATM    5  C4  UNL     1      23.603  -0.342  53.209  1.00  0.00     0.179 C 
HETATM    6  C5  UNL     1      22.239  -0.889  53.811  1.00  0.00     0.058 C 
HETATM    7  C6  UNL     1      20.978  -0.515  53.430  1.00  0.00     0.030 C 
HETATM    8  C7  UNL     1      19.887   0.204  52.697  1.00  0.00     0.029 C 
HETATM    9  C8  UNL     1      19.811   1.218  51.741  1.00  0.00     0.236 C 
HETATM   10  N1  UNL     1      20.941   2.046  51.043  1.00  0.00     0.129 N 
HETATM   11  N2  UNL     1      22.299  -1.597  55.044  1.00  0.00    -0.245 NA
HETATM   12  C9  UNL     1      23.423  -1.563  55.725  1.00  0.00     0.235 C 
HETATM   13  N3  UNL     1      24.548  -0.883  55.212  1.00  0.00    -0.227 NA
HETATM   14  C10 UNL     1      24.661  -0.303  54.093  1.00  0.00     0.129 C 
HETATM   15  H5  UNL     1      20.408   2.748  50.395  1.00  0.00     0.324 HD
ENDROOT
BRANCH  14  16
HETATM   16  N4  UNL     1      25.914   0.326  53.898  1.00  0.00    -0.339 N 
HETATM   17  C11 UNL     1      27.151  -0.411  53.800  1.00  0.00     0.111 A 
HETATM   18  C12 UNL     1      28.347   0.032  53.569  1.00  0.00     0.026 A 
HETATM   19 BR1  UNL     1      29.842  -1.124  53.479  1.00  0.00    -0.050 Br
HETATM   20  C13 UNL     1      28.508   1.459  53.403  1.00  0.00     0.018 A 
HETATM   21  C14 UNL     1      27.394   2.146  53.513  1.00  0.00    -0.005 A 
HETATM   22  C15 UNL     1      25.994   1.764  53.776  1.00  0.00     0.157 A 
ENDBRANCH  14  16
TORSDOF 1
ENDMDL
MODEL 3
REMARK VINA RESULT:      -8.0      3.321      5.762
REMARK  1 active torsions:
REMARK  status: ('A' for Active; 'I' for Inactive)
REMARK    1  A    between atoms: C10_14  and  N4_15 
ROOT
HETATM    1  O1  UNL     1      27.690   1.418  54.045  1.00  0.00     0.000 OA
HETATM    2  C1  UNL     1      28.699   2.166  53.853  1.00  0.00     0.285 A 
HETATM    3  C2  UNL     1      27.447   2.360  53.262  1.00  0.00     0.046 A 
HETATM    4  C3  UNL     1      26.405   2.503  52.786  1.00  0.00    -0.126 C 
HETATM    5  C4  UNL     1      25.169   2.649  52.245  1.00  0.00     0.179 C 
HETATM    6  C5  UNL     1      24.373   1.367  52.738  1.00  0.00     0.058 C 
HETATM    7  C6  UNL     1      24.829   0.418  53.613  1.00  0.00     0.030 C 
HETATM    8  C7  UNL     1      25.752  -0.307  54.544  1.00  0.00     0.029 C 
HETATM    9  C8  UNL     1      27.071  -0.160  54.975  1.00  0.00     0.236 C 
HETATM   10  N1  UNL     1      28.155   0.902  54.593  1.00  0.00     0.129 N 
HETATM   11  N2  UNL     1      23.213   0.989  52.005  1.00  0.00    -0.245 NA
HETATM   12  C9  UNL     1      22.995   1.568  50.846  1.00  0.00     0.235 C 
HETATM   13  N3  UNL     1      23.867   2.572  50.375  1.00  0.00    -0.227 NA
HETATM   14  C10 UNL     1      24.868   3.071  50.966  1.00  0.00     0.129 C 
HETATM   15  H5  UNL     1      29.045   0.600  55.151  1.00  0.00     0.324 HD
ENDROOT
BRANCH  14  16
HETATM   16  N4  UNL     1      25.564   4.037  50.199  1.00  0.00    -0.339 N 
HETATM   17  C11 UNL     1      25.201   5.434  50.188  1.00  0.00     0.111 A 
HETATM   18  C12 UNL     1      25.781   6.421  49.580  1.00  0.00     0.026 A 
HETATM   19 BR1  UNL     1      25.131   8.193  49.705  1.00  0.00    -0.050 Br
HETATM   20  C13 UNL     1      26.943   6.117  48.777  1.00  0.00     0.018 A 
HETATM   21  C14 UNL     1      27.272   4.846  48.759  1.00  0.00    -0.005 A 
HETATM   22  C15 UNL     1      26.697   3.645  49.393  1.00  0.00     0.157 A 
ENDBRANCH  14  16
TORSDOF 1
ENDMDL
MODEL 4
REMARK VINA RESULT:      -7.9      2.811      4.728
REMARK  1 active torsions:
REMARK  status: ('A' for Active; 'I' for Inactive)
REMARK    1  A    between atoms: C10_14  and  N4_15 
ROOT
HETATM    1  O1  UNL     1      21.353  -0.118  53.022  1.00  0.00     0.000 OA
HETATM    2  C1  UNL     1      20.772   0.545  52.107  1.00  0.00     0.285 A 
HETATM    3  C2  UNL     1      22.154   0.525  52.311  1.00  0.00     0.046 A 
HETATM    4  C3  UNL     1      23.294   0.493  52.496  1.00  0.00    -0.126 C 
HETATM    5  C4  UNL     1      24.628   0.433  52.733  1.00  0.00     0.179 C 
HETATM    6  C5  UNL     1      24.751  -0.432  54.058  1.00  0.00     0.058 C 
HETATM    7  C6  UNL     1      23.726  -1.063  54.712  1.00  0.00     0.030 C 
HETATM    8  C7  UNL     1      22.337  -1.522  55.033  1.00  0.00     0.029 C 
HETATM    9  C8  UNL     1      21.058  -1.310  54.515  1.00  0.00     0.236 C 
HETATM   10  N1  UNL     1      20.579  -0.428  53.315  1.00  0.00     0.129 N 
HETATM   11  N2  UNL     1      25.952  -0.315  54.814  1.00  0.00    -0.245 NA
HETATM   12  C9  UNL     1      26.784   0.655  54.510  1.00  0.00     0.235 C 
HETATM   13  N3  UNL     1      26.509   1.518  53.429  1.00  0.00    -0.227 NA
HETATM   14  C10 UNL     1      25.538   1.464  52.619  1.00  0.00     0.129 C 
HETATM   15  H5  UNL     1      19.491  -0.546  53.304  1.00  0.00     0.324 HD
ENDROOT
BRANCH  14  16
HETATM   16  N4  UNL     1      25.527   2.512  51.667  1.00  0.00    -0.339 N 
HETATM   17  C11 UNL     1      24.519   3.544  51.653  1.00  0.00     0.111 A 
HETATM   18  C12 UNL     1      24.425   4.580  50.880  1.00  0.00     0.026 A 
HETATM   19 BR1  UNL     1      23.005   5.820  51.038  1.00  0.00    -0.050 Br
HETATM   20  C13 UNL     1      25.439   4.747  49.864  1.00  0.00     0.018 A 
HETATM   21  C14 UNL     1      26.352   3.803  49.850  1.00  0.00    -0.005 A 
HETATM   22  C15 UNL     1      26.562   2.589  50.660  1.00  0.00     0.157 A 
ENDBRANCH  14  16
TORSDOF 1
ENDMDL
MODEL 5
REMARK VINA RESULT:      -7.8      2.872      4.801
REMARK  1 active torsions:
REMARK  status: ('A' for Active; 'I' for Inactive)
REMARK    1  A    between atoms: C10_14  and  N4_15 
ROOT
HETATM    1  O1  UNL     1      19.854   0.271  51.489  1.00  0.00     0.000 OA
HETATM    2  C1  UNL     1      20.191   0.999  50.503  1.00  0.00     0.285 A 
HETATM    3  C2  UNL     1      21.092   0.328  51.335  1.00  0.00     0.046 A 
HETATM    4  C3  UNL     1      21.819  -0.236  52.033  1.00  0.00    -0.126 C 
HETATM    5  C4  UNL     1      22.650  -0.912  52.866  1.00  0.00     0.179 C 
HETATM    6  C5  UNL     1      21.684  -1.529  53.964  1.00  0.00     0.058 C 
HETATM    7  C6  UNL     1      20.316  -1.472  53.963  1.00  0.00     0.030 C 
HETATM    8  C7  UNL     1      18.924  -1.136  53.523  1.00  0.00     0.029 C 
HETATM    9  C8  UNL     1      18.342  -0.396  52.493  1.00  0.00     0.236 C 
HETATM   10  N1  UNL     1      18.997   0.429  51.336  1.00  0.00     0.129 N 
HETATM   11  N2  UNL     1      22.260  -1.914  55.208  1.00  0.00    -0.245 NA
HETATM   12  C9  UNL     1      23.491  -1.535  55.465  1.00  0.00     0.235 C 
HETATM   13  N3  UNL     1      24.230  -0.810  54.506  1.00  0.00    -0.227 NA
HETATM   14  C10 UNL     1      23.878  -0.492  53.333  1.00  0.00     0.129 C 
HETATM   15  H5  UNL     1      18.152   0.862  50.794  1.00  0.00     0.324 HD
ENDROOT
BRANCH  14  16
HETATM   16  N4  UNL     1      24.840   0.279  52.636  1.00  0.00    -0.339 N 
HETATM   17  C11 UNL     1      24.535   1.561  52.047  1.00  0.00     0.111 A 
HETATM   18  C12 UNL     1      25.328   2.385  51.437  1.00  0.00     0.026 A 
HETATM   19 BR1  UNL     1      24.712   4.031  50.737  1.00  0.00    -0.050 Br
HETATM   20  C13 UNL     1      26.710   1.992  51.287  1.00  0.00     0.018 A 
HETATM   21  C14 UNL     1      26.998   0.817  51.798  1.00  0.00    -0.005 A 
HETATM   22  C15 UNL     1      26.196  -0.202  52.500  1.00  0.00     0.157 A 
ENDBRANCH  14  16
TORSDOF 1
ENDMDL
MODEL 6
REMARK VINA RESULT:      -7.7      3.208      6.230
REMARK  1 active torsions:
REMARK  status: ('A' for Active; 'I' for Inactive)
REMARK    1  A    between atoms: C10_14  and  N4_15 
ROOT
HETATM    1  O1  UNL     1      24.959  -0.304  53.973  1.00  0.00     0.000 OA
HETATM    2  C1  UNL     1      25.888   0.149  53.234  1.00  0.00     0.285 A 
HETATM    3  C2  UNL     1      24.529   0.409  53.041  1.00  0.00     0.046 A 
HETATM    4  C3  UNL     1      23.400   0.613  52.901  1.00  0.00    -0.126 C 
HETATM    5  C4  UNL     1      22.070   0.839  52.764  1.00  0.00     0.179 C 
HETATM    6  C5  UNL     1      21.402  -0.073  53.879  1.00  0.00     0.058 C 
HETATM    7  C6  UNL     1      22.062  -0.808  54.827  1.00  0.00     0.030 C 
HETATM    8  C7  UNL     1      23.195  -1.407  55.602  1.00  0.00     0.029 C 
HETATM    9  C8  UNL     1      24.588  -1.405  55.518  1.00  0.00     0.236 C 
HETATM   10  N1  UNL     1      25.545  -0.725  54.483  1.00  0.00     0.129 N 
HETATM   11  N2  UNL     1      20.028  -0.408  53.720  1.00  0.00    -0.245 NA
HETATM   12  C9  UNL     1      19.454  -0.147  52.567  1.00  0.00     0.235 C 
HETATM   13  N3  UNL     1      20.177   0.495  51.540  1.00  0.00    -0.227 NA
HETATM   14  C10 UNL     1      21.363   0.935  51.583  1.00  0.00     0.129 C 
HETATM   15  H5  UNL     1      26.549  -1.026  54.797  1.00  0.00     0.324 HD
ENDROOT
BRANCH  14  16
HETATM   16  N4  UNL     1      21.811   1.492  50.361  1.00  0.00    -0.339 N 
HETATM   17  C11 UNL     1      22.754   2.584  50.300  1.00  0.00     0.111 A 
HETATM   18  C12 UNL     1      23.283   3.144  49.258  1.00  0.00     0.026 A 
HETATM   19 BR1  UNL     1      24.512   4.575  49.409  1.00  0.00    -0.050 Br
HETATM   20  C13 UNL     1      22.884   2.650  47.960  1.00  0.00     0.018 A 
HETATM   21  C14 UNL     1      22.009   1.671  47.999  1.00  0.00    -0.005 A 
HETATM   22  C15 UNL     1      21.336   0.962  49.103  1.00  0.00     0.157 A 
ENDBRANCH  14  16
TORSDOF 1
ENDMDL
MODEL 7
REMARK VINA RESULT:      -7.7      1.649      2.250
REMARK  1 active torsions:
REMARK  status: ('A' for Active; 'I' for Inactive)
REMARK    1  A    between atoms: C10_14  and  N4_15 
ROOT
HETATM    1  O1  UNL     1      21.045  -1.012  54.046  1.00  0.00     0.000 OA
HETATM    2  C1  UNL     1      21.740  -1.642  54.904  1.00  0.00     0.285 A 
HETATM    3  C2  UNL     1      22.208  -0.564  54.145  1.00  0.00     0.046 A 
HETATM    4  C3  UNL     1      22.572   0.328  53.510  1.00  0.00    -0.126 C 
HETATM    5  C4  UNL     1      22.973   1.381  52.754  1.00  0.00     0.179 C 
HETATM    6  C5  UNL     1      21.741   1.662  51.792  1.00  0.00     0.058 C 
HETATM    7  C6  UNL     1      20.522   1.041  51.835  1.00  0.00     0.030 C 
HETATM    8  C7  UNL     1      19.436   0.107  52.274  1.00  0.00     0.029 C 
HETATM    9  C8  UNL     1      19.306  -0.923  53.207  1.00  0.00     0.236 C 
HETATM   10  N1  UNL     1      20.345  -1.528  54.207  1.00  0.00     0.129 N 
HETATM   11  N2  UNL     1      21.991   2.394  50.597  1.00  0.00    -0.245 NA
HETATM   12  C9  UNL     1      23.240   2.596  50.242  1.00  0.00     0.235 C 
HETATM   13  N3  UNL     1      24.296   2.138  51.058  1.00  0.00    -0.227 NA
HETATM   14  C10 UNL     1      24.216   1.568  52.185  1.00  0.00     0.129 C 
HETATM   15  H5  UNL     1      19.805  -2.334  54.712  1.00  0.00     0.324 HD
ENDROOT
BRANCH  14  16
HETATM   16  N4  UNL     1      25.469   1.193  52.727  1.00  0.00    -0.339 N 
HETATM   17  C11 UNL     1      26.011  -0.138  52.594  1.00  0.00     0.111 A 
HETATM   18  C12 UNL     1      27.157  -0.594  52.990  1.00  0.00     0.026 A 
HETATM   19 BR1  UNL     1      27.670  -2.393  52.708  1.00  0.00    -0.050 Br
HETATM   20  C13 UNL     1      28.034   0.322  53.684  1.00  0.00     0.018 A 
HETATM   21  C14 UNL     1      27.546   1.532  53.833  1.00  0.00    -0.005 A 
HETATM   22  C15 UNL     1      26.272   2.162  53.439  1.00  0.00     0.157 A 
ENDBRANCH  14  16
TORSDOF 1
ENDMDL
MODEL 8
REMARK VINA RESULT:      -7.6      2.591      5.603
REMARK  1 active torsions:
REMARK  status: ('A' for Active; 'I' for Inactive)
REMARK    1  A    between atoms: C10_14  and  N4_15 
ROOT
HETATM    1  O1  UNL     1      26.673   0.014  54.549  1.00  0.00     0.000 OA
HETATM    2  C1  UNL     1      25.780  -0.747  55.039  1.00  0.00     0.285 A 
HETATM    3  C2  UNL     1      25.650  -0.050  53.834  1.00  0.00     0.046 A 
HETATM    4  C3  UNL     1      25.564   0.533  52.841  1.00  0.00    -0.126 C 
HETATM    5  C4  UNL     1      25.493   1.226  51.677  1.00  0.00     0.179 C 
HETATM    6  C5  UNL     1      26.827   2.086  51.651  1.00  0.00     0.058 C 
HETATM    7  C6  UNL     1      27.851   2.019  52.558  1.00  0.00     0.030 C 
HETATM    8  C7  UNL     1      28.638   1.593  53.758  1.00  0.00     0.029 C 
HETATM    9  C8  UNL     1      28.441   0.738  54.844  1.00  0.00     0.236 C 
HETATM   10  N1  UNL     1      27.210  -0.147  55.233  1.00  0.00     0.129 N 
HETATM   11  N2  UNL     1      26.857   3.231  50.807  1.00  0.00    -0.245 NA
HETATM   12  C9  UNL     1      25.726   3.644  50.279  1.00  0.00     0.235 C 
HETATM   13  N3  UNL     1      24.530   2.932  50.509  1.00  0.00    -0.227 NA
HETATM   14  C10 UNL     1      24.381   1.851  51.151  1.00  0.00     0.129 C 
HETATM   15  H5  UNL     1      27.497  -0.617  56.178  1.00  0.00     0.324 HD
ENDROOT
BRANCH  14  16
HETATM   16  N4  UNL     1      23.036   1.416  51.235  1.00  0.00    -0.339 N 
HETATM   17  C11 UNL     1      22.428   0.995  52.475  1.00  0.00     0.111 A 
HETATM   18  C12 UNL     1      21.204   0.631  52.698  1.00  0.00     0.026 A 
HETATM   19 BR1  UNL     1      20.614   0.114  54.420  1.00  0.00    -0.050 Br
HETATM   20  C13 UNL     1      20.299   0.611  51.572  1.00  0.00     0.018 A 
HETATM   21  C14 UNL     1      20.843   0.970  50.433  1.00  0.00    -0.005 A 
HETATM   22  C15 UNL     1      22.204   1.393  50.053  1.00  0.00     0.157 A 
ENDBRANCH  14  16
TORSDOF 1
ENDMDL
MODEL 9
REMARK VINA RESULT:      -7.3      2.012      3.806
REMARK  1 active torsions:
REMARK  status: ('A' for Active; 'I' for Inactive)
REMARK    1  A    between atoms: C10_14  and  N4_15 
ROOT
HETATM    1  O1  UNL     1      25.271   4.486  49.403  1.00  0.00     0.000 OA
HETATM    2  C1  UNL     1      26.510   4.757  49.329  1.00  0.00     0.285 A 
HETATM    3  C2  UNL     1      25.980   3.672  50.033  1.00  0.00     0.046 A 
HETATM    4  C3  UNL     1      25.520   2.781  50.607  1.00  0.00    -0.126 C 
HETATM    5  C4  UNL     1      24.954   1.742  51.269  1.00  0.00     0.179 C 
HETATM    6  C5  UNL     1      23.393   1.986  51.117  1.00  0.00     0.058 C 
HETATM    7  C6  UNL     1      22.795   2.967  50.371  1.00  0.00     0.030 C 
HETATM    8  C7  UNL     1      22.650   4.155  49.471  1.00  0.00     0.029 C 
HETATM    9  C8  UNL     1      23.510   5.065  48.855  1.00  0.00     0.236 C 
HETATM   10  N1  UNL     1      25.070   5.184  48.900  1.00  0.00     0.129 N 
HETATM   11  N2  UNL     1      22.530   1.342  52.049  1.00  0.00    -0.245 NA
HETATM   12  C9  UNL     1      23.070   0.778  53.107  1.00  0.00     0.235 C 
HETATM   13  N3  UNL     1      24.470   0.773  53.276  1.00  0.00    -0.227 NA
HETATM   14  C10 UNL     1      25.350   1.215  52.481  1.00  0.00     0.129 C 
HETATM   15  H5  UNL     1      25.296   6.066  48.293  1.00  0.00     0.324 HD
ENDROOT
BRANCH  14  16
HETATM   16  N4  UNL     1      26.674   1.096  52.969  1.00  0.00    -0.339 N 
HETATM   17  C11 UNL     1      27.393  -0.156  52.982  1.00  0.00     0.111 A 
HETATM   18  C12 UNL     1      28.614  -0.389  53.345  1.00  0.00     0.026 A 
HETATM   19 BR1  UNL     1      29.363  -2.125  53.278  1.00  0.00    -0.050 Br
HETATM   20  C13 UNL     1      29.390   0.729  53.832  1.00  0.00     0.018 A 
HETATM   21  C14 UNL     1      28.742   1.871  53.848  1.00  0.00    -0.005 A 
HETATM   22  C15 UNL     1      27.370   2.259  53.472  1.00  0.00     0.157 A 
ENDBRANCH  14  16
TORSDOF 1
ENDMDL
