MODEL 1
REMARK VINA RESULT:      -9.2      0.000      0.000
REMARK  7 active torsions:
REMARK  status: ('A' for Active; 'I' for Inactive)
REMARK    1  A    between atoms: N1_1  and  O1_2 
REMARK    2  A    between atoms: O1_2  and  C1_3 
REMARK    3  A    between atoms: C3_5  and  N2_6 
REMARK    4  A    between atoms: C5_9  and  C6_10 
REMARK    5  A    between atoms: C14_20  and  C15_21 
REMARK    6  A    between atoms: C15_21  and  N4_22 
REMARK    7  A    between atoms: C18_25  and  C19_26 
REMARK       I    between atoms: C19_26  and  N5_27 
ROOT
HETATM    1  C1  UNL     1      22.247   2.220  52.414  1.00  0.00     0.099 C 
HETATM    2  C2  UNL     1      21.859   1.327  53.345  1.00  0.00     0.064 C 
HETATM    3  C3  UNL     1      22.749   0.185  53.424  1.00  0.00     0.238 A 
HETATM    4  C4  UNL     1      22.926  -0.624  54.588  1.00  0.00     0.141 A 
HETATM    5  N3  UNL     1      24.189  -0.878  54.665  1.00  0.00    -0.260 NA
HETATM    6  C5  UNL     1      24.911  -0.252  53.590  1.00  0.00     0.076 A 
HETATM    7  C12 UNL     1      24.040   0.429  52.811  1.00  0.00     0.019 A 
HETATM    8  C13 UNL     1      24.390   1.331  51.736  1.00  0.00     0.024 C 
HETATM    9  C14 UNL     1      23.448   2.283  51.560  1.00  0.00     0.006 C 
ENDROOT
BRANCH   9  10
HETATM   10  C15 UNL     1      23.622   3.314  50.536  1.00  0.00     0.314 C 
BRANCH  10  11
HETATM   11  N4  UNL     1      24.880   3.978  50.507  1.00  0.00     0.093 N 
HETATM   12  C16 UNL     1      25.877   3.410  49.660  1.00  0.00     0.273 C 
HETATM   13  C17 UNL     1      26.706   4.570  49.130  1.00  0.00     0.046 C 
HETATM   14  C18 UNL     1      25.726   5.719  49.139  1.00  0.00     0.107 C 
HETATM   15  C20 UNL     1      24.669   5.353  50.149  1.00  0.00     0.286 C 
BRANCH  14  16
HETATM   16  C19 UNL     1      26.402   6.995  49.491  1.00  0.00     0.221 C 
HETATM   17  N5  UNL     1      26.141   7.552  50.792  1.00  0.00    -0.370 N 
HETATM   18  H18 UNL     1      25.245   7.715  51.291  1.00  0.00     0.159 HD
HETATM   19  H19 UNL     1      26.530   7.960  51.666  1.00  0.00     0.159 HD
HETATM   20  O2  UNL     1      27.188   7.905  49.115  1.00  0.00    -0.273 OA
ENDBRANCH  14  16
ENDBRANCH  10  11
ENDBRANCH   9  10
BRANCH   1  21
HETATM   21  O1  UNL     1      21.444   3.336  52.211  1.00  0.00    -0.266 OA
BRANCH  21  22
HETATM   22  N1  UNL     1      20.131   3.306  52.516  1.00  0.00    -0.209 NA
HETATM   23  H1  UNL     1      19.593   3.727  51.732  1.00  0.00     0.150 HD
HETATM   24  H2  UNL     1      19.786   2.316  52.696  1.00  0.00     0.150 HD
ENDBRANCH  21  22
ENDBRANCH   1  21
BRANCH   3  25
HETATM   25  N2  UNL     1      22.105  -0.796  52.369  1.00  0.00     0.101 N 
HETATM   26  H4  UNL     1      21.285  -0.200  52.071  1.00  0.00     0.315 HD
HETATM   27  H5  UNL     1      21.751  -1.550  53.014  1.00  0.00     0.315 HD
ENDBRANCH   3  25
BRANCH   6  28
HETATM   28  C6  UNL     1      26.383  -0.425  53.524  1.00  0.00    -0.005 A 
HETATM   29  C7  UNL     1      27.012  -1.535  53.008  1.00  0.00     0.017 A 
HETATM   30  C8  UNL     1      28.411  -1.566  53.013  1.00  0.00     0.045 A 
HETATM   31  C9  UNL     1      29.145  -0.511  53.522  1.00  0.00     0.138 A 
HETATM   32  F1  UNL     1      30.517  -0.542  53.526  1.00  0.00    -0.204 F 
HETATM   33  C10 UNL     1      28.534   0.611  54.046  1.00  0.00     0.073 A 
HETATM   34 CL1  UNL     1      29.474   1.944  54.697  1.00  0.00    -0.081 Cl
HETATM   35  C11 UNL     1      27.150   0.615  54.028  1.00  0.00     0.040 A 
ENDBRANCH   6  28
TORSDOF 7
ENDMDL
MODEL 2
REMARK VINA RESULT:      -9.0      3.551      5.905
REMARK  7 active torsions:
REMARK  status: ('A' for Active; 'I' for Inactive)
REMARK    1  A    between atoms: N1_1  and  O1_2 
REMARK    2  A    between atoms: O1_2  and  C1_3 
REMARK    3  A    between atoms: C3_5  and  N2_6 
REMARK    4  A    between atoms: C5_9  and  C6_10 
REMARK    5  A    between atoms: C14_20  and  C15_21 
REMARK    6  A    between atoms: C15_21  and  N4_22 
REMARK    7  A    between atoms: C18_25  and  C19_26 
REMARK       I    between atoms: C19_26  and  N5_27 
ROOT
HETATM    1  C1  UNL     1      22.210  -0.359  53.095  1.00  0.00     0.099 C 
HETATM    2  C2  UNL     1      21.254  -0.010  52.212  1.00  0.00     0.064 C 
HETATM    3  C3  UNL     1      21.492   1.294  51.624  1.00  0.00     0.238 A 
HETATM    4  C4  UNL     1      21.005   1.706  50.346  1.00  0.00     0.141 A 
HETATM    5  N3  UNL     1      21.960   2.371  49.790  1.00  0.00    -0.260 NA
HETATM    6  C5  UNL     1      23.119   2.424  50.641  1.00  0.00     0.076 A 
HETATM    7  C12 UNL     1      22.859   1.748  51.783  1.00  0.00     0.019 A 
HETATM    8  C13 UNL     1      23.820   1.422  52.813  1.00  0.00     0.024 C 
HETATM    9  C14 UNL     1      23.477   0.295  53.474  1.00  0.00     0.006 C 
ENDROOT
BRANCH   9  10
HETATM   10  C15 UNL     1      24.332  -0.226  54.541  1.00  0.00     0.314 C 
BRANCH  10  11
HETATM   11  N4  UNL     1      25.663  -0.575  54.178  1.00  0.00     0.093 N 
HETATM   12  C16 UNL     1      25.862  -0.998  52.831  1.00  0.00     0.273 C 
HETATM   13  C17 UNL     1      27.251  -0.526  52.430  1.00  0.00     0.046 C 
HETATM   14  C18 UNL     1      27.454   0.699  53.291  1.00  0.00     0.107 C 
HETATM   15  C20 UNL     1      26.528   0.534  54.469  1.00  0.00     0.286 C 
BRANCH  14  16
HETATM   16  C19 UNL     1      28.872   0.820  53.722  1.00  0.00     0.221 C 
HETATM   17  N5  UNL     1      29.274   2.049  54.353  1.00  0.00    -0.370 N 
HETATM   18  H18 UNL     1      29.118   3.037  54.074  1.00  0.00     0.159 HD
HETATM   19  H19 UNL     1      29.764   2.507  55.149  1.00  0.00     0.159 HD
HETATM   20  O2  UNL     1      30.000   0.265  53.785  1.00  0.00    -0.273 OA
ENDBRANCH  14  16
ENDBRANCH  10  11
ENDBRANCH   9  10
BRANCH   1  21
HETATM   21  O1  UNL     1      22.066  -1.570  53.762  1.00  0.00    -0.266 OA
BRANCH  21  22
HETATM   22  N1  UNL     1      21.155  -1.712  54.745  1.00  0.00    -0.209 NA
HETATM   23  H1  UNL     1      21.396  -2.551  55.310  1.00  0.00     0.150 HD
HETATM   24  H2  UNL     1      21.112  -0.856  55.375  1.00  0.00     0.150 HD
ENDBRANCH  21  22
ENDBRANCH   1  21
BRANCH   3  25
HETATM   25  N2  UNL     1      20.748   2.244  52.642  1.00  0.00     0.101 N 
HETATM   26  H4  UNL     1      19.899   1.645  52.835  1.00  0.00     0.315 HD
HETATM   27  H5  UNL     1      20.465   3.023  51.991  1.00  0.00     0.315 HD
ENDBRANCH   3  25
BRANCH   6  28
HETATM   28  C6  UNL     1      24.326   3.139  50.158  1.00  0.00    -0.005 A 
HETATM   29  C7  UNL     1      25.613   2.675  50.302  1.00  0.00     0.017 A 
HETATM   30  C8  UNL     1      26.660   3.458  49.801  1.00  0.00     0.045 A 
HETATM   31  C9  UNL     1      26.410   4.667  49.179  1.00  0.00     0.138 A 
HETATM   32  F1  UNL     1      27.436   5.434  48.688  1.00  0.00    -0.204 F 
HETATM   33  C10 UNL     1      25.126   5.152  49.026  1.00  0.00     0.073 A 
HETATM   34 CL1  UNL     1      24.818   6.692  48.239  1.00  0.00    -0.081 Cl
HETATM   35  C11 UNL     1      24.111   4.357  49.530  1.00  0.00     0.040 A 
ENDBRANCH   6  28
TORSDOF 7
ENDMDL
MODEL 3
REMARK VINA RESULT:      -8.9      2.181      5.726
REMARK  7 active torsions:
REMARK  status: ('A' for Active; 'I' for Inactive)
REMARK    1  A    between atoms: N1_1  and  O1_2 
REMARK    2  A    between atoms: O1_2  and  C1_3 
REMARK    3  A    between atoms: C3_5  and  N2_6 
REMARK    4  A    between atoms: C5_9  and  C6_10 
REMARK    5  A    between atoms: C14_20  and  C15_21 
REMARK    6  A    between atoms: C15_21  and  N4_22 
REMARK    7  A    between atoms: C18_25  and  C19_26 
REMARK       I    between atoms: C19_26  and  N5_27 
ROOT
HETATM    1  C1  UNL     1      22.624   4.043  50.192  1.00  0.00     0.099 C 
HETATM    2  C2  UNL     1      23.612   4.468  49.380  1.00  0.00     0.064 C 
HETATM    3  C3  UNL     1      24.922   4.340  49.988  1.00  0.00     0.238 A 
HETATM    4  C4  UNL     1      26.142   4.198  49.258  1.00  0.00     0.141 A 
HETATM    5  N3  UNL     1      26.846   3.323  49.893  1.00  0.00    -0.260 NA
HETATM    6  C5  UNL     1      26.144   2.830  51.047  1.00  0.00     0.076 A 
HETATM    7  C12 UNL     1      24.937   3.436  51.122  1.00  0.00     0.019 A 
HETATM    8  C13 UNL     1      23.868   3.090  52.032  1.00  0.00     0.024 C 
HETATM    9  C14 UNL     1      22.657   3.390  51.514  1.00  0.00     0.006 C 
ENDROOT
BRANCH   9  10
HETATM   10  C15 UNL     1      21.437   3.094  52.267  1.00  0.00     0.314 C 
BRANCH  10  11
HETATM   11  N4  UNL     1      21.055   1.726  52.348  1.00  0.00     0.093 N 
HETATM   12  C16 UNL     1      21.510   0.877  51.296  1.00  0.00     0.273 C 
HETATM   13  C17 UNL     1      21.751  -0.490  51.917  1.00  0.00     0.046 C 
HETATM   14  C18 UNL     1      22.090  -0.156  53.351  1.00  0.00     0.107 C 
HETATM   15  C20 UNL     1      21.486   1.200  53.613  1.00  0.00     0.286 C 
BRANCH  14  16
HETATM   16  C19 UNL     1      21.553  -1.184  54.281  1.00  0.00     0.221 C 
HETATM   17  N5  UNL     1      20.151  -1.496  54.192  1.00  0.00    -0.370 N 
HETATM   18  H18 UNL     1      19.319  -0.875  54.161  1.00  0.00     0.159 HD
HETATM   19  H19 UNL     1      19.418  -2.232  54.129  1.00  0.00     0.159 HD
HETATM   20  O2  UNL     1      21.807  -1.991  55.213  1.00  0.00    -0.273 OA
ENDBRANCH  14  16
ENDBRANCH  10  11
ENDBRANCH   9  10
BRANCH   1  21
HETATM   21  O1  UNL     1      21.315   4.162  49.738  1.00  0.00    -0.266 OA
BRANCH  21  22
HETATM   22  N1  UNL     1      21.056   4.569  48.480  1.00  0.00    -0.209 NA
HETATM   23  H1  UNL     1      21.498   3.904  47.813  1.00  0.00     0.150 HD
HETATM   24  H2  UNL     1      20.012   4.627  48.287  1.00  0.00     0.150 HD
ENDBRANCH  21  22
ENDBRANCH   1  21
BRANCH   3  25
HETATM   25  N2  UNL     1      25.072   5.729  50.720  1.00  0.00     0.101 N 
HETATM   26  H4  UNL     1      26.030   5.999  50.365  1.00  0.00     0.315 HD
HETATM   27  H5  UNL     1      25.168   5.401  51.717  1.00  0.00     0.315 HD
ENDBRANCH   3  25
BRANCH   6  28
HETATM   28  C6  UNL     1      26.798   1.803  51.896  1.00  0.00    -0.005 A 
HETATM   29  C7  UNL     1      26.507   0.459  51.850  1.00  0.00     0.017 A 
HETATM   30  C8  UNL     1      27.201  -0.398  52.712  1.00  0.00     0.045 A 
HETATM   31  C9  UNL     1      28.152   0.090  53.588  1.00  0.00     0.138 A 
HETATM   32  F1  UNL     1      28.831  -0.751  54.433  1.00  0.00    -0.204 F 
HETATM   33  C10 UNL     1      28.456   1.435  53.651  1.00  0.00     0.073 A 
HETATM   34 CL1  UNL     1      29.663   2.047  54.772  1.00  0.00    -0.081 Cl
HETATM   35  C11 UNL     1      27.757   2.259  52.787  1.00  0.00     0.040 A 
ENDBRANCH   6  28
TORSDOF 7
ENDMDL
MODEL 4
REMARK VINA RESULT:      -8.7      1.386      1.680
REMARK  7 active torsions:
REMARK  status: ('A' for Active; 'I' for Inactive)
REMARK    1  A    between atoms: N1_1  and  O1_2 
REMARK    2  A    between atoms: O1_2  and  C1_3 
REMARK    3  A    between atoms: C3_5  and  N2_6 
REMARK    4  A    between atoms: C5_9  and  C6_10 
REMARK    5  A    between atoms: C14_20  and  C15_21 
REMARK    6  A    between atoms: C15_21  and  N4_22 
REMARK    7  A    between atoms: C18_25  and  C19_26 
REMARK       I    between atoms: C19_26  and  N5_27 
ROOT
HETATM    1  C1  UNL     1      22.268   3.606  51.080  1.00  0.00     0.099 C 
HETATM    2  C2  UNL     1      21.608   2.831  51.964  1.00  0.00     0.064 C 
HETATM    3  C3  UNL     1      22.280   1.570  52.206  1.00  0.00     0.238 A 
HETATM    4  C4  UNL     1      22.151   0.802  53.403  1.00  0.00     0.141 A 
HETATM    5  N3  UNL     1      23.331   0.356  53.678  1.00  0.00    -0.260 NA
HETATM    6  C5  UNL     1      24.294   0.808  52.710  1.00  0.00     0.076 A 
HETATM    7  C12 UNL     1      23.669   1.577  51.790  1.00  0.00     0.019 A 
HETATM    8  C13 UNL     1      24.314   2.359  50.758  1.00  0.00     0.024 C 
HETATM    9  C14 UNL     1      23.575   3.438  50.417  1.00  0.00     0.006 C 
ENDROOT
BRANCH   9  10
HETATM   10  C15 UNL     1      24.062   4.377  49.407  1.00  0.00     0.314 C 
BRANCH  10  11
HETATM   11  N4  UNL     1      25.223   5.129  49.741  1.00  0.00     0.093 N 
HETATM   12  C16 UNL     1      26.388   4.879  48.957  1.00  0.00     0.273 C 
HETATM   13  C17 UNL     1      27.136   6.199  48.860  1.00  0.00     0.046 C 
HETATM   14  C18 UNL     1      26.032   7.223  48.982  1.00  0.00     0.107 C 
HETATM   15  C20 UNL     1      24.898   6.527  49.690  1.00  0.00     0.286 C 
BRANCH  14  16
HETATM   16  C19 UNL     1      26.495   8.420  49.732  1.00  0.00     0.221 C 
HETATM   17  N5  UNL     1      27.891   8.496  50.071  1.00  0.00    -0.370 N 
HETATM   18  H18 UNL     1      28.522   7.795  50.505  1.00  0.00     0.159 HD
HETATM   19  H19 UNL     1      28.762   9.066  50.080  1.00  0.00     0.159 HD
HETATM   20  O2  UNL     1      26.172   9.517  50.261  1.00  0.00    -0.273 OA
ENDBRANCH  14  16
ENDBRANCH  10  11
ENDBRANCH   9  10
BRANCH   1  21
HETATM   21  O1  UNL     1      21.695   4.823  50.729  1.00  0.00    -0.266 OA
BRANCH  21  22
HETATM   22  N1  UNL     1      21.767   5.884  51.557  1.00  0.00    -0.209 NA
HETATM   23  H1  UNL     1      20.855   6.383  51.544  1.00  0.00     0.150 HD
HETATM   24  H2  UNL     1      22.004   5.597  52.553  1.00  0.00     0.150 HD
ENDBRANCH  21  22
ENDBRANCH   1  21
BRANCH   3  25
HETATM   25  N2  UNL     1      21.646   0.651  51.090  1.00  0.00     0.101 N 
HETATM   26  H4  UNL     1      20.669   1.053  51.082  1.00  0.00     0.315 HD
HETATM   27  H5  UNL     1      21.624  -0.269  51.603  1.00  0.00     0.315 HD
ENDBRANCH   3  25
BRANCH   6  28
HETATM   28  C6  UNL     1      25.712   0.403  52.873  1.00  0.00    -0.005 A 
HETATM   29  C7  UNL     1      26.179  -0.879  52.694  1.00  0.00     0.017 A 
HETATM   30  C8  UNL     1      27.545  -1.120  52.885  1.00  0.00     0.045 A 
HETATM   31  C9  UNL     1      28.404  -0.099  53.246  1.00  0.00     0.138 A 
HETATM   32  F1  UNL     1      29.742  -0.336  53.433  1.00  0.00    -0.204 F 
HETATM   33  C10 UNL     1      27.955   1.194  53.433  1.00  0.00     0.073 A 
HETATM   34 CL1  UNL     1      29.054   2.484  53.897  1.00  0.00    -0.081 Cl
HETATM   35  C11 UNL     1      26.602   1.403  53.236  1.00  0.00     0.040 A 
ENDBRANCH   6  28
TORSDOF 7
ENDMDL
MODEL 5
REMARK VINA RESULT:      -8.7      1.866      2.467
REMARK  7 active torsions:
REMARK  status: ('A' for Active; 'I' for Inactive)
REMARK    1  A    between atoms: N1_1  and  O1_2 
REMARK    2  A    between atoms: O1_2  and  C1_3 
REMARK    3  A    between atoms: C3_5  and  N2_6 
REMARK    4  A    between atoms: C5_9  and  C6_10 
REMARK    5  A    between atoms: C14_20  and  C15_21 
REMARK    6  A    between atoms: C15_21  and  N4_22 
REMARK    7  A    between atoms: C18_25  and  C19_26 
REMARK       I    between atoms: C19_26  and  N5_27 
ROOT
HETATM    1  C1  UNL     1      22.945   3.971  50.658  1.00  0.00     0.099 C 
HETATM    2  C2  UNL     1      22.240   3.204  51.513  1.00  0.00     0.064 C 
HETATM    3  C3  UNL     1      22.937   1.984  51.868  1.00  0.00     0.238 A 
HETATM    4  C4  UNL     1      22.733   1.259  53.081  1.00  0.00     0.141 A 
HETATM    5  N3  UNL     1      23.900   0.877  53.478  1.00  0.00    -0.260 NA
HETATM    6  C5  UNL     1      24.927   1.331  52.579  1.00  0.00     0.076 A 
HETATM    7  C12 UNL     1      24.356   2.035  51.576  1.00  0.00     0.019 A 
HETATM    8  C13 UNL     1      25.059   2.803  50.571  1.00  0.00     0.024 C 
HETATM    9  C14 UNL     1      24.311   3.834  50.120  1.00  0.00     0.006 C 
ENDROOT
BRANCH   9  10
HETATM   10  C15 UNL     1      24.848   4.752  49.116  1.00  0.00     0.314 C 
BRANCH  10  11
HETATM   11  N4  UNL     1      26.050   5.435  49.455  1.00  0.00     0.093 N 
HETATM   12  C16 UNL     1      27.163   5.227  48.587  1.00  0.00     0.273 C 
HETATM   13  C17 UNL     1      27.949   6.529  48.572  1.00  0.00     0.046 C 
HETATM   14  C18 UNL     1      26.889   7.568  48.850  1.00  0.00     0.107 C 
HETATM   15  C20 UNL     1      25.771   6.840  49.552  1.00  0.00     0.286 C 
BRANCH  14  16
HETATM   16  C19 UNL     1      27.430   8.675  49.682  1.00  0.00     0.221 C 
HETATM   17  N5  UNL     1      28.858   8.852  49.707  1.00  0.00    -0.370 N 
HETATM   18  H18 UNL     1      29.624   8.166  49.855  1.00  0.00     0.159 HD
HETATM   19  H19 UNL     1      29.663   9.507  49.625  1.00  0.00     0.159 HD
HETATM   20  O2  UNL     1      27.167   9.629  50.460  1.00  0.00    -0.273 OA
ENDBRANCH  14  16
ENDBRANCH  10  11
ENDBRANCH   9  10
BRANCH   1  21
HETATM   21  O1  UNL     1      22.357   5.147  50.206  1.00  0.00    -0.266 OA
BRANCH  21  22
HETATM   22  N1  UNL     1      21.653   5.933  51.043  1.00  0.00    -0.209 NA
HETATM   23  H1  UNL     1      22.098   6.873  51.076  1.00  0.00     0.150 HD
HETATM   24  H2  UNL     1      20.638   6.028  50.742  1.00  0.00     0.150 HD
ENDBRANCH  21  22
ENDBRANCH   1  21
BRANCH   3  25
HETATM   25  N2  UNL     1      22.443   0.995  50.742  1.00  0.00     0.101 N 
HETATM   26  H4  UNL     1      23.352   0.492  50.555  1.00  0.00     0.315 HD
HETATM   27  H5  UNL     1      22.274   1.679  49.959  1.00  0.00     0.315 HD
ENDBRANCH   3  25
BRANCH   6  28
HETATM   28  C6  UNL     1      26.340   0.995  52.883  1.00  0.00    -0.005 A 
HETATM   29  C7  UNL     1      27.308   1.921  53.197  1.00  0.00     0.017 A 
HETATM   30  C8  UNL     1      28.604   1.461  53.458  1.00  0.00     0.045 A 
HETATM   31  C9  UNL     1      28.907   0.114  53.402  1.00  0.00     0.138 A 
HETATM   32  F1  UNL     1      30.177  -0.335  53.659  1.00  0.00    -0.204 F 
HETATM   33  C10 UNL     1      27.951  -0.831  53.087  1.00  0.00     0.073 A 
HETATM   34 CL1  UNL     1      28.346  -2.541  53.012  1.00  0.00    -0.081 Cl
HETATM   35  C11 UNL     1      26.678  -0.349  52.835  1.00  0.00     0.040 A 
ENDBRANCH   6  28
TORSDOF 7
ENDMDL
MODEL 6
REMARK VINA RESULT:      -8.6      3.781      6.014
REMARK  7 active torsions:
REMARK  status: ('A' for Active; 'I' for Inactive)
REMARK    1  A    between atoms: N1_1  and  O1_2 
REMARK    2  A    between atoms: O1_2  and  C1_3 
REMARK    3  A    between atoms: C3_5  and  N2_6 
REMARK    4  A    between atoms: C5_9  and  C6_10 
REMARK    5  A    between atoms: C14_20  and  C15_21 
REMARK    6  A    between atoms: C15_21  and  N4_22 
REMARK    7  A    between atoms: C18_25  and  C19_26 
REMARK       I    between atoms: C19_26  and  N5_27 
ROOT
HETATM    1  C1  UNL     1      25.872   3.097  50.829  1.00  0.00     0.099 C 
HETATM    2  C2  UNL     1      26.748   2.248  51.401  1.00  0.00     0.064 C 
HETATM    3  C3  UNL     1      26.191   1.570  52.555  1.00  0.00     0.238 A 
HETATM    4  C4  UNL     1      26.627   0.297  53.034  1.00  0.00     0.141 A 
HETATM    5  N3  UNL     1      25.562  -0.349  53.372  1.00  0.00    -0.260 NA
HETATM    6  C5  UNL     1      24.381   0.434  53.125  1.00  0.00     0.076 A 
HETATM    7  C12 UNL     1      24.743   1.627  52.603  1.00  0.00     0.019 A 
HETATM    8  C13 UNL     1      23.846   2.622  52.058  1.00  0.00     0.024 C 
HETATM    9  C14 UNL     1      24.449   3.368  51.107  1.00  0.00     0.006 C 
ENDROOT
BRANCH   9  10
HETATM   10  C15 UNL     1      23.706   4.417  50.408  1.00  0.00     0.314 C 
BRANCH  10  11
HETATM   11  N4  UNL     1      22.807   3.992  49.390  1.00  0.00     0.093 N 
HETATM   12  C16 UNL     1      23.215   2.867  48.614  1.00  0.00     0.273 C 
HETATM   13  C17 UNL     1      21.948   2.107  48.253  1.00  0.00     0.046 C 
HETATM   14  C18 UNL     1      21.019   2.436  49.399  1.00  0.00     0.107 C 
HETATM   15  C20 UNL     1      21.527   3.728  49.985  1.00  0.00     0.286 C 
BRANCH  14  16
HETATM   16  C19 UNL     1      19.615   2.561  48.928  1.00  0.00     0.221 C 
HETATM   17  N5  UNL     1      19.384   2.553  47.508  1.00  0.00    -0.370 N 
HETATM   18  H18 UNL     1      19.845   3.083  46.743  1.00  0.00     0.159 HD
HETATM   19  H19 UNL     1      18.839   2.166  46.709  1.00  0.00     0.159 HD
HETATM   20  O2  UNL     1      18.405   2.687  49.256  1.00  0.00    -0.273 OA
ENDBRANCH  14  16
ENDBRANCH  10  11
ENDBRANCH   9  10
BRANCH   1  21
HETATM   21  O1  UNL     1      26.309   3.843  49.741  1.00  0.00    -0.266 OA
BRANCH  21  22
HETATM   22  N1  UNL     1      27.548   4.371  49.718  1.00  0.00    -0.209 NA
HETATM   23  H1  UNL     1      28.074   4.030  50.549  1.00  0.00     0.150 HD
HETATM   24  H2  UNL     1      28.075   4.113  48.831  1.00  0.00     0.150 HD
ENDBRANCH  21  22
ENDBRANCH   1  21
BRANCH   3  25
HETATM   25  N2  UNL     1      26.561   2.567  53.721  1.00  0.00     0.101 N 
HETATM   26  H4  UNL     1      25.949   3.381  53.442  1.00  0.00     0.315 HD
HETATM   27  H5  UNL     1      27.556   2.793  53.457  1.00  0.00     0.315 HD
ENDBRANCH   3  25
BRANCH   6  28
HETATM   28  C6  UNL     1      23.056  -0.155  53.443  1.00  0.00    -0.005 A 
HETATM   29  C7  UNL     1      22.808  -0.971  54.523  1.00  0.00     0.017 A 
HETATM   30  C8  UNL     1      21.508  -1.460  54.698  1.00  0.00     0.045 A 
HETATM   31  C9  UNL     1      20.499  -1.135  53.812  1.00  0.00     0.138 A 
HETATM   32  F1  UNL     1      19.225  -1.615  53.984  1.00  0.00    -0.204 F 
HETATM   33  C10 UNL     1      20.728  -0.320  52.720  1.00  0.00     0.073 A 
HETATM   34 CL1  UNL     1      19.440   0.083  51.595  1.00  0.00    -0.081 Cl
HETATM   35  C11 UNL     1      22.021   0.150  52.572  1.00  0.00     0.040 A 
ENDBRANCH   6  28
TORSDOF 7
ENDMDL
MODEL 7
REMARK VINA RESULT:      -8.4      3.854      5.481
REMARK  7 active torsions:
REMARK  status: ('A' for Active; 'I' for Inactive)
REMARK    1  A    between atoms: N1_1  and  O1_2 
REMARK    2  A    between atoms: O1_2  and  C1_3 
REMARK    3  A    between atoms: C3_5  and  N2_6 
REMARK    4  A    between atoms: C5_9  and  C6_10 
REMARK    5  A    between atoms: C14_20  and  C15_21 
REMARK    6  A    between atoms: C15_21  and  N4_22 
REMARK    7  A    between atoms: C18_25  and  C19_26 
REMARK       I    between atoms: C19_26  and  N5_27 
ROOT
HETATM    1  C1  UNL     1      26.037   2.836  50.684  1.00  0.00     0.099 C 
HETATM    2  C2  UNL     1      26.819   2.063  51.462  1.00  0.00     0.064 C 
HETATM    3  C3  UNL     1      26.117   1.555  52.625  1.00  0.00     0.238 A 
HETATM    4  C4  UNL     1      26.461   0.355  53.317  1.00  0.00     0.141 A 
HETATM    5  N3  UNL     1      25.348  -0.227  53.613  1.00  0.00    -0.260 NA
HETATM    6  C5  UNL     1      24.224   0.529  53.129  1.00  0.00     0.076 A 
HETATM    7  C12 UNL     1      24.675   1.636  52.497  1.00  0.00     0.019 A 
HETATM    8  C13 UNL     1      23.873   2.557  51.723  1.00  0.00     0.024 C 
HETATM    9  C14 UNL     1      24.599   3.159  50.757  1.00  0.00     0.006 C 
ENDROOT
BRANCH   9  10
HETATM   10  C15 UNL     1      23.969   4.112  49.843  1.00  0.00     0.314 C 
BRANCH  10  11
HETATM   11  N4  UNL     1      23.470   5.313  50.419  1.00  0.00     0.093 N 
HETATM   12  C16 UNL     1      24.436   6.186  51.003  1.00  0.00     0.273 C 
HETATM   13  C17 UNL     1      23.928   7.602  50.783  1.00  0.00     0.046 C 
HETATM   14  C18 UNL     1      23.109   7.476  49.520  1.00  0.00     0.107 C 
HETATM   15  C20 UNL     1      22.716   6.025  49.425  1.00  0.00     0.286 C 
BRANCH  14  16
HETATM   16  C19 UNL     1      21.919   8.365  49.564  1.00  0.00     0.221 C 
HETATM   17  N5  UNL     1      20.711   7.834  50.139  1.00  0.00    -0.370 N 
HETATM   18  H18 UNL     1      20.219   6.935  49.971  1.00  0.00     0.159 HD
HETATM   19  H19 UNL     1      19.921   7.971  50.802  1.00  0.00     0.159 HD
HETATM   20  O2  UNL     1      21.445   9.500  49.292  1.00  0.00    -0.273 OA
ENDBRANCH  14  16
ENDBRANCH  10  11
ENDBRANCH   9  10
BRANCH   1  21
HETATM   21  O1  UNL     1      26.614   3.422  49.564  1.00  0.00    -0.266 OA
BRANCH  21  22
HETATM   22  N1  UNL     1      27.492   4.436  49.690  1.00  0.00    -0.209 NA
HETATM   23  H1  UNL     1      27.875   4.432  50.657  1.00  0.00     0.150 HD
HETATM   24  H2  UNL     1      28.289   4.363  48.989  1.00  0.00     0.150 HD
ENDBRANCH  21  22
ENDBRANCH   1  21
BRANCH   3  25
HETATM   25  N2  UNL     1      26.380   2.697  53.681  1.00  0.00     0.101 N 
HETATM   26  H4  UNL     1      26.839   2.119  54.437  1.00  0.00     0.315 HD
HETATM   27  H5  UNL     1      25.390   2.905  53.976  1.00  0.00     0.315 HD
ENDBRANCH   3  25
BRANCH   6  28
HETATM   28  C6  UNL     1      22.856   0.004  53.367  1.00  0.00    -0.005 A 
HETATM   29  C7  UNL     1      22.497  -0.761  54.453  1.00  0.00     0.017 A 
HETATM   30  C8  UNL     1      21.168  -1.193  54.548  1.00  0.00     0.045 A 
HETATM   31  C9  UNL     1      20.241  -0.861  53.579  1.00  0.00     0.138 A 
HETATM   32  F1  UNL     1      18.939  -1.284  53.673  1.00  0.00    -0.204 F 
HETATM   33  C10 UNL     1      20.582  -0.096  52.480  1.00  0.00     0.073 A 
HETATM   34 CL1  UNL     1      19.397   0.315  51.250  1.00  0.00    -0.081 Cl
HETATM   35  C11 UNL     1      21.901   0.317  52.412  1.00  0.00     0.040 A 
ENDBRANCH   6  28
TORSDOF 7
ENDMDL
MODEL 8
REMARK VINA RESULT:      -8.2      3.798      6.474
REMARK  7 active torsions:
REMARK  status: ('A' for Active; 'I' for Inactive)
REMARK    1  A    between atoms: N1_1  and  O1_2 
REMARK    2  A    between atoms: O1_2  and  C1_3 
REMARK    3  A    between atoms: C3_5  and  N2_6 
REMARK    4  A    between atoms: C5_9  and  C6_10 
REMARK    5  A    between atoms: C14_20  and  C15_21 
REMARK    6  A    between atoms: C15_21  and  N4_22 
REMARK    7  A    between atoms: C18_25  and  C19_26 
REMARK       I    between atoms: C19_26  and  N5_27 
ROOT
HETATM    1  C1  UNL     1      25.304  -0.519  54.394  1.00  0.00     0.099 C 
HETATM    2  C2  UNL     1      26.576  -0.123  54.599  1.00  0.00     0.064 C 
HETATM    3  C3  UNL     1      27.150   0.527  53.437  1.00  0.00     0.238 A 
HETATM    4  C4  UNL     1      28.211   1.481  53.486  1.00  0.00     0.141 A 
HETATM    5  N3  UNL     1      27.914   2.401  52.632  1.00  0.00    -0.260 NA
HETATM    6  C5  UNL     1      26.656   2.126  51.991  1.00  0.00     0.076 A 
HETATM    7  C12 UNL     1      26.151   0.973  52.485  1.00  0.00     0.019 A 
HETATM    8  C13 UNL     1      24.829   0.446  52.229  1.00  0.00     0.024 C 
HETATM    9  C14 UNL     1      24.388  -0.313  53.256  1.00  0.00     0.006 C 
ENDROOT
BRANCH   9  10
HETATM   10  C15 UNL     1      23.058  -0.921  53.208  1.00  0.00     0.314 C 
BRANCH  10  11
HETATM   11  N4  UNL     1      21.955  -0.031  53.076  1.00  0.00     0.093 N 
HETATM   12  C16 UNL     1      22.203   1.337  53.394  1.00  0.00     0.273 C 
HETATM   13  C17 UNL     1      21.321   2.163  52.470  1.00  0.00     0.046 C 
HETATM   14  C18 UNL     1      21.176   1.273  51.257  1.00  0.00     0.107 C 
HETATM   15  C20 UNL     1      21.439  -0.130  51.740  1.00  0.00     0.286 C 
BRANCH  14  16
HETATM   16  C19 UNL     1      19.821   1.402  50.660  1.00  0.00     0.221 C 
HETATM   17  N5  UNL     1      19.705   1.261  49.232  1.00  0.00    -0.370 N 
HETATM   18  H18 UNL     1      20.250   1.696  48.462  1.00  0.00     0.159 HD
HETATM   19  H19 UNL     1      19.210   0.817  48.431  1.00  0.00     0.159 HD
HETATM   20  O2  UNL     1      18.596   1.603  50.870  1.00  0.00    -0.273 OA
ENDBRANCH  14  16
ENDBRANCH  10  11
ENDBRANCH   9  10
BRANCH   1  21
HETATM   21  O1  UNL     1      24.663  -1.200  55.421  1.00  0.00    -0.266 OA
BRANCH  21  22
HETATM   22  N1  UNL     1      25.249  -1.343  56.626  1.00  0.00    -0.209 NA
HETATM   23  H1  UNL     1      24.784  -0.706  57.304  1.00  0.00     0.150 HD
HETATM   24  H2  UNL     1      25.195  -2.344  56.979  1.00  0.00     0.150 HD
ENDBRANCH  21  22
ENDBRANCH   1  21
BRANCH   3  25
HETATM   25  N2  UNL     1      27.770  -0.697  52.659  1.00  0.00     0.101 N 
HETATM   26  H4  UNL     1      28.766  -0.354  52.581  1.00  0.00     0.315 HD
HETATM   27  H5  UNL     1      27.302  -0.574  51.723  1.00  0.00     0.315 HD
ENDBRANCH   3  25
BRANCH   6  28
HETATM   28  C6  UNL     1      26.144   3.087  50.983  1.00  0.00    -0.005 A 
HETATM   29  C7  UNL     1      26.864   3.530  49.898  1.00  0.00     0.017 A 
HETATM   30  C8  UNL     1      26.257   4.442  49.026  1.00  0.00     0.045 A 
HETATM   31  C9  UNL     1      24.967   4.888  49.248  1.00  0.00     0.138 A 
HETATM   32  F1  UNL     1      24.372   5.781  48.394  1.00  0.00    -0.204 F 
HETATM   33  C10 UNL     1      24.228   4.457  50.332  1.00  0.00     0.073 A 
HETATM   34 CL1  UNL     1      22.592   5.033  50.610  1.00  0.00    -0.081 Cl
HETATM   35  C11 UNL     1      24.853   3.555  51.176  1.00  0.00     0.040 A 
ENDBRANCH   6  28
TORSDOF 7
ENDMDL
MODEL 9
REMARK VINA RESULT:      -7.9      3.929      6.247
REMARK  7 active torsions:
REMARK  status: ('A' for Active; 'I' for Inactive)
REMARK    1  A    between atoms: N1_1  and  O1_2 
REMARK    2  A    between atoms: O1_2  and  C1_3 
REMARK    3  A    between atoms: C3_5  and  N2_6 
REMARK    4  A    between atoms: C5_9  and  C6_10 
REMARK    5  A    between atoms: C14_20  and  C15_21 
REMARK    6  A    between atoms: C15_21  and  N4_22 
REMARK    7  A    between atoms: C18_25  and  C19_26 
REMARK       I    between atoms: C19_26  and  N5_27 
ROOT
HETATM    1  C1  UNL     1      22.397   0.119  53.418  1.00  0.00     0.099 C 
HETATM    2  C2  UNL     1      23.529   0.117  54.150  1.00  0.00     0.064 C 
HETATM    3  C3  UNL     1      24.687   0.529  53.381  1.00  0.00     0.238 A 
HETATM    4  C4  UNL     1      25.861   1.118  53.941  1.00  0.00     0.141 A 
HETATM    5  N3  UNL     1      26.217   2.059  53.133  1.00  0.00    -0.260 NA
HETATM    6  C5  UNL     1      25.309   2.159  52.021  1.00  0.00     0.076 A 
HETATM    7  C12 UNL     1      24.339   1.227  52.159  1.00  0.00     0.019 A 
HETATM    8  C13 UNL     1      23.146   1.119  51.349  1.00  0.00     0.024 C 
HETATM    9  C14 UNL     1      22.127   0.559  52.036  1.00  0.00     0.006 C 
ENDROOT
BRANCH   9  10
HETATM   10  C15 UNL     1      20.819   0.381  51.405  1.00  0.00     0.314 C 
BRANCH  10  11
HETATM   11  N4  UNL     1      20.174   1.558  50.932  1.00  0.00     0.093 N 
HETATM   12  C16 UNL     1      19.642   1.501  49.610  1.00  0.00     0.273 C 
HETATM   13  C17 UNL     1      18.394   2.370  49.607  1.00  0.00     0.046 C 
HETATM   14  C18 UNL     1      17.921   2.287  51.039  1.00  0.00     0.107 C 
HETATM   15  C20 UNL     1      19.134   1.918  51.855  1.00  0.00     0.286 C 
BRANCH  14  16
HETATM   16  C19 UNL     1      17.334   3.579  51.484  1.00  0.00     0.221 C 
HETATM   17  N5  UNL     1      17.439   4.701  50.589  1.00  0.00    -0.370 N 
HETATM   18  H18 UNL     1      18.254   5.080  50.069  1.00  0.00     0.159 HD
HETATM   19  H19 UNL     1      16.957   5.492  50.113  1.00  0.00     0.159 HD
HETATM   20  O2  UNL     1      16.720   4.195  52.395  1.00  0.00    -0.273 OA
ENDBRANCH  14  16
ENDBRANCH  10  11
ENDBRANCH   9  10
BRANCH   1  21
HETATM   21  O1  UNL     1      21.226  -0.305  54.034  1.00  0.00    -0.266 OA
BRANCH  21  22
HETATM   22  N1  UNL     1      21.234  -1.349  54.887  1.00  0.00    -0.209 NA
HETATM   23  H1  UNL     1      20.383  -1.924  54.723  1.00  0.00     0.150 HD
HETATM   24  H2  UNL     1      22.102  -1.952  54.770  1.00  0.00     0.150 HD
ENDBRANCH  21  22
ENDBRANCH   1  21
BRANCH   3  25
HETATM   25  N2  UNL     1      25.189  -0.848  52.797  1.00  0.00     0.101 N 
HETATM   26  H4  UNL     1      25.497  -1.306  53.698  1.00  0.00     0.315 HD
HETATM   27  H5  UNL     1      26.048  -0.524  52.279  1.00  0.00     0.315 HD
ENDBRANCH   3  25
BRANCH   6  28
HETATM   28  C6  UNL     1      25.554   3.199  50.992  1.00  0.00    -0.005 A 
HETATM   29  C7  UNL     1      26.582   3.160  50.078  1.00  0.00     0.017 A 
HETATM   30  C8  UNL     1      26.696   4.215  49.164  1.00  0.00     0.045 A 
HETATM   31  C9  UNL     1      25.802   5.268  49.177  1.00  0.00     0.138 A 
HETATM   32  F1  UNL     1      25.914   6.301  48.281  1.00  0.00    -0.204 F 
HETATM   33  C10 UNL     1      24.764   5.327  50.087  1.00  0.00     0.073 A 
HETATM   34 CL1  UNL     1      23.636   6.673  50.100  1.00  0.00    -0.081 Cl
HETATM   35  C11 UNL     1      24.675   4.272  50.977  1.00  0.00     0.040 A 
ENDBRANCH   6  28
TORSDOF 7
ENDMDL
