MODEL 1
REMARK VINA RESULT:      -7.4      0.000      0.000
REMARK  5 active torsions:
REMARK  status: ('A' for Active; 'I' for Inactive)
REMARK    1  A    between atoms: C2_2  and  C3_4 
REMARK    2  A    between atoms: C4_5  and  C5_6 
REMARK    3  A    between atoms: C5_6  and  N1_7 
REMARK    4  A    between atoms: C9_11  and  O1_12 
REMARK    5  A    between atoms: C11_14  and  O2_15 
ROOT
HETATM    1  N1  UNL     1      22.870  -0.810  54.199  1.00  0.00    -0.371 N 
HETATM    2  C6  UNL     1      23.711   0.014  53.403  1.00  0.00     0.101 C 
HETATM    3  C7  UNL     1      25.003   0.276  53.512  1.00  0.00     0.012 A 
HETATM    4  C8  UNL     1      25.400   1.137  52.510  1.00  0.00     0.054 A 
HETATM    5  C9  UNL     1      26.704   1.578  52.383  1.00  0.00     0.102 A 
HETATM    6  C11 UNL     1      27.632   1.121  53.315  1.00  0.00     0.103 A 
HETATM    7  C13 UNL     1      27.207   0.261  54.306  1.00  0.00     0.074 A 
HETATM    8  C14 UNL     1      25.909  -0.188  54.446  1.00  0.00     0.091 A 
HETATM    9  N2  UNL     1      25.675  -0.976  55.410  1.00  0.00    -0.177 NA
HETATM   10  N3  UNL     1      24.483  -1.585  55.801  1.00  0.00    -0.295 N 
HETATM   11  C15 UNL     1      23.116  -1.146  55.609  1.00  0.00     0.265 C 
HETATM   12  H16 UNL     1      24.622  -2.506  56.314  1.00  0.00     0.184 HD
ENDROOT
BRANCH   1  13
HETATM   13  C5  UNL     1      21.674  -1.367  53.587  1.00  0.00     0.130 C 
BRANCH  13  14
HETATM   14  C4  UNL     1      20.563  -0.428  53.473  1.00  0.00     0.020 C 
HETATM   15  C3  UNL     1      19.400  -1.001  53.356  1.00  0.00     0.045 C 
BRANCH  15  16
HETATM   16  C2  UNL     1      17.989  -1.133  53.214  1.00  0.00     0.007 C 
HETATM   17  C1  UNL     1      17.789  -2.407  53.514  1.00  0.00     0.032 C 
HETATM   18 CL1  UNL     1      16.345  -0.712  52.902  1.00  0.00    -0.089 Cl
ENDBRANCH  15  16
ENDBRANCH  13  14
ENDBRANCH   1  13
BRANCH   5  19
HETATM   19  O1  UNL     1      27.158   2.443  51.396  1.00  0.00    -0.353 OA
HETATM   20  C10 UNL     1      26.361   2.962  50.379  1.00  0.00     0.210 C 
ENDBRANCH   5  19
BRANCH   6  21
HETATM   21  O2  UNL     1      28.944   1.538  53.222  1.00  0.00    -0.353 OA
HETATM   22  C12 UNL     1      29.979   0.617  53.526  1.00  0.00     0.210 C 
ENDBRANCH   6  21
TORSDOF 5
ENDMDL
MODEL 2
REMARK VINA RESULT:      -7.3      4.823      7.708
REMARK  5 active torsions:
REMARK  status: ('A' for Active; 'I' for Inactive)
REMARK    1  A    between atoms: C2_2  and  C3_4 
REMARK    2  A    between atoms: C4_5  and  C5_6 
REMARK    3  A    between atoms: C5_6  and  N1_7 
REMARK    4  A    between atoms: C9_11  and  O1_12 
REMARK    5  A    between atoms: C11_14  and  O2_15 
ROOT
HETATM    1  N1  UNL     1      24.674   3.375  50.428  1.00  0.00    -0.371 N 
HETATM    2  C6  UNL     1      25.433   2.848  51.508  1.00  0.00     0.101 C 
HETATM    3  C7  UNL     1      25.179   1.834  52.318  1.00  0.00     0.012 A 
HETATM    4  C8  UNL     1      26.206   1.682  53.226  1.00  0.00     0.054 A 
HETATM    5  C9  UNL     1      26.202   0.694  54.192  1.00  0.00     0.102 A 
HETATM    6  C11 UNL     1      25.108  -0.167  54.229  1.00  0.00     0.103 A 
HETATM    7  C13 UNL     1      24.096   0.009  53.309  1.00  0.00     0.074 A 
HETATM    8  C14 UNL     1      24.086   0.990  52.339  1.00  0.00     0.091 A 
HETATM    9  N2  UNL     1      23.082   1.023  51.566  1.00  0.00    -0.177 NA
HETATM   10  N3  UNL     1      22.792   1.885  50.508  1.00  0.00    -0.295 N 
HETATM   11  C15 UNL     1      23.215   3.253  50.290  1.00  0.00     0.265 C 
HETATM   12  H16 UNL     1      22.167   1.453  49.764  1.00  0.00     0.184 HD
ENDROOT
BRANCH   1  13
HETATM   13  C5  UNL     1      25.378   4.092  49.377  1.00  0.00     0.130 C 
BRANCH  13  14
HETATM   14  C4  UNL     1      26.819   3.867  49.356  1.00  0.00     0.020 C 
HETATM   15  C3  UNL     1      27.492   4.818  48.775  1.00  0.00     0.045 C 
BRANCH  15  16
HETATM   16  C2  UNL     1      28.611   5.543  48.273  1.00  0.00     0.007 C 
HETATM   17  C1  UNL     1      28.104   6.750  48.073  1.00  0.00     0.032 C 
HETATM   18 CL1  UNL     1      30.219   5.883  47.747  1.00  0.00    -0.089 Cl
ENDBRANCH  15  16
ENDBRANCH  13  14
ENDBRANCH   1  13
BRANCH   5  19
HETATM   19  O1  UNL     1      27.207   0.495  55.130  1.00  0.00    -0.353 OA
HETATM   20  C10 UNL     1      28.536   0.225  54.813  1.00  0.00     0.210 C 
ENDBRANCH   5  19
BRANCH   6  21
HETATM   21  O2  UNL     1      25.067  -1.167  55.179  1.00  0.00    -0.353 OA
HETATM   22  C12 UNL     1      23.823  -1.495  55.775  1.00  0.00     0.210 C 
ENDBRANCH   6  21
TORSDOF 5
ENDMDL
MODEL 3
REMARK VINA RESULT:      -7.2      4.457      6.256
REMARK  5 active torsions:
REMARK  status: ('A' for Active; 'I' for Inactive)
REMARK    1  A    between atoms: C2_2  and  C3_4 
REMARK    2  A    between atoms: C4_5  and  C5_6 
REMARK    3  A    between atoms: C5_6  and  N1_7 
REMARK    4  A    between atoms: C9_11  and  O1_12 
REMARK    5  A    between atoms: C11_14  and  O2_15 
ROOT
HETATM    1  N1  UNL     1      23.280   3.898  52.373  1.00  0.00    -0.371 N 
HETATM    2  C6  UNL     1      24.410   3.343  53.034  1.00  0.00     0.101 C 
HETATM    3  C7  UNL     1      24.822   2.090  53.118  1.00  0.00     0.012 A 
HETATM    4  C8  UNL     1      25.978   2.018  53.868  1.00  0.00     0.054 A 
HETATM    5  C9  UNL     1      26.630   0.825  54.115  1.00  0.00     0.102 A 
HETATM    6  C11 UNL     1      26.078  -0.335  53.575  1.00  0.00     0.103 A 
HETATM    7  C13 UNL     1      24.922  -0.233  52.830  1.00  0.00     0.074 A 
HETATM    8  C14 UNL     1      24.260   0.951  52.574  1.00  0.00     0.091 A 
HETATM    9  N2  UNL     1      23.208   0.880  51.871  1.00  0.00    -0.177 NA
HETATM   10  N3  UNL     1      22.340   1.888  51.454  1.00  0.00    -0.295 N 
HETATM   11  C15 UNL     1      22.042   3.164  52.070  1.00  0.00     0.265 C 
HETATM   12  H16 UNL     1      21.832   1.665  50.547  1.00  0.00     0.184 HD
ENDROOT
BRANCH   1  13
HETATM   13  C5  UNL     1      23.339   5.291  51.962  1.00  0.00     0.130 C 
BRANCH  13  14
HETATM   14  C4  UNL     1      23.726   5.493  50.570  1.00  0.00     0.020 C 
HETATM   15  C3  UNL     1      24.926   5.071  50.291  1.00  0.00     0.045 C 
BRANCH  15  16
HETATM   16  C2  UNL     1      26.093   4.787  49.527  1.00  0.00     0.007 C 
HETATM   17  C1  UNL     1      26.165   3.467  49.593  1.00  0.00     0.032 C 
HETATM   18 CL1  UNL     1      27.497   5.042  48.556  1.00  0.00    -0.089 Cl
ENDBRANCH  15  16
ENDBRANCH  13  14
ENDBRANCH   1  13
BRANCH   5  19
HETATM   19  O1  UNL     1      27.793   0.694  54.862  1.00  0.00    -0.353 OA
HETATM   20  C10 UNL     1      29.048   1.132  54.445  1.00  0.00     0.210 C 
ENDBRANCH   5  19
BRANCH   6  21
HETATM   21  O2  UNL     1      26.700  -1.546  53.800  1.00  0.00    -0.353 OA
HETATM   22  C12 UNL     1      27.218  -2.265  52.693  1.00  0.00     0.210 C 
ENDBRANCH   6  21
TORSDOF 5
ENDMDL
MODEL 4
REMARK VINA RESULT:      -6.9      3.997      6.943
REMARK  5 active torsions:
REMARK  status: ('A' for Active; 'I' for Inactive)
REMARK    1  A    between atoms: C2_2  and  C3_4 
REMARK    2  A    between atoms: C4_5  and  C5_6 
REMARK    3  A    between atoms: C5_6  and  N1_7 
REMARK    4  A    between atoms: C9_11  and  O1_12 
REMARK    5  A    between atoms: C11_14  and  O2_15 
ROOT
HETATM    1  N1  UNL     1      24.923  -0.056  54.069  1.00  0.00    -0.371 N 
HETATM    2  C6  UNL     1      23.757   0.191  53.294  1.00  0.00     0.101 C 
HETATM    3  C7  UNL     1      22.510  -0.211  53.473  1.00  0.00     0.012 A 
HETATM    4  C8  UNL     1      21.705   0.275  52.463  1.00  0.00     0.054 A 
HETATM    5  C9  UNL     1      20.350   0.010  52.402  1.00  0.00     0.102 A 
HETATM    6  C11 UNL     1      19.801  -0.780  53.411  1.00  0.00     0.103 A 
HETATM    7  C13 UNL     1      20.631  -1.251  54.407  1.00  0.00     0.074 A 
HETATM    8  C14 UNL     1      21.984  -0.995  54.481  1.00  0.00     0.091 A 
HETATM    9  N2  UNL     1      22.611  -1.500  55.460  1.00  0.00    -0.177 NA
HETATM   10  N3  UNL     1      23.962  -1.420  55.797  1.00  0.00    -0.295 N 
HETATM   11  C15 UNL     1      25.116  -1.222  54.945  1.00  0.00     0.265 C 
HETATM   12  H16 UNL     1      24.149  -1.521  56.839  1.00  0.00     0.184 HD
ENDROOT
BRANCH   1  13
HETATM   13  C5  UNL     1      26.013   0.904  53.998  1.00  0.00     0.130 C 
BRANCH  13  14
HETATM   14  C4  UNL     1      25.642   2.194  53.426  1.00  0.00     0.020 C 
HETATM   15  C3  UNL     1      25.948   2.318  52.167  1.00  0.00     0.045 C 
BRANCH  15  16
HETATM   16  C2  UNL     1      26.066   2.912  50.878  1.00  0.00     0.007 C 
HETATM   17  C1  UNL     1      24.809   2.954  50.465  1.00  0.00     0.032 C 
HETATM   18 CL1  UNL     1      26.788   3.623  49.480  1.00  0.00    -0.089 Cl
ENDBRANCH  15  16
ENDBRANCH  13  14
ENDBRANCH   1  13
BRANCH   5  19
HETATM   19  O1  UNL     1      19.493   0.470  51.411  1.00  0.00    -0.353 OA
HETATM   20  C10 UNL     1      19.914   1.006  50.196  1.00  0.00     0.210 C 
ENDBRANCH   5  19
BRANCH   6  21
HETATM   21  O2  UNL     1      18.452  -1.067  53.384  1.00  0.00    -0.353 OA
HETATM   22  C12 UNL     1      18.028  -2.389  53.671  1.00  0.00     0.210 C 
ENDBRANCH   6  21
TORSDOF 5
ENDMDL
MODEL 5
REMARK VINA RESULT:      -6.9      2.730      3.489
REMARK  5 active torsions:
REMARK  status: ('A' for Active; 'I' for Inactive)
REMARK    1  A    between atoms: C2_2  and  C3_4 
REMARK    2  A    between atoms: C4_5  and  C5_6 
REMARK    3  A    between atoms: C5_6  and  N1_7 
REMARK    4  A    between atoms: C9_11  and  O1_12 
REMARK    5  A    between atoms: C11_14  and  O2_15 
ROOT
HETATM    1  N1  UNL     1      21.953   2.194  51.620  1.00  0.00    -0.371 N 
HETATM    2  C6  UNL     1      22.896   1.209  52.021  1.00  0.00     0.101 C 
HETATM    3  C7  UNL     1      24.030   1.333  52.690  1.00  0.00     0.012 A 
HETATM    4  C8  UNL     1      24.623   0.098  52.855  1.00  0.00     0.054 A 
HETATM    5  C9  UNL     1      25.822  -0.067  53.522  1.00  0.00     0.102 A 
HETATM    6  C11 UNL     1      26.435   1.073  54.038  1.00  0.00     0.103 A 
HETATM    7  C13 UNL     1      25.819   2.294  53.858  1.00  0.00     0.074 A 
HETATM    8  C14 UNL     1      24.623   2.475  53.194  1.00  0.00     0.091 A 
HETATM    9  N2  UNL     1      24.186   3.661  53.112  1.00  0.00    -0.177 NA
HETATM   10  N3  UNL     1      23.025   4.149  52.512  1.00  0.00    -0.295 N 
HETATM   11  C15 UNL     1      22.265   3.614  51.401  1.00  0.00     0.265 C 
HETATM   12  H16 UNL     1      22.663   5.048  52.950  1.00  0.00     0.184 HD
ENDROOT
BRANCH   1  13
HETATM   13  C5  UNL     1      20.575   1.780  51.405  1.00  0.00     0.130 C 
BRANCH  13  14
HETATM   14  C4  UNL     1      20.370   0.336  51.427  1.00  0.00     0.020 C 
HETATM   15  C3  UNL     1      19.287  -0.032  52.048  1.00  0.00     0.045 C 
BRANCH  15  16
HETATM   16  C2  UNL     1      18.286  -0.892  52.585  1.00  0.00     0.007 C 
HETATM   17  C1  UNL     1      17.165  -0.284  52.230  1.00  0.00     0.032 C 
HETATM   18 CL1  UNL     1      17.569  -2.229  53.408  1.00  0.00    -0.089 Cl
ENDBRANCH  15  16
ENDBRANCH  13  14
ENDBRANCH   1  13
BRANCH   5  19
HETATM   19  O1  UNL     1      26.462  -1.284  53.716  1.00  0.00    -0.353 OA
HETATM   20  C10 UNL     1      27.081  -2.016  52.706  1.00  0.00     0.210 C 
ENDBRANCH   5  19
BRANCH   6  21
HETATM   21  O2  UNL     1      27.633   0.949  54.710  1.00  0.00    -0.353 OA
HETATM   22  C12 UNL     1      28.831   1.316  54.047  1.00  0.00     0.210 C 
ENDBRANCH   6  21
TORSDOF 5
ENDMDL
MODEL 6
REMARK VINA RESULT:      -6.8      3.765      4.834
REMARK  5 active torsions:
REMARK  status: ('A' for Active; 'I' for Inactive)
REMARK    1  A    between atoms: C2_2  and  C3_4 
REMARK    2  A    between atoms: C4_5  and  C5_6 
REMARK    3  A    between atoms: C5_6  and  N1_7 
REMARK    4  A    between atoms: C9_11  and  O1_12 
REMARK    5  A    between atoms: C11_14  and  O2_15 
ROOT
HETATM    1  N1  UNL     1      24.225   3.528  51.230  1.00  0.00    -0.371 N 
HETATM    2  C6  UNL     1      24.302   2.431  52.131  1.00  0.00     0.101 C 
HETATM    3  C7  UNL     1      25.346   1.725  52.532  1.00  0.00     0.012 A 
HETATM    4  C8  UNL     1      24.946   0.748  53.421  1.00  0.00     0.054 A 
HETATM    5  C9  UNL     1      25.835  -0.137  54.001  1.00  0.00     0.102 A 
HETATM    6  C11 UNL     1      27.180  -0.016  53.658  1.00  0.00     0.103 A 
HETATM    7  C13 UNL     1      27.550   0.969  52.768  1.00  0.00     0.074 A 
HETATM    8  C14 UNL     1      26.675   1.860  52.181  1.00  0.00     0.091 A 
HETATM    9  N2  UNL     1      27.170   2.709  51.381  1.00  0.00    -0.177 NA
HETATM   10  N3  UNL     1      26.548   3.719  50.648  1.00  0.00    -0.295 N 
HETATM   11  C15 UNL     1      25.189   3.797  50.152  1.00  0.00     0.265 C 
HETATM   12  H16 UNL     1      27.184   4.543  50.432  1.00  0.00     0.184 HD
ENDROOT
BRANCH   1  13
HETATM   13  C5  UNL     1      23.117   4.459  51.372  1.00  0.00     0.130 C 
BRANCH  13  14
HETATM   14  C4  UNL     1      22.012   3.960  52.182  1.00  0.00     0.020 C 
HETATM   15  C3  UNL     1      20.866   3.954  51.564  1.00  0.00     0.045 C 
BRANCH  15  16
HETATM   16  C2  UNL     1      19.473   3.759  51.344  1.00  0.00     0.007 C 
HETATM   17  C1  UNL     1      19.450   3.159  50.164  1.00  0.00     0.032 C 
HETATM   18 CL1  UNL     1      17.768   3.795  51.612  1.00  0.00    -0.089 Cl
ENDBRANCH  15  16
ENDBRANCH  13  14
ENDBRANCH   1  13
BRANCH   5  19
HETATM   19  O1  UNL     1      25.488  -1.138  54.899  1.00  0.00    -0.353 OA
HETATM   20  C10 UNL     1      24.238  -1.255  55.501  1.00  0.00     0.210 C 
ENDBRANCH   5  19
BRANCH   6  21
HETATM   21  O2  UNL     1      28.098  -0.881  54.217  1.00  0.00    -0.353 OA
HETATM   22  C12 UNL     1      29.450  -0.811  53.793  1.00  0.00     0.210 C 
ENDBRANCH   6  21
TORSDOF 5
ENDMDL
MODEL 7
REMARK VINA RESULT:      -6.7      1.861      2.299
REMARK  5 active torsions:
REMARK  status: ('A' for Active; 'I' for Inactive)
REMARK    1  A    between atoms: C2_2  and  C3_4 
REMARK    2  A    between atoms: C4_5  and  C5_6 
REMARK    3  A    between atoms: C5_6  and  N1_7 
REMARK    4  A    between atoms: C9_11  and  O1_12 
REMARK    5  A    between atoms: C11_14  and  O2_15 
ROOT
HETATM    1  N1  UNL     1      21.146   0.825  53.386  1.00  0.00    -0.371 N 
HETATM    2  C6  UNL     1      22.371   1.199  52.772  1.00  0.00     0.101 C 
HETATM    3  C7  UNL     1      23.591   0.712  52.930  1.00  0.00     0.012 A 
HETATM    4  C8  UNL     1      24.481   1.389  52.121  1.00  0.00     0.054 A 
HETATM    5  C9  UNL     1      25.829   1.084  52.084  1.00  0.00     0.102 A 
HETATM    6  C11 UNL     1      26.279   0.051  52.903  1.00  0.00     0.103 A 
HETATM    7  C13 UNL     1      25.367  -0.607  53.699  1.00  0.00     0.074 A 
HETATM    8  C14 UNL     1      24.019  -0.315  53.748  1.00  0.00     0.091 A 
HETATM    9  N2  UNL     1      23.308  -1.012  54.533  1.00  0.00    -0.177 NA
HETATM   10  N3  UNL     1      21.940  -0.951  54.795  1.00  0.00    -0.295 N 
HETATM   11  C15 UNL     1      21.030   0.171  54.699  1.00  0.00     0.265 C 
HETATM   12  H16 UNL     1      21.525  -1.878  55.111  1.00  0.00     0.184 HD
ENDROOT
BRANCH   1  13
HETATM   13  C5  UNL     1      19.907   1.103  52.676  1.00  0.00     0.130 C 
BRANCH  13  14
HETATM   14  C4  UNL     1      19.649   0.218  51.546  1.00  0.00     0.020 C 
HETATM   15  C3  UNL     1      18.393   0.142  51.213  1.00  0.00     0.045 C 
BRANCH  15  16
HETATM   16  C2  UNL     1      17.225  -0.257  50.502  1.00  0.00     0.007 C 
HETATM   17  C1  UNL     1      16.394  -0.589  51.477  1.00  0.00     0.032 C 
HETATM   18 CL1  UNL     1      16.170  -0.598  49.179  1.00  0.00    -0.089 Cl
ENDBRANCH  15  16
ENDBRANCH  13  14
ENDBRANCH   1  13
BRANCH   5  19
HETATM   19  O1  UNL     1      26.768   1.731  51.291  1.00  0.00    -0.353 OA
HETATM   20  C10 UNL     1      26.531   2.918  50.603  1.00  0.00     0.210 C 
ENDBRANCH   5  19
BRANCH   6  21
HETATM   21  O2  UNL     1      27.618  -0.282  52.893  1.00  0.00    -0.353 OA
HETATM   22  C12 UNL     1      28.357  -0.181  54.099  1.00  0.00     0.210 C 
ENDBRANCH   6  21
TORSDOF 5
ENDMDL
MODEL 8
REMARK VINA RESULT:      -6.7      4.552      6.524
REMARK  5 active torsions:
REMARK  status: ('A' for Active; 'I' for Inactive)
REMARK    1  A    between atoms: C2_2  and  C3_4 
REMARK    2  A    between atoms: C4_5  and  C5_6 
REMARK    3  A    between atoms: C5_6  and  N1_7 
REMARK    4  A    between atoms: C9_11  and  O1_12 
REMARK    5  A    between atoms: C11_14  and  O2_15 
ROOT
HETATM    1  N1  UNL     1      24.313   3.610  51.294  1.00  0.00    -0.371 N 
HETATM    2  C6  UNL     1      24.385   2.529  52.214  1.00  0.00     0.101 C 
HETATM    3  C7  UNL     1      25.419   1.800  52.598  1.00  0.00     0.012 A 
HETATM    4  C8  UNL     1      25.018   0.852  53.517  1.00  0.00     0.054 A 
HETATM    5  C9  UNL     1      25.898  -0.047  54.088  1.00  0.00     0.102 A 
HETATM    6  C11 UNL     1      27.235   0.027  53.704  1.00  0.00     0.103 A 
HETATM    7  C13 UNL     1      27.607   0.984  52.783  1.00  0.00     0.074 A 
HETATM    8  C14 UNL     1      26.740   1.888  52.204  1.00  0.00     0.091 A 
HETATM    9  N2  UNL     1      27.236   2.707  51.374  1.00  0.00    -0.177 NA
HETATM   10  N3  UNL     1      26.621   3.721  50.639  1.00  0.00    -0.295 N 
HETATM   11  C15 UNL     1      25.251   3.829  50.182  1.00  0.00     0.265 C 
HETATM   12  H16 UNL     1      27.274   4.521  50.387  1.00  0.00     0.184 HD
ENDROOT
BRANCH   1  13
HETATM   13  C5  UNL     1      23.237   4.576  51.450  1.00  0.00     0.130 C 
BRANCH  13  14
HETATM   14  C4  UNL     1      23.669   5.969  51.414  1.00  0.00     0.020 C 
HETATM   15  C3  UNL     1      23.038   6.693  50.535  1.00  0.00     0.045 C 
BRANCH  15  16
HETATM   16  C2  UNL     1      22.663   7.838  49.775  1.00  0.00     0.007 C 
HETATM   17  C1  UNL     1      23.559   7.839  48.799  1.00  0.00     0.032 C 
HETATM   18 CL1  UNL     1      21.793   9.246  49.286  1.00  0.00    -0.089 Cl
ENDBRANCH  15  16
ENDBRANCH  13  14
ENDBRANCH   1  13
BRANCH   5  19
HETATM   19  O1  UNL     1      25.549  -1.020  55.016  1.00  0.00    -0.353 OA
HETATM   20  C10 UNL     1      24.252  -1.247  55.467  1.00  0.00     0.210 C 
ENDBRANCH   5  19
BRANCH   6  21
HETATM   21  O2  UNL     1      28.144  -0.854  54.252  1.00  0.00    -0.353 OA
HETATM   22  C12 UNL     1      29.472  -0.865  53.754  1.00  0.00     0.210 C 
ENDBRANCH   6  21
TORSDOF 5
ENDMDL
MODEL 9
REMARK VINA RESULT:      -6.7      4.515      7.528
REMARK  5 active torsions:
REMARK  status: ('A' for Active; 'I' for Inactive)
REMARK    1  A    between atoms: C2_2  and  C3_4 
REMARK    2  A    between atoms: C4_5  and  C5_6 
REMARK    3  A    between atoms: C5_6  and  N1_7 
REMARK    4  A    between atoms: C9_11  and  O1_12 
REMARK    5  A    between atoms: C11_14  and  O2_15 
ROOT
HETATM    1  N1  UNL     1      22.958  -0.711  53.700  1.00  0.00    -0.371 N 
HETATM    2  C6  UNL     1      22.626  -0.172  52.428  1.00  0.00     0.101 C 
HETATM    3  C7  UNL     1      21.452   0.166  51.922  1.00  0.00     0.012 A 
HETATM    4  C8  UNL     1      21.609   0.651  50.639  1.00  0.00     0.054 A 
HETATM    5  C9  UNL     1      20.542   1.081  49.873  1.00  0.00     0.102 A 
HETATM    6  C11 UNL     1      19.271   1.011  50.440  1.00  0.00     0.103 A 
HETATM    7  C13 UNL     1      19.146   0.523  51.723  1.00  0.00     0.074 A 
HETATM    8  C14 UNL     1      20.200   0.090  52.501  1.00  0.00     0.091 A 
HETATM    9  N2  UNL     1      19.922  -0.333  53.663  1.00  0.00    -0.177 NA
HETATM   10  N3  UNL     1      20.760  -0.828  54.661  1.00  0.00    -0.295 N 
HETATM   11  C15 UNL     1      22.042  -1.492  54.546  1.00  0.00     0.265 C 
HETATM   12  H16 UNL     1      20.382  -0.686  55.645  1.00  0.00     0.184 HD
ENDROOT
BRANCH   1  13
HETATM   13  C5  UNL     1      24.299  -0.483  54.215  1.00  0.00     0.130 C 
BRANCH  13  14
HETATM   14  C4  UNL     1      25.349  -0.532  53.204  1.00  0.00     0.020 C 
HETATM   15  C3  UNL     1      26.554  -0.522  53.696  1.00  0.00     0.045 C 
BRANCH  15  16
HETATM   16  C2  UNL     1      27.978  -0.533  53.732  1.00  0.00     0.007 C 
HETATM   17  C1  UNL     1      28.244   0.218  54.790  1.00  0.00     0.032 C 
HETATM   18 CL1  UNL     1      29.608  -0.889  53.292  1.00  0.00    -0.089 Cl
ENDBRANCH  15  16
ENDBRANCH  13  14
ENDBRANCH   1  13
BRANCH   5  19
HETATM   19  O1  UNL     1      20.641   1.577  48.579  1.00  0.00    -0.353 OA
HETATM   20  C10 UNL     1      21.388   2.697  48.222  1.00  0.00     0.210 C 
ENDBRANCH   5  19
BRANCH   6  21
HETATM   21  O2  UNL     1      18.181   1.432  49.706  1.00  0.00    -0.353 OA
HETATM   22  C12 UNL     1      16.883   1.040  50.124  1.00  0.00     0.210 C 
ENDBRANCH   6  21
TORSDOF 5
ENDMDL
