MODEL 1
REMARK VINA RESULT:      -9.3      0.000      0.000
REMARK  1 active torsions:
REMARK  status: ('A' for Active; 'I' for Inactive)
REMARK    1  A    between atoms: C3_3  and  C4_4 
ROOT
HETATM    1  C1  UNL     1      22.286  -1.554  54.416  1.00  0.00     0.050 C 
HETATM    2  C2  UNL     1      23.103  -0.573  53.634  1.00  0.00    -0.028 C 
HETATM    3  C3  UNL     1      22.445   0.524  53.213  1.00  0.00     0.096 C 
HETATM    4  O1  UNL     1      22.975   1.590  52.457  1.00  0.00    -0.346 OA
HETATM    5  C8  UNL     1      22.775   1.618  51.052  1.00  0.00     0.222 C 
HETATM    6  C9  UNL     1      23.262   2.916  50.567  1.00  0.00     0.018 A 
HETATM    7 CL1  UNL     1      22.464   4.308  51.260  1.00  0.00    -0.176 Cl
HETATM    8  C10 UNL     1      23.952   3.807  49.908  1.00  0.00     0.145 A 
HETATM    9  C11 UNL     1      24.540   5.024  49.334  1.00  0.00     0.241 C 
HETATM   10  C12 UNL     1      23.639   5.594  48.233  1.00  0.00     0.044 C 
HETATM   11  N1  UNL     1      25.832   4.809  48.755  1.00  0.00     0.108 N 
HETATM   12  C13 UNL     1      26.804   4.384  49.729  1.00  0.00     0.419 C 
HETATM   13  N2  UNL     1      26.438   3.148  50.352  1.00  0.00    -0.253 NA
HETATM   14  C14 UNL     1      26.777   2.721  51.497  1.00  0.00     0.229 C 
HETATM   15  N3  UNL     1      26.052   1.468  51.426  1.00  0.00    -0.246 NA
HETATM   16  C15 UNL     1      26.127   0.691  52.462  1.00  0.00     0.042 C 
HETATM   17  C16 UNL     1      26.942   1.132  53.644  1.00  0.00     0.060 C 
HETATM   18  C17 UNL     1      27.922  -0.042  53.789  1.00  0.00     0.011 C 
HETATM   19  C18 UNL     1      27.155  -1.134  53.054  1.00  0.00     0.041 C 
HETATM   20  C19 UNL     1      25.739  -0.578  53.082  1.00  0.00    -0.033 C 
HETATM   21  C20 UNL     1      24.522  -0.881  53.486  1.00  0.00     0.018 C 
HETATM   22  H15 UNL     1      25.797   4.078  48.001  1.00  0.00     0.318 HD
ENDROOT
BRANCH   3  23
HETATM   23  C4  UNL     1      21.009   0.621  53.581  1.00  0.00     0.173 A 
HETATM   24  F1  UNL     1      20.812   0.608  54.971  1.00  0.00    -0.231 F 
HETATM   25  C5  UNL     1      20.382   1.824  52.998  1.00  0.00     0.019 A 
HETATM   26  C6  UNL     1      19.507   1.139  52.343  1.00  0.00    -0.023 A 
HETATM   27  C7  UNL     1      20.013  -0.139  52.834  1.00  0.00     0.082 A 
ENDBRANCH   3  23
TORSDOF 1
ENDMDL
MODEL 2
REMARK VINA RESULT:      -9.3      2.258      4.813
REMARK  1 active torsions:
REMARK  status: ('A' for Active; 'I' for Inactive)
REMARK    1  A    between atoms: C3_3  and  C4_4 
ROOT
HETATM    1  C1  UNL     1      24.308  -1.213  54.849  1.00  0.00     0.050 C 
HETATM    2  C2  UNL     1      23.979  -0.205  53.792  1.00  0.00    -0.028 C 
HETATM    3  C3  UNL     1      25.034   0.302  53.126  1.00  0.00     0.096 C 
HETATM    4  O1  UNL     1      25.001   1.265  52.097  1.00  0.00    -0.346 OA
HETATM    5  C8  UNL     1      25.256   2.627  52.405  1.00  0.00     0.222 C 
HETATM    6  C9  UNL     1      25.341   3.354  51.132  1.00  0.00     0.018 A 
HETATM    7 CL1  UNL     1      26.594   2.797  50.048  1.00  0.00    -0.176 Cl
HETATM    8  C10 UNL     1      25.089   4.213  50.182  1.00  0.00     0.145 A 
HETATM    9  C11 UNL     1      25.054   5.027  48.960  1.00  0.00     0.241 C 
HETATM   10  C12 UNL     1      26.153   6.095  48.989  1.00  0.00     0.044 C 
HETATM   11  N1  UNL     1      23.808   5.707  48.769  1.00  0.00     0.108 N 
HETATM   12  C13 UNL     1      22.706   4.794  48.605  1.00  0.00     0.419 C 
HETATM   13  N2  UNL     1      22.528   3.953  49.750  1.00  0.00    -0.253 NA
HETATM   14  C14 UNL     1      21.999   2.801  49.798  1.00  0.00     0.229 C 
HETATM   15  N3  UNL     1      22.173   2.601  51.222  1.00  0.00    -0.246 NA
HETATM   16  C15 UNL     1      21.753   1.474  51.708  1.00  0.00     0.042 C 
HETATM   17  C16 UNL     1      21.129   0.470  50.781  1.00  0.00     0.060 C 
HETATM   18  C17 UNL     1      19.759   0.258  51.445  1.00  0.00     0.011 C 
HETATM   19  C18 UNL     1      20.064   0.729  52.862  1.00  0.00     0.041 C 
HETATM   20  C19 UNL     1      21.582   0.629  52.893  1.00  0.00    -0.033 C 
HETATM   21  C20 UNL     1      22.561   0.050  53.557  1.00  0.00     0.018 C 
HETATM   22  H15 UNL     1      23.584   6.332  49.583  1.00  0.00     0.318 HD
ENDROOT
BRANCH   3  23
HETATM   23  C4  UNL     1      26.375  -0.205  53.518  1.00  0.00     0.173 A 
HETATM   24  F1  UNL     1      26.500  -1.589  53.324  1.00  0.00    -0.231 F 
HETATM   25  C5  UNL     1      27.452   0.502  52.796  1.00  0.00     0.019 A 
HETATM   26  C6  UNL     1      28.002   0.925  53.883  1.00  0.00    -0.023 A 
HETATM   27  C7  UNL     1      27.009   0.283  54.738  1.00  0.00     0.082 A 
ENDBRANCH   3  23
TORSDOF 1
ENDMDL
MODEL 3
REMARK VINA RESULT:      -8.9      2.397      5.321
REMARK  1 active torsions:
REMARK  status: ('A' for Active; 'I' for Inactive)
REMARK    1  A    between atoms: C3_3  and  C4_4 
ROOT
HETATM    1  C1  UNL     1      21.422   3.564  48.329  1.00  0.00     0.050 C 
HETATM    2  C2  UNL     1      22.528   3.188  49.266  1.00  0.00    -0.028 C 
HETATM    3  C3  UNL     1      22.324   2.065  49.981  1.00  0.00     0.096 C 
HETATM    4  O1  UNL     1      23.197   1.498  50.932  1.00  0.00    -0.346 OA
HETATM    5  C8  UNL     1      22.981   1.745  52.314  1.00  0.00     0.222 C 
HETATM    6  C9  UNL     1      23.911   0.888  53.061  1.00  0.00     0.018 A 
HETATM    7 CL1  UNL     1      23.724  -0.827  52.777  1.00  0.00    -0.176 Cl
HETATM    8  C10 UNL     1      24.868   0.513  53.865  1.00  0.00     0.145 A 
HETATM    9  C11 UNL     1      25.858  -0.211  54.673  1.00  0.00     0.241 C 
HETATM   10  C12 UNL     1      25.209  -0.787  55.936  1.00  0.00     0.044 C 
HETATM   11  N1  UNL     1      26.953   0.609  55.095  1.00  0.00     0.108 N 
HETATM   12  C13 UNL     1      27.719   1.114  53.985  1.00  0.00     0.419 C 
HETATM   13  N2  UNL     1      26.929   1.927  53.110  1.00  0.00    -0.253 NA
HETATM   14  C14 UNL     1      27.113   2.152  51.876  1.00  0.00     0.229 C 
HETATM   15  N3  UNL     1      25.965   3.017  51.694  1.00  0.00    -0.246 NA
HETATM   16  C15 UNL     1      25.769   3.483  50.500  1.00  0.00     0.042 C 
HETATM   17  C16 UNL     1      26.725   3.104  49.405  1.00  0.00     0.060 C 
HETATM   18  C17 UNL     1      27.189   4.485  48.918  1.00  0.00     0.011 C 
HETATM   19  C18 UNL     1      26.042   5.354  49.420  1.00  0.00     0.041 C 
HETATM   20  C19 UNL     1      24.945   4.318  49.622  1.00  0.00    -0.033 C 
HETATM   21  C20 UNL     1      23.718   4.033  49.240  1.00  0.00     0.018 C 
HETATM   22  H15 UNL     1      26.620   1.435  55.653  1.00  0.00     0.318 HD
ENDROOT
BRANCH   3  23
HETATM   23  C4  UNL     1      21.044   1.348  49.744  1.00  0.00     0.173 A 
HETATM   24  F1  UNL     1      21.008   0.721  48.489  1.00  0.00    -0.231 F 
HETATM   25  C5  UNL     1      20.776   0.357  50.807  1.00  0.00     0.019 A 
HETATM   26  C6  UNL     1      19.661   0.913  51.142  1.00  0.00    -0.023 A 
HETATM   27  C7  UNL     1      19.781   1.963  50.137  1.00  0.00     0.082 A 
ENDBRANCH   3  23
TORSDOF 1
ENDMDL
MODEL 4
REMARK VINA RESULT:      -8.4      2.890      5.733
REMARK  1 active torsions:
REMARK  status: ('A' for Active; 'I' for Inactive)
REMARK    1  A    between atoms: C3_3  and  C4_4 
ROOT
HETATM    1  C1  UNL     1      25.470   4.518  49.340  1.00  0.00     0.050 C 
HETATM    2  C2  UNL     1      24.936   3.456  50.249  1.00  0.00    -0.028 C 
HETATM    3  C3  UNL     1      23.715   2.983  49.934  1.00  0.00     0.096 C 
HETATM    4  O1  UNL     1      22.987   1.993  50.625  1.00  0.00    -0.346 OA
HETATM    5  C8  UNL     1      21.980   2.382  51.547  1.00  0.00     0.222 C 
HETATM    6  C9  UNL     1      21.274   1.163  51.963  1.00  0.00     0.018 A 
HETATM    7 CL1  UNL     1      20.510   0.275  50.664  1.00  0.00    -0.176 Cl
HETATM    8  C10 UNL     1      20.790   0.213  52.716  1.00  0.00     0.145 A 
HETATM    9  C11 UNL     1      20.129  -0.972  53.278  1.00  0.00     0.241 C 
HETATM   10  C12 UNL     1      18.623  -0.733  53.423  1.00  0.00     0.044 C 
HETATM   11  N1  UNL     1      20.627  -1.337  54.570  1.00  0.00     0.108 N 
HETATM   12  C13 UNL     1      22.019  -1.705  54.536  1.00  0.00     0.419 C 
HETATM   13  N2  UNL     1      22.849  -0.630  54.081  1.00  0.00    -0.253 NA
HETATM   14  C14 UNL     1      23.984  -0.705  53.520  1.00  0.00     0.229 C 
HETATM   15  N3  UNL     1      24.183   0.722  53.363  1.00  0.00    -0.246 NA
HETATM   16  C15 UNL     1      25.282   1.098  52.786  1.00  0.00     0.042 C 
HETATM   17  C16 UNL     1      26.256   0.052  52.326  1.00  0.00     0.060 C 
HETATM   18  C17 UNL     1      27.531   0.480  53.068  1.00  0.00     0.011 C 
HETATM   19  C18 UNL     1      27.207   1.942  53.350  1.00  0.00     0.041 C 
HETATM   20  C19 UNL     1      26.115   2.212  52.327  1.00  0.00    -0.033 C 
HETATM   21  C20 UNL     1      25.826   3.006  51.316  1.00  0.00     0.018 C 
HETATM   22  H15 UNL     1      20.522  -0.550  55.257  1.00  0.00     0.318 HD
ENDROOT
BRANCH   3  23
HETATM   23  C4  UNL     1      23.066   3.568  48.732  1.00  0.00     0.173 A 
HETATM   24  F1  UNL     1      23.838   4.584  48.148  1.00  0.00    -0.231 F 
HETATM   25  C5  UNL     1      22.758   2.531  47.726  1.00  0.00     0.019 A 
HETATM   26  C6  UNL     1      21.494   2.786  47.743  1.00  0.00    -0.023 A 
HETATM   27  C7  UNL     1      21.633   3.843  48.740  1.00  0.00     0.082 A 
ENDBRANCH   3  23
TORSDOF 1
ENDMDL
MODEL 5
REMARK VINA RESULT:      -8.3      2.440      4.996
REMARK  1 active torsions:
REMARK  status: ('A' for Active; 'I' for Inactive)
REMARK    1  A    between atoms: C3_3  and  C4_4 
ROOT
HETATM    1  C1  UNL     1      27.327   1.493  52.352  1.00  0.00     0.050 C 
HETATM    2  C2  UNL     1      26.249   2.217  51.607  1.00  0.00    -0.028 C 
HETATM    3  C3  UNL     1      24.994   1.988  52.036  1.00  0.00     0.096 C 
HETATM    4  O1  UNL     1      23.806   2.534  51.508  1.00  0.00    -0.346 OA
HETATM    5  C8  UNL     1      23.032   1.772  50.593  1.00  0.00     0.222 C 
HETATM    6  C9  UNL     1      21.780   2.504  50.365  1.00  0.00     0.018 A 
HETATM    7 CL1  UNL     1      20.816   2.779  51.798  1.00  0.00    -0.176 Cl
HETATM    8  C10 UNL     1      20.817   3.144  49.758  1.00  0.00     0.145 A 
HETATM    9  C11 UNL     1      19.605   3.881  49.379  1.00  0.00     0.241 C 
HETATM   10  C12 UNL     1      18.405   2.934  49.277  1.00  0.00     0.044 C 
HETATM   11  N1  UNL     1      19.723   4.552  48.120  1.00  0.00     0.108 N 
HETATM   12  C13 UNL     1      20.749   5.563  48.131  1.00  0.00     0.419 C 
HETATM   13  N2  UNL     1      22.042   5.013  48.411  1.00  0.00    -0.253 NA
HETATM   14  C14 UNL     1      23.044   5.599  48.923  1.00  0.00     0.229 C 
HETATM   15  N3  UNL     1      23.934   4.455  48.892  1.00  0.00    -0.246 NA
HETATM   16  C15 UNL     1      25.128   4.633  49.366  1.00  0.00     0.042 C 
HETATM   17  C16 UNL     1      25.503   5.984  49.905  1.00  0.00     0.060 C 
HETATM   18  C17 UNL     1      26.741   6.314  49.056  1.00  0.00     0.011 C 
HETATM   19  C18 UNL     1      27.150   4.915  48.611  1.00  0.00     0.041 C 
HETATM   20  C19 UNL     1      26.444   4.051  49.645  1.00  0.00    -0.033 C 
HETATM   21  C20 UNL     1      26.687   3.139  50.563  1.00  0.00     0.018 C 
HETATM   22  H15 UNL     1      19.949   3.879  47.346  1.00  0.00     0.318 HD
ENDROOT
BRANCH   3  23
HETATM   23  C4  UNL     1      24.843   1.059  53.186  1.00  0.00     0.173 A 
HETATM   24  F1  UNL     1      25.483   1.531  54.342  1.00  0.00    -0.231 F 
HETATM   25  C5  UNL     1      23.421   0.786  53.477  1.00  0.00     0.019 A 
HETATM   26  C6  UNL     1      23.551  -0.484  53.294  1.00  0.00    -0.023 A 
HETATM   27  C7  UNL     1      24.973  -0.380  52.982  1.00  0.00     0.082 A 
ENDBRANCH   3  23
TORSDOF 1
ENDMDL
MODEL 6
REMARK VINA RESULT:      -8.1      3.173      6.679
REMARK  1 active torsions:
REMARK  status: ('A' for Active; 'I' for Inactive)
REMARK    1  A    between atoms: C3_3  and  C4_4 
ROOT
HETATM    1  C1  UNL     1      26.417   2.601  51.186  1.00  0.00     0.050 C 
HETATM    2  C2  UNL     1      24.933   2.406  51.213  1.00  0.00    -0.028 C 
HETATM    3  C3  UNL     1      24.470   1.623  52.205  1.00  0.00     0.096 C 
HETATM    4  O1  UNL     1      23.126   1.275  52.451  1.00  0.00    -0.346 OA
HETATM    5  C8  UNL     1      22.633   0.024  51.994  1.00  0.00     0.222 C 
HETATM    6  C9  UNL     1      21.283  -0.142  52.549  1.00  0.00     0.018 A 
HETATM    7 CL1  UNL     1      21.198  -0.128  54.295  1.00  0.00    -0.176 Cl
HETATM    8  C10 UNL     1      19.991  -0.309  52.622  1.00  0.00     0.145 A 
HETATM    9  C11 UNL     1      18.590  -0.484  53.029  1.00  0.00     0.241 C 
HETATM   10  C12 UNL     1      18.328  -1.932  53.458  1.00  0.00     0.044 C 
HETATM   11  N1  UNL     1      17.657  -0.174  51.988  1.00  0.00     0.108 N 
HETATM   12  C13 UNL     1      17.726   1.206  51.582  1.00  0.00     0.419 C 
HETATM   13  N2  UNL     1      19.018   1.552  51.072  1.00  0.00    -0.253 NA
HETATM   14  C14 UNL     1      19.567   2.696  51.048  1.00  0.00     0.229 C 
HETATM   15  N3  UNL     1      20.800   2.272  50.416  1.00  0.00    -0.246 NA
HETATM   16  C15 UNL     1      21.694   3.189  50.209  1.00  0.00     0.042 C 
HETATM   17  C16 UNL     1      21.399   4.600  50.631  1.00  0.00     0.060 C 
HETATM   18  C17 UNL     1      21.588   5.356  49.306  1.00  0.00     0.011 C 
HETATM   19  C18 UNL     1      22.461   4.365  48.546  1.00  0.00     0.041 C 
HETATM   20  C19 UNL     1      23.020   3.522  49.682  1.00  0.00    -0.033 C 
HETATM   21  C20 UNL     1      24.163   3.143  50.216  1.00  0.00     0.018 C 
HETATM   22  H15 UNL     1      17.823  -0.765  51.136  1.00  0.00     0.318 HD
ENDROOT
BRANCH   3  23
HETATM   23  C4  UNL     1      25.482   1.064  53.140  1.00  0.00     0.173 A 
HETATM   24  F1  UNL     1      25.981   2.031  54.026  1.00  0.00    -0.231 F 
HETATM   25  C5  UNL     1      24.941  -0.081  53.900  1.00  0.00     0.019 A 
HETATM   26  C6  UNL     1      25.840  -0.893  53.457  1.00  0.00    -0.023 A 
HETATM   27  C7  UNL     1      26.491   0.133  52.648  1.00  0.00     0.082 A 
ENDBRANCH   3  23
TORSDOF 1
ENDMDL
MODEL 7
REMARK VINA RESULT:      -8.0      2.652      5.241
REMARK  1 active torsions:
REMARK  status: ('A' for Active; 'I' for Inactive)
REMARK    1  A    between atoms: C3_3  and  C4_4 
ROOT
HETATM    1  C1  UNL     1      23.634  -0.100  53.171  1.00  0.00     0.050 C 
HETATM    2  C2  UNL     1      23.468   0.997  52.166  1.00  0.00    -0.028 C 
HETATM    3  C3  UNL     1      24.607   1.594  51.767  1.00  0.00     0.096 C 
HETATM    4  O1  UNL     1      24.729   2.651  50.842  1.00  0.00    -0.346 OA
HETATM    5  C8  UNL     1      24.859   3.983  51.316  1.00  0.00     0.222 C 
HETATM    6  C9  UNL     1      25.154   4.833  50.155  1.00  0.00     0.018 A 
HETATM    7 CL1  UNL     1      26.615   4.417  49.290  1.00  0.00    -0.176 Cl
HETATM    8  C10 UNL     1      25.050   5.773  49.256  1.00  0.00     0.145 A 
HETATM    9  C11 UNL     1      25.213   6.701  48.129  1.00  0.00     0.241 C 
HETATM   10  C12 UNL     1      26.237   7.790  48.468  1.00  0.00     0.044 C 
HETATM   11  N1  UNL     1      23.998   7.363  47.760  1.00  0.00     0.108 N 
HETATM   12  C13 UNL     1      22.990   6.441  47.303  1.00  0.00     0.419 C 
HETATM   13  N2  UNL     1      22.633   5.489  48.311  1.00  0.00    -0.253 NA
HETATM   14  C14 UNL     1      22.158   4.324  48.150  1.00  0.00     0.229 C 
HETATM   15  N3  UNL     1      22.064   3.990  49.557  1.00  0.00    -0.246 NA
HETATM   16  C15 UNL     1      21.610   2.811  49.848  1.00  0.00     0.042 C 
HETATM   17  C16 UNL     1      21.221   1.885  48.730  1.00  0.00     0.060 C 
HETATM   18  C17 UNL     1      19.760   1.574  49.091  1.00  0.00     0.011 C 
HETATM   19  C18 UNL     1      19.766   1.912  50.577  1.00  0.00     0.041 C 
HETATM   20  C19 UNL     1      21.253   1.850  50.895  1.00  0.00    -0.033 C 
HETATM   21  C20 UNL     1      22.111   1.236  51.682  1.00  0.00     0.018 C 
HETATM   22  H15 UNL     1      23.594   7.900  48.568  1.00  0.00     0.318 HD
ENDROOT
BRANCH   3  23
HETATM   23  C4  UNL     1      25.869   1.087  52.366  1.00  0.00     0.173 A 
HETATM   24  F1  UNL     1      26.067  -0.280  52.117  1.00  0.00    -0.231 F 
HETATM   25  C5  UNL     1      27.038   1.857  51.894  1.00  0.00     0.019 A 
HETATM   26  C6  UNL     1      27.371   2.221  53.085  1.00  0.00    -0.023 A 
HETATM   27  C7  UNL     1      26.259   1.509  53.707  1.00  0.00     0.082 A 
ENDBRANCH   3  23
TORSDOF 1
ENDMDL
MODEL 8
REMARK VINA RESULT:      -7.9      2.878      6.398
REMARK  1 active torsions:
REMARK  status: ('A' for Active; 'I' for Inactive)
REMARK    1  A    between atoms: C3_3  and  C4_4 
ROOT
HETATM    1  C1  UNL     1      20.843   4.124  49.025  1.00  0.00     0.050 C 
HETATM    2  C2  UNL     1      21.353   3.181  50.069  1.00  0.00    -0.028 C 
HETATM    3  C3  UNL     1      22.511   3.539  50.657  1.00  0.00     0.096 C 
HETATM    4  O1  UNL     1      23.206   2.830  51.658  1.00  0.00    -0.346 OA
HETATM    5  C8  UNL     1      24.299   2.000  51.296  1.00  0.00     0.222 C 
HETATM    6  C9  UNL     1      24.935   1.548  52.540  1.00  0.00     0.018 A 
HETATM    7 CL1  UNL     1      25.540   2.829  53.565  1.00  0.00    -0.176 Cl
HETATM    8  C10 UNL     1      25.394   0.765  53.478  1.00  0.00     0.145 A 
HETATM    9  C11 UNL     1      25.999   0.167  54.675  1.00  0.00     0.241 C 
HETATM   10  C12 UNL     1      27.525   0.131  54.551  1.00  0.00     0.044 C 
HETATM   11  N1  UNL     1      25.562  -1.175  54.920  1.00  0.00     0.108 N 
HETATM   12  C13 UNL     1      24.146  -1.252  55.174  1.00  0.00     0.419 C 
HETATM   13  N2  UNL     1      23.373  -0.779  54.066  1.00  0.00    -0.253 NA
HETATM   14  C14 UNL     1      22.201  -0.294  54.084  1.00  0.00     0.229 C 
HETATM   15  N3  UNL     1      22.102  -0.056  52.658  1.00  0.00    -0.246 NA
HETATM   16  C15 UNL     1      20.999   0.476  52.230  1.00  0.00     0.042 C 
HETATM   17  C16 UNL     1      19.918   0.805  53.221  1.00  0.00     0.060 C 
HETATM   18  C17 UNL     1      18.732   0.016  52.646  1.00  0.00     0.011 C 
HETATM   19  C18 UNL     1      19.186  -0.148  51.200  1.00  0.00     0.041 C 
HETATM   20  C19 UNL     1      20.225   0.957  51.083  1.00  0.00    -0.033 C 
HETATM   21  C20 UNL     1      20.506   2.034  50.379  1.00  0.00     0.018 C 
HETATM   22  H15 UNL     1      25.772  -1.801  54.103  1.00  0.00     0.318 HD
ENDROOT
BRANCH   3  23
HETATM   23  C4  UNL     1      23.122   4.815  50.202  1.00  0.00     0.173 A 
HETATM   24  F1  UNL     1      22.291   5.921  50.443  1.00  0.00    -0.231 F 
HETATM   25  C5  UNL     1      24.442   5.035  50.826  1.00  0.00     0.019 A 
HETATM   26  C6  UNL     1      25.052   5.082  49.691  1.00  0.00    -0.023 A 
HETATM   27  C7  UNL     1      23.828   4.870  48.926  1.00  0.00     0.082 A 
ENDBRANCH   3  23
TORSDOF 1
ENDMDL
MODEL 9
REMARK VINA RESULT:      -7.8      6.935      9.248
REMARK  1 active torsions:
REMARK  status: ('A' for Active; 'I' for Inactive)
REMARK    1  A    between atoms: C3_3  and  C4_4 
ROOT
HETATM    1  C1  UNL     1      26.703   4.641  48.946  1.00  0.00     0.050 C 
HETATM    2  C2  UNL     1      27.694   5.720  48.639  1.00  0.00    -0.028 C 
HETATM    3  C3  UNL     1      27.269   6.978  48.865  1.00  0.00     0.096 C 
HETATM    4  O1  UNL     1      27.997   8.167  48.654  1.00  0.00    -0.346 OA
HETATM    5  C8  UNL     1      27.790   8.911  47.463  1.00  0.00     0.222 C 
HETATM    6  C9  UNL     1      28.527  10.173  47.603  1.00  0.00     0.018 A 
HETATM    7 CL1  UNL     1      28.039  11.165  48.957  1.00  0.00    -0.176 Cl
HETATM    8  C10 UNL     1      29.376  11.138  47.376  1.00  0.00     0.145 A 
HETATM    9  C11 UNL     1      30.194  12.358  47.388  1.00  0.00     0.241 C 
HETATM   10  C12 UNL     1      29.416  13.538  46.797  1.00  0.00     0.044 C 
HETATM   11  N1  UNL     1      31.408  12.232  46.639  1.00  0.00     0.108 N 
HETATM   12  C13 UNL     1      32.284  11.226  47.179  1.00  0.00     0.419 C 
HETATM   13  N2  UNL     1      31.680   9.928  47.176  1.00  0.00    -0.253 NA
HETATM   14  C14 UNL     1      31.938   8.945  47.936  1.00  0.00     0.229 C 
HETATM   15  N3  UNL     1      30.972   8.033  47.358  1.00  0.00    -0.246 NA
HETATM   16  C15 UNL     1      30.898   6.851  47.885  1.00  0.00     0.042 C 
HETATM   17  C16 UNL     1      31.800   6.510  49.037  1.00  0.00     0.060 C 
HETATM   18  C17 UNL     1      32.521   5.266  48.497  1.00  0.00     0.011 C 
HETATM   19  C18 UNL     1      31.537   4.822  47.421  1.00  0.00     0.041 C 
HETATM   20  C19 UNL     1      30.266   5.529  47.865  1.00  0.00    -0.033 C 
HETATM   21  C20 UNL     1      29.018   5.283  48.208  1.00  0.00     0.018 C 
HETATM   22  H15 UNL     1      31.215  11.981  45.637  1.00  0.00     0.318 HD
ENDROOT
BRANCH   3  23
HETATM   23  C4  UNL     1      25.888   7.129  49.391  1.00  0.00     0.173 A 
HETATM   24  F1  UNL     1      25.627   6.263  50.464  1.00  0.00    -0.231 F 
HETATM   25  C5  UNL     1      25.613   8.524  49.795  1.00  0.00     0.019 A 
HETATM   26  C6  UNL     1      24.627   8.644  48.973  1.00  0.00    -0.023 A 
HETATM   27  C7  UNL     1      24.770   7.283  48.467  1.00  0.00     0.082 A 
ENDBRANCH   3  23
TORSDOF 1
ENDMDL
