MODEL 1
REMARK VINA RESULT:      -6.9      0.000      0.000
REMARK  7 active torsions:
REMARK  status: ('A' for Active; 'I' for Inactive)
REMARK    1  A    between atoms: C2_2  and  C3_3 
REMARK    2  A    between atoms: C3_3  and  C4_4 
REMARK    3  A    between atoms: C5_5  and  C6_6 
REMARK    4  A    between atoms: N1_10  and  C9_11 
REMARK    5  A    between atoms: C11_13  and  N2_14 
REMARK    6  A    between atoms: N2_14  and  C12_15 
REMARK    7  A    between atoms: N3_19  and  C15_20 
ROOT
HETATM    1  C9  UNL     1      22.529  -0.315  53.615  1.00  0.00     0.112 C 
HETATM    2  C10 UNL     1      21.484   0.044  54.685  1.00  0.00     0.052 C 
HETATM    3  C11 UNL     1      20.670  -1.154  54.179  1.00  0.00     0.081 C 
HETATM    4  C19 UNL     1      21.959  -1.730  53.662  1.00  0.00     0.052 C 
ENDROOT
BRANCH   3   5
HETATM    5  N2  UNL     1      19.733  -0.699  53.205  1.00  0.00    -0.411 N 
HETATM    6  H12 UNL     1      20.105  -0.672  52.254  1.00  0.00     0.154 HD
BRANCH   5   7
HETATM    7  C12 UNL     1      18.374  -1.127  53.362  1.00  0.00     0.099 C 
HETATM    8  C13 UNL     1      18.189  -2.596  53.486  1.00  0.00     0.055 C 
HETATM    9  C14 UNL     1      16.714  -2.944  53.410  1.00  0.00     0.203 C 
HETATM   10  O1  UNL     1      16.066  -2.390  52.352  1.00  0.00    -0.282 OA
HETATM   11  N3  UNL     1      16.224  -1.107  52.180  1.00  0.00    -0.288 N 
HETATM   12  C18 UNL     1      17.569  -0.616  52.187  1.00  0.00     0.174 C 
BRANCH  11  13
HETATM   13  C15 UNL     1      15.219  -0.209  52.627  1.00  0.00     0.100 C 
HETATM   14  C16 UNL     1      13.805  -0.628  52.426  1.00  0.00     0.034 C 
HETATM   15  C17 UNL     1      15.463   1.148  52.022  1.00  0.00     0.034 C 
ENDBRANCH  11  13
ENDBRANCH   5   7
ENDBRANCH   3   5
BRANCH   1  16
HETATM   16  N1  UNL     1      23.870  -0.213  54.080  1.00  0.00    -0.288 NA
HETATM   17  C3  UNL     1      24.778   0.461  53.489  1.00  0.00     0.034 C 
BRANCH  17  18
HETATM   18  C2  UNL     1      24.019   0.972  52.361  1.00  0.00     0.065 C 
HETATM   19  C1  UNL     1      23.692   1.843  51.443  1.00  0.00    -0.006 C 
ENDBRANCH  17  18
BRANCH  17  20
HETATM   20  C4  UNL     1      26.109   0.532  54.029  1.00  0.00     0.024 C 
HETATM   21  C5  UNL     1      27.100  -0.339  53.769  1.00  0.00    -0.009 C 
BRANCH  21  22
HETATM   22  C6  UNL     1      28.408  -0.086  54.433  1.00  0.00     0.095 A 
HETATM   23  C7  UNL     1      29.595  -0.020  53.570  1.00  0.00     0.027 A 
HETATM   24  C8  UNL     1      29.137   1.137  54.227  1.00  0.00     0.102 A 
HETATM   25  F1  UNL     1      29.387   2.455  54.403  1.00  0.00    -0.210 F 
ENDBRANCH  21  22
ENDBRANCH  17  20
ENDBRANCH   1  16
TORSDOF 7
ENDMDL
MODEL 2
REMARK VINA RESULT:      -6.8      4.431      9.784
REMARK  7 active torsions:
REMARK  status: ('A' for Active; 'I' for Inactive)
REMARK    1  A    between atoms: C2_2  and  C3_3 
REMARK    2  A    between atoms: C3_3  and  C4_4 
REMARK    3  A    between atoms: C5_5  and  C6_6 
REMARK    4  A    between atoms: N1_10  and  C9_11 
REMARK    5  A    between atoms: C11_13  and  N2_14 
REMARK    6  A    between atoms: N2_14  and  C12_15 
REMARK    7  A    between atoms: N3_19  and  C15_20 
ROOT
HETATM    1  C9  UNL     1      21.242  -0.554  53.669  1.00  0.00     0.112 C 
HETATM    2  C10 UNL     1      22.364  -1.478  53.165  1.00  0.00     0.052 C 
HETATM    3  C11 UNL     1      23.275  -0.804  54.199  1.00  0.00     0.081 C 
HETATM    4  C19 UNL     1      22.033  -0.451  54.970  1.00  0.00     0.052 C 
ENDROOT
BRANCH   3   5
HETATM    5  N2  UNL     1      23.970   0.271  53.572  1.00  0.00    -0.411 N 
HETATM    6  H12 UNL     1      23.691   1.196  53.907  1.00  0.00     0.154 HD
BRANCH   5   7
HETATM    7  C12 UNL     1      25.362   0.072  53.295  1.00  0.00     0.099 C 
HETATM    8  C13 UNL     1      25.707  -1.263  52.741  1.00  0.00     0.055 C 
HETATM    9  C14 UNL     1      27.213  -1.443  52.710  1.00  0.00     0.203 C 
HETATM   10  O1  UNL     1      27.831  -1.152  53.885  1.00  0.00    -0.282 OA
HETATM   11  N3  UNL     1      27.537  -0.004  54.429  1.00  0.00    -0.288 N 
HETATM   12  C18 UNL     1      26.146   0.305  54.568  1.00  0.00     0.174 C 
BRANCH  11  13
HETATM   13  C15 UNL     1      28.419   1.098  54.267  1.00  0.00     0.100 C 
HETATM   14  C16 UNL     1      27.924   2.241  53.452  1.00  0.00     0.034 C 
HETATM   15  C17 UNL     1      29.739   0.601  53.743  1.00  0.00     0.034 C 
ENDBRANCH  11  13
ENDBRANCH   5   7
ENDBRANCH   3   5
BRANCH   1  16
HETATM   16  N1  UNL     1      19.987  -1.212  53.802  1.00  0.00    -0.288 NA
HETATM   17  C3  UNL     1      18.955  -0.922  53.109  1.00  0.00     0.034 C 
BRANCH  17  18
HETATM   18  C2  UNL     1      19.493   0.153  52.293  1.00  0.00     0.065 C 
HETATM   19  C1  UNL     1      19.939   0.705  51.196  1.00  0.00    -0.006 C 
ENDBRANCH  17  18
BRANCH  17  20
HETATM   20  C4  UNL     1      17.724  -1.643  53.288  1.00  0.00     0.024 C 
HETATM   21  C5  UNL     1      17.605  -2.982  53.311  1.00  0.00    -0.009 C 
BRANCH  21  22
HETATM   22  C6  UNL     1      16.235  -3.531  53.508  1.00  0.00     0.095 A 
HETATM   23  C7  UNL     1      15.883  -4.739  52.751  1.00  0.00     0.027 A 
HETATM   24  C8  UNL     1      16.014  -4.800  54.150  1.00  0.00     0.102 A 
HETATM   25  F1  UNL     1      15.935  -5.635  55.212  1.00  0.00    -0.210 F 
ENDBRANCH  21  22
ENDBRANCH  17  20
ENDBRANCH   1  16
TORSDOF 7
ENDMDL
MODEL 3
REMARK VINA RESULT:      -6.7      7.205     11.236
REMARK  7 active torsions:
REMARK  status: ('A' for Active; 'I' for Inactive)
REMARK    1  A    between atoms: C2_2  and  C3_3 
REMARK    2  A    between atoms: C3_3  and  C4_4 
REMARK    3  A    between atoms: C5_5  and  C6_6 
REMARK    4  A    between atoms: N1_10  and  C9_11 
REMARK    5  A    between atoms: C11_13  and  N2_14 
REMARK    6  A    between atoms: N2_14  and  C12_15 
REMARK    7  A    between atoms: N3_19  and  C15_20 
ROOT
HETATM    1  C9  UNL     1      25.825   3.457  50.725  1.00  0.00     0.112 C 
HETATM    2  C10 UNL     1      25.278   4.708  50.017  1.00  0.00     0.052 C 
HETATM    3  C11 UNL     1      26.400   4.521  48.989  1.00  0.00     0.081 C 
HETATM    4  C19 UNL     1      26.428   3.068  49.378  1.00  0.00     0.052 C 
ENDROOT
BRANCH   3   5
HETATM    5  N2  UNL     1      27.521   5.312  49.377  1.00  0.00    -0.411 N 
HETATM    6  H12 UNL     1      28.095   4.886  50.106  1.00  0.00     0.154 HD
BRANCH   5   7
HETATM    7  C12 UNL     1      28.207   6.021  48.337  1.00  0.00     0.099 C 
HETATM    8  C13 UNL     1      29.670   5.766  48.264  1.00  0.00     0.055 C 
HETATM    9  C14 UNL     1      30.320   6.736  47.295  1.00  0.00     0.203 C 
HETATM   10  O1  UNL     1      29.992   8.037  47.506  1.00  0.00    -0.282 OA
HETATM   11  N3  UNL     1      28.721   8.308  47.611  1.00  0.00    -0.288 N 
HETATM   12  C18 UNL     1      27.964   7.503  48.522  1.00  0.00     0.174 C 
BRANCH  11  13
HETATM   13  C15 UNL     1      28.020   8.832  46.493  1.00  0.00     0.100 C 
HETATM   14  C16 UNL     1      28.818   9.599  45.498  1.00  0.00     0.034 C 
HETATM   15  C17 UNL     1      26.851   9.647  46.981  1.00  0.00     0.034 C 
ENDBRANCH  11  13
ENDBRANCH   5   7
ENDBRANCH   3   5
BRANCH   1  16
HETATM   16  N1  UNL     1      24.806   2.576  51.182  1.00  0.00    -0.288 NA
HETATM   17  C3  UNL     1      24.944   1.779  52.169  1.00  0.00     0.034 C 
BRANCH  17  18
HETATM   18  C2  UNL     1      26.312   2.086  52.551  1.00  0.00     0.065 C 
HETATM   19  C1  UNL     1      27.351   2.103  53.344  1.00  0.00    -0.006 C 
ENDBRANCH  17  18
BRANCH  17  20
HETATM   20  C4  UNL     1      23.861   0.929  52.584  1.00  0.00     0.024 C 
HETATM   21  C5  UNL     1      23.945  -0.035  53.517  1.00  0.00    -0.009 C 
BRANCH  21  22
HETATM   22  C6  UNL     1      22.703  -0.806  53.801  1.00  0.00     0.095 A 
HETATM   23  C7  UNL     1      22.534  -1.326  55.163  1.00  0.00     0.027 A 
HETATM   24  C8  UNL     1      21.688  -0.307  54.689  1.00  0.00     0.102 A 
HETATM   25  F1  UNL     1      20.647   0.488  55.033  1.00  0.00    -0.210 F 
ENDBRANCH  21  22
ENDBRANCH  17  20
ENDBRANCH   1  16
TORSDOF 7
ENDMDL
MODEL 4
REMARK VINA RESULT:      -6.6      4.371      9.958
REMARK  7 active torsions:
REMARK  status: ('A' for Active; 'I' for Inactive)
REMARK    1  A    between atoms: C2_2  and  C3_3 
REMARK    2  A    between atoms: C3_3  and  C4_4 
REMARK    3  A    between atoms: C5_5  and  C6_6 
REMARK    4  A    between atoms: N1_10  and  C9_11 
REMARK    5  A    between atoms: C11_13  and  N2_14 
REMARK    6  A    between atoms: N2_14  and  C12_15 
REMARK    7  A    between atoms: N3_19  and  C15_20 
ROOT
HETATM    1  C9  UNL     1      20.866  -0.313  53.229  1.00  0.00     0.112 C 
HETATM    2  C10 UNL     1      22.066  -1.271  53.134  1.00  0.00     0.052 C 
HETATM    3  C11 UNL     1      22.816  -0.297  54.050  1.00  0.00     0.081 C 
HETATM    4  C19 UNL     1      21.476   0.176  54.540  1.00  0.00     0.052 C 
ENDROOT
BRANCH   3   5
HETATM    5  N2  UNL     1      23.565   0.612  53.245  1.00  0.00    -0.411 N 
HETATM    6  H12 UNL     1      23.068   1.479  53.030  1.00  0.00     0.154 HD
BRANCH   5   7
HETATM    7  C12 UNL     1      24.968   0.713  53.513  1.00  0.00     0.099 C 
HETATM    8  C13 UNL     1      25.510   2.097  53.509  1.00  0.00     0.055 C 
HETATM    9  C14 UNL     1      27.026   2.065  53.568  1.00  0.00     0.203 C 
HETATM   10  O1  UNL     1      27.600   1.241  52.652  1.00  0.00    -0.282 OA
HETATM   11  N3  UNL     1      27.136   0.024  52.593  1.00  0.00    -0.288 N 
HETATM   12  C18 UNL     1      25.715  -0.121  52.495  1.00  0.00     0.174 C 
BRANCH  11  13
HETATM   13  C15 UNL     1      27.838  -1.027  53.240  1.00  0.00     0.100 C 
HETATM   14  C16 UNL     1      29.323  -0.922  53.277  1.00  0.00     0.034 C 
HETATM   15  C17 UNL     1      27.412  -2.344  52.648  1.00  0.00     0.034 C 
ENDBRANCH  11  13
ENDBRANCH   5   7
ENDBRANCH   3   5
BRANCH   1  16
HETATM   16  N1  UNL     1      19.620  -0.982  53.381  1.00  0.00    -0.288 NA
HETATM   17  C3  UNL     1      18.593  -0.745  52.662  1.00  0.00     0.034 C 
BRANCH  17  18
HETATM   18  C2  UNL     1      19.125   0.295  51.798  1.00  0.00     0.065 C 
HETATM   19  C1  UNL     1      19.432   0.852  50.657  1.00  0.00    -0.006 C 
ENDBRANCH  17  18
BRANCH  17  20
HETATM   20  C4  UNL     1      17.370  -1.474  52.864  1.00  0.00     0.024 C 
HETATM   21  C5  UNL     1      16.320  -1.477  52.025  1.00  0.00    -0.009 C 
BRANCH  21  22
HETATM   22  C6  UNL     1      15.145  -2.302  52.420  1.00  0.00     0.095 A 
HETATM   23  C7  UNL     1      14.534  -3.139  51.380  1.00  0.00     0.027 A 
HETATM   24  C8  UNL     1      15.208  -3.738  52.460  1.00  0.00     0.102 A 
HETATM   25  F1  UNL     1      15.563  -4.932  52.988  1.00  0.00    -0.210 F 
ENDBRANCH  21  22
ENDBRANCH  17  20
ENDBRANCH   1  16
TORSDOF 7
ENDMDL
MODEL 5
REMARK VINA RESULT:      -6.5      2.150      2.924
REMARK  7 active torsions:
REMARK  status: ('A' for Active; 'I' for Inactive)
REMARK    1  A    between atoms: C2_2  and  C3_3 
REMARK    2  A    between atoms: C3_3  and  C4_4 
REMARK    3  A    between atoms: C5_5  and  C6_6 
REMARK    4  A    between atoms: N1_10  and  C9_11 
REMARK    5  A    between atoms: C11_13  and  N2_14 
REMARK    6  A    between atoms: N2_14  and  C12_15 
REMARK    7  A    between atoms: N3_19  and  C15_20 
ROOT
HETATM    1  C9  UNL     1      21.698   0.275  52.255  1.00  0.00     0.112 C 
HETATM    2  C10 UNL     1      21.173   0.312  50.810  1.00  0.00     0.052 C 
HETATM    3  C11 UNL     1      19.916   0.991  51.368  1.00  0.00     0.081 C 
HETATM    4  C19 UNL     1      20.753   1.439  52.534  1.00  0.00     0.052 C 
ENDROOT
BRANCH   3   5
HETATM    5  N2  UNL     1      18.929  -0.006  51.631  1.00  0.00    -0.411 N 
HETATM    6  H12 UNL     1      19.306  -0.864  52.038  1.00  0.00     0.154 HD
BRANCH   5   7
HETATM    7  C12 UNL     1      17.663   0.447  52.123  1.00  0.00     0.099 C 
HETATM    8  C13 UNL     1      16.631  -0.612  52.271  1.00  0.00     0.055 C 
HETATM    9  C14 UNL     1      15.280   0.012  52.569  1.00  0.00     0.203 C 
HETATM   10  O1  UNL     1      14.931   1.013  51.718  1.00  0.00    -0.282 OA
HETATM   11  N3  UNL     1      15.817   1.951  51.529  1.00  0.00    -0.288 N 
HETATM   12  C18 UNL     1      17.144   1.527  51.199  1.00  0.00     0.174 C 
BRANCH  11  13
HETATM   13  C15 UNL     1      15.699   3.181  52.229  1.00  0.00     0.100 C 
HETATM   14  C16 UNL     1      14.320   3.683  52.479  1.00  0.00     0.034 C 
HETATM   15  C17 UNL     1      16.529   4.227  51.534  1.00  0.00     0.034 C 
ENDBRANCH  11  13
ENDBRANCH   5   7
ENDBRANCH   3   5
BRANCH   1  16
HETATM   16  N1  UNL     1      23.078   0.607  52.362  1.00  0.00    -0.288 NA
HETATM   17  C3  UNL     1      23.858   0.127  53.251  1.00  0.00     0.034 C 
BRANCH  17  18
HETATM   18  C2  UNL     1      22.927  -0.726  53.969  1.00  0.00     0.065 C 
HETATM   19  C1  UNL     1      22.490  -1.417  54.989  1.00  0.00    -0.006 C 
ENDBRANCH  17  18
BRANCH  17  20
HETATM   20  C4  UNL     1      25.247   0.498  53.287  1.00  0.00     0.024 C 
HETATM   21  C5  UNL     1      26.264  -0.331  53.579  1.00  0.00    -0.009 C 
BRANCH  21  22
HETATM   22  C6  UNL     1      27.633   0.253  53.562  1.00  0.00     0.095 A 
HETATM   23  C7  UNL     1      28.450   0.081  54.770  1.00  0.00     0.027 A 
HETATM   24  C8  UNL     1      28.809  -0.575  53.579  1.00  0.00     0.102 A 
HETATM   25  F1  UNL     1      29.725  -1.409  53.034  1.00  0.00    -0.210 F 
ENDBRANCH  21  22
ENDBRANCH  17  20
ENDBRANCH   1  16
TORSDOF 7
ENDMDL
MODEL 6
REMARK VINA RESULT:      -6.5      5.196      9.607
REMARK  7 active torsions:
REMARK  status: ('A' for Active; 'I' for Inactive)
REMARK    1  A    between atoms: C2_2  and  C3_3 
REMARK    2  A    between atoms: C3_3  and  C4_4 
REMARK    3  A    between atoms: C5_5  and  C6_6 
REMARK    4  A    between atoms: N1_10  and  C9_11 
REMARK    5  A    between atoms: C11_13  and  N2_14 
REMARK    6  A    between atoms: N2_14  and  C12_15 
REMARK    7  A    between atoms: N3_19  and  C15_20 
ROOT
HETATM    1  C9  UNL     1      20.650   0.659  52.664  1.00  0.00     0.112 C 
HETATM    2  C10 UNL     1      20.450   2.177  52.810  1.00  0.00     0.052 C 
HETATM    3  C11 UNL     1      21.489   2.341  51.694  1.00  0.00     0.081 C 
HETATM    4  C19 UNL     1      21.137   0.949  51.248  1.00  0.00     0.052 C 
ENDROOT
BRANCH   3   5
HETATM    5  N2  UNL     1      22.776   2.522  52.283  1.00  0.00    -0.411 N 
HETATM    6  H12 UNL     1      23.292   1.651  52.422  1.00  0.00     0.154 HD
BRANCH   5   7
HETATM    7  C12 UNL     1      23.528   3.666  51.862  1.00  0.00     0.099 C 
HETATM    8  C13 UNL     1      22.804   4.960  51.949  1.00  0.00     0.055 C 
HETATM    9  C14 UNL     1      23.604   6.054  51.265  1.00  0.00     0.203 C 
HETATM   10  O1  UNL     1      24.023   5.734  50.012  1.00  0.00    -0.282 OA
HETATM   11  N3  UNL     1      24.636   4.591  49.877  1.00  0.00    -0.288 N 
HETATM   12  C18 UNL     1      23.990   3.443  50.438  1.00  0.00     0.174 C 
BRANCH  11  13
HETATM   13  C15 UNL     1      26.055   4.557  49.821  1.00  0.00     0.100 C 
HETATM   14  C16 UNL     1      26.712   5.479  48.855  1.00  0.00     0.034 C 
HETATM   15  C17 UNL     1      26.506   3.138  49.596  1.00  0.00     0.034 C 
ENDBRANCH  11  13
ENDBRANCH   5   7
ENDBRANCH   3   5
BRANCH   1  16
HETATM   16  N1  UNL     1      19.434  -0.078  52.721  1.00  0.00    -0.288 NA
HETATM   17  C3  UNL     1      19.264  -1.116  53.444  1.00  0.00     0.034 C 
BRANCH  17  18
HETATM   18  C2  UNL     1      20.578  -1.213  54.058  1.00  0.00     0.065 C 
HETATM   19  C1  UNL     1      21.779  -1.697  54.228  1.00  0.00    -0.006 C 
ENDBRANCH  17  18
BRANCH  17  20
HETATM   20  C4  UNL     1      18.000  -1.800  53.463  1.00  0.00     0.024 C 
HETATM   21  C5  UNL     1      17.837  -3.127  53.596  1.00  0.00    -0.009 C 
BRANCH  21  22
HETATM   22  C6  UNL     1      16.438  -3.637  53.589  1.00  0.00     0.095 A 
HETATM   23  C7  UNL     1      16.179  -4.873  52.840  1.00  0.00     0.027 A 
HETATM   24  C8  UNL     1      16.078  -4.867  54.243  1.00  0.00     0.102 A 
HETATM   25  F1  UNL     1      15.803  -5.647  55.314  1.00  0.00    -0.210 F 
ENDBRANCH  21  22
ENDBRANCH  17  20
ENDBRANCH   1  16
TORSDOF 7
ENDMDL
MODEL 7
REMARK VINA RESULT:      -6.3      4.893      9.983
REMARK  7 active torsions:
REMARK  status: ('A' for Active; 'I' for Inactive)
REMARK    1  A    between atoms: C2_2  and  C3_3 
REMARK    2  A    between atoms: C3_3  and  C4_4 
REMARK    3  A    between atoms: C5_5  and  C6_6 
REMARK    4  A    between atoms: N1_10  and  C9_11 
REMARK    5  A    between atoms: C11_13  and  N2_14 
REMARK    6  A    between atoms: N2_14  and  C12_15 
REMARK    7  A    between atoms: N3_19  and  C15_20 
ROOT
HETATM    1  C9  UNL     1      22.336   1.929  51.856  1.00  0.00     0.112 C 
HETATM    2  C10 UNL     1      22.860   0.778  52.731  1.00  0.00     0.052 C 
HETATM    3  C11 UNL     1      24.164   1.575  52.861  1.00  0.00     0.081 C 
HETATM    4  C19 UNL     1      23.364   2.811  52.559  1.00  0.00     0.052 C 
ENDROOT
BRANCH   3   5
HETATM    5  N2  UNL     1      25.076   1.137  51.856  1.00  0.00    -0.411 N 
HETATM    6  H12 UNL     1      25.150   1.773  51.060  1.00  0.00     0.154 HD
BRANCH   5   7
HETATM    7  C12 UNL     1      26.284   0.509  52.304  1.00  0.00     0.099 C 
HETATM    8  C13 UNL     1      26.258  -0.977  52.299  1.00  0.00     0.055 C 
HETATM    9  C14 UNL     1      27.485  -1.523  53.006  1.00  0.00     0.203 C 
HETATM   10  O1  UNL     1      27.712  -0.975  54.228  1.00  0.00    -0.282 OA
HETATM   11  N3  UNL     1      27.712   0.328  54.291  1.00  0.00    -0.288 N 
HETATM   12  C18 UNL     1      26.595   1.002  53.701  1.00  0.00     0.174 C 
BRANCH  11  13
HETATM   13  C15 UNL     1      28.945   1.031  54.300  1.00  0.00     0.100 C 
HETATM   14  C16 UNL     1      28.928   2.426  53.781  1.00  0.00     0.034 C 
HETATM   15  C17 UNL     1      29.987   0.210  53.589  1.00  0.00     0.034 C 
ENDBRANCH  11  13
ENDBRANCH   5   7
ENDBRANCH   3   5
BRANCH   1  16
HETATM   16  N1  UNL     1      20.985   2.277  52.132  1.00  0.00    -0.288 NA
HETATM   17  C3  UNL     1      20.056   2.273  51.257  1.00  0.00     0.034 C 
BRANCH  17  18
HETATM   18  C2  UNL     1      20.811   1.851  50.090  1.00  0.00     0.065 C 
HETATM   19  C1  UNL     1      20.994   1.250  48.944  1.00  0.00    -0.006 C 
ENDBRANCH  17  18
BRANCH  17  20
HETATM   20  C4  UNL     1      18.707   2.621  51.615  1.00  0.00     0.024 C 
HETATM   21  C5  UNL     1      18.100   3.782  51.315  1.00  0.00    -0.009 C 
BRANCH  21  22
HETATM   22  C6  UNL     1      16.695   3.946  51.781  1.00  0.00     0.095 A 
HETATM   23  C7  UNL     1      15.665   4.129  50.750  1.00  0.00     0.027 A 
HETATM   24  C8  UNL     1      15.690   2.951  51.518  1.00  0.00     0.102 A 
HETATM   25  F1  UNL     1      15.062   1.767  51.710  1.00  0.00    -0.210 F 
ENDBRANCH  21  22
ENDBRANCH  17  20
ENDBRANCH   1  16
TORSDOF 7
ENDMDL
MODEL 8
REMARK VINA RESULT:      -6.3      7.065     11.492
REMARK  7 active torsions:
REMARK  status: ('A' for Active; 'I' for Inactive)
REMARK    1  A    between atoms: C2_2  and  C3_3 
REMARK    2  A    between atoms: C3_3  and  C4_4 
REMARK    3  A    between atoms: C5_5  and  C6_6 
REMARK    4  A    between atoms: N1_10  and  C9_11 
REMARK    5  A    between atoms: C11_13  and  N2_14 
REMARK    6  A    between atoms: N2_14  and  C12_15 
REMARK    7  A    between atoms: N3_19  and  C15_20 
ROOT
HETATM    1  C9  UNL     1      24.502   3.761  49.650  1.00  0.00     0.112 C 
HETATM    2  C10 UNL     1      26.028   3.586  49.726  1.00  0.00     0.052 C 
HETATM    3  C11 UNL     1      26.121   5.115  49.801  1.00  0.00     0.081 C 
HETATM    4  C19 UNL     1      24.712   5.111  50.329  1.00  0.00     0.052 C 
ENDROOT
BRANCH   3   5
HETATM    5  N2  UNL     1      26.313   5.632  48.486  1.00  0.00    -0.411 N 
HETATM    6  H12 UNL     1      25.494   5.541  47.882  1.00  0.00     0.154 HD
BRANCH   5   7
HETATM    7  C12 UNL     1      27.081   6.836  48.367  1.00  0.00     0.099 C 
HETATM    8  C13 UNL     1      26.588   7.797  47.346  1.00  0.00     0.055 C 
HETATM    9  C14 UNL     1      27.599   8.910  47.145  1.00  0.00     0.203 C 
HETATM   10  O1  UNL     1      28.868   8.475  46.931  1.00  0.00    -0.282 OA
HETATM   11  N3  UNL     1      29.337   7.605  47.782  1.00  0.00    -0.288 N 
HETATM   12  C18 UNL     1      28.515   6.465  48.056  1.00  0.00     0.174 C 
BRANCH  11  13
HETATM   13  C15 UNL     1      30.193   8.036  48.829  1.00  0.00     0.100 C 
HETATM   14  C16 UNL     1      30.745   9.414  48.722  1.00  0.00     0.034 C 
HETATM   15  C17 UNL     1      31.300   7.031  49.008  1.00  0.00     0.034 C 
ENDBRANCH  11  13
ENDBRANCH   5   7
ENDBRANCH   3   5
BRANCH   1  16
HETATM   16  N1  UNL     1      23.786   2.818  50.439  1.00  0.00    -0.288 NA
HETATM   17  C3  UNL     1      22.824   2.105  49.997  1.00  0.00     0.034 C 
BRANCH  17  18
HETATM   18  C2  UNL     1      22.775   2.572  48.622  1.00  0.00     0.065 C 
HETATM   19  C1  UNL     1      22.265   2.700  47.426  1.00  0.00    -0.006 C 
ENDBRANCH  17  18
BRANCH  17  20
HETATM   20  C4  UNL     1      22.158   1.160  50.851  1.00  0.00     0.024 C 
HETATM   21  C5  UNL     1      22.607   0.744  52.048  1.00  0.00    -0.009 C 
BRANCH  21  22
HETATM   22  C6  UNL     1      21.764  -0.244  52.776  1.00  0.00     0.095 A 
HETATM   23  C7  UNL     1      22.402  -0.995  53.865  1.00  0.00     0.027 A 
HETATM   24  C8  UNL     1      21.396  -0.055  54.154  1.00  0.00     0.102 A 
HETATM   25  F1  UNL     1      20.693   0.505  55.166  1.00  0.00    -0.210 F 
ENDBRANCH  21  22
ENDBRANCH  17  20
ENDBRANCH   1  16
TORSDOF 7
ENDMDL
MODEL 9
REMARK VINA RESULT:      -6.2      2.837      4.004
REMARK  7 active torsions:
REMARK  status: ('A' for Active; 'I' for Inactive)
REMARK    1  A    between atoms: C2_2  and  C3_3 
REMARK    2  A    between atoms: C3_3  and  C4_4 
REMARK    3  A    between atoms: C5_5  and  C6_6 
REMARK    4  A    between atoms: N1_10  and  C9_11 
REMARK    5  A    between atoms: C11_13  and  N2_14 
REMARK    6  A    between atoms: N2_14  and  C12_15 
REMARK    7  A    between atoms: N3_19  and  C15_20 
ROOT
HETATM    1  C9  UNL     1      22.765   1.056  52.123  1.00  0.00     0.112 C 
HETATM    2  C10 UNL     1      22.845   1.486  50.649  1.00  0.00     0.052 C 
HETATM    3  C11 UNL     1      21.646   2.399  50.932  1.00  0.00     0.081 C 
HETATM    4  C19 UNL     1      22.054   2.382  52.379  1.00  0.00     0.052 C 
ENDROOT
BRANCH   3   5
HETATM    5  N2  UNL     1      20.446   1.704  50.594  1.00  0.00    -0.411 N 
HETATM    6  H12 UNL     1      20.289   0.859  51.146  1.00  0.00     0.154 HD
BRANCH   5   7
HETATM    7  C12 UNL     1      19.298   2.503  50.283  1.00  0.00     0.099 C 
HETATM    8  C13 UNL     1      19.597   3.906  49.894  1.00  0.00     0.055 C 
HETATM    9  C14 UNL     1      18.313   4.712  49.819  1.00  0.00     0.203 C 
HETATM   10  O1  UNL     1      17.520   4.596  50.916  1.00  0.00    -0.282 OA
HETATM   11  N3  UNL     1      17.255   3.384  51.318  1.00  0.00    -0.288 N 
HETATM   12  C18 UNL     1      18.370   2.501  51.478  1.00  0.00     0.174 C 
BRANCH  11  13
HETATM   13  C15 UNL     1      16.014   2.785  50.974  1.00  0.00     0.100 C 
HETATM   14  C16 UNL     1      14.794   3.619  51.146  1.00  0.00     0.034 C 
HETATM   15  C17 UNL     1      15.876   1.479  51.711  1.00  0.00     0.034 C 
ENDBRANCH  11  13
ENDBRANCH   5   7
ENDBRANCH   3   5
BRANCH   1  16
HETATM   16  N1  UNL     1      24.038   0.948  52.750  1.00  0.00    -0.288 NA
HETATM   17  C3  UNL     1      24.333   0.055  53.612  1.00  0.00     0.034 C 
BRANCH  17  18
HETATM   18  C2  UNL     1      23.070  -0.660  53.677  1.00  0.00     0.065 C 
HETATM   19  C1  UNL     1      22.143  -1.388  54.239  1.00  0.00    -0.006 C 
ENDBRANCH  17  18
BRANCH  17  20
HETATM   20  C4  UNL     1      25.649  -0.001  54.190  1.00  0.00     0.024 C 
HETATM   21  C5  UNL     1      26.802   0.068  53.504  1.00  0.00    -0.009 C 
BRANCH  21  22
HETATM   22  C6  UNL     1      28.061  -0.011  54.295  1.00  0.00     0.095 A 
HETATM   23  C7  UNL     1      29.316  -0.143  53.544  1.00  0.00     0.027 A 
HETATM   24  C8  UNL     1      29.044   1.038  54.258  1.00  0.00     0.102 A 
HETATM   25  F1  UNL     1      29.543   2.258  54.568  1.00  0.00    -0.210 F 
ENDBRANCH  21  22
ENDBRANCH  17  20
ENDBRANCH   1  16
TORSDOF 7
ENDMDL
