MODEL 1
REMARK VINA RESULT:      -8.9      0.000      0.000
REMARK  4 active torsions:
REMARK  status: ('A' for Active; 'I' for Inactive)
REMARK    1  A    between atoms: C2_2  and  N1_3 
REMARK    2  A    between atoms: C6_8  and  C7_9 
REMARK    3  A    between atoms: C14_17  and  O1_18 
REMARK    4  A    between atoms: O1_18  and  C15_19 
ROOT
HETATM    1  N1  UNL     1      23.499   4.749  51.101  1.00  0.00    -0.325 N 
HETATM    2  C3  UNL     1      24.194   4.824  49.775  1.00  0.00     0.157 C 
HETATM    3  C4  UNL     1      23.956   3.451  49.142  1.00  0.00     0.012 C 
HETATM    4  C5  UNL     1      23.414   2.435  49.853  1.00  0.00     0.116 C 
HETATM    5  N2  UNL     1      22.846   1.651  50.883  1.00  0.00    -0.241 NA
HETATM    6  C6  UNL     1      23.480   1.319  51.989  1.00  0.00     0.164 C 
HETATM    7  N3  UNL     1      24.749   1.444  52.696  1.00  0.00    -0.181 NA
HETATM    8  C14 UNL     1      25.065   2.491  53.456  1.00  0.00     0.298 C 
HETATM    9  O2  UNL     1      24.044   3.472  53.503  1.00  0.00    -0.220 OA
HETATM   10  C20 UNL     1      23.700   4.146  52.364  1.00  0.00     0.371 C 
HETATM   11  O3  UNL     1      24.696   3.505  51.958  1.00  0.00    -0.238 OA
ENDROOT
BRANCH   6  12
HETATM   12  C7  UNL     1      22.518   0.510  52.771  1.00  0.00     0.018 A 
HETATM   13  C8  UNL     1      22.845  -0.779  53.214  1.00  0.00     0.016 A 
HETATM   14  C9  UNL     1      22.064  -1.632  53.935  1.00  0.00     0.001 A 
HETATM   15  C10 UNL     1      20.806  -1.214  54.286  1.00  0.00     0.001 A 
HETATM   16  C11 UNL     1      20.405   0.035  53.894  1.00  0.00     0.007 A 
HETATM   17  C12 UNL     1      21.221   0.868  53.165  1.00  0.00    -0.048 A 
HETATM   18  C13 UNL     1      20.747   2.197  52.757  1.00  0.00     0.049 C 
ENDBRANCH   6  12
BRANCH   8  19
HETATM   19  O1  UNL     1      26.316   2.427  54.048  1.00  0.00    -0.309 OA
BRANCH  19  20
HETATM   20  C15 UNL     1      27.186   1.412  53.726  1.00  0.00     0.132 C 
HETATM   21  C16 UNL     1      28.586   1.985  53.682  1.00  0.00     0.032 C 
HETATM   22  C17 UNL     1      29.401   0.701  53.486  1.00  0.00     0.002 C 
HETATM   23  C18 UNL     1      28.574  -0.393  54.135  1.00  0.00     0.002 C 
HETATM   24  C19 UNL     1      27.360   0.324  54.737  1.00  0.00     0.032 C 
ENDBRANCH  19  20
ENDBRANCH   8  19
BRANCH   1  25
HETATM   25  C2  UNL     1      22.290   5.546  51.228  1.00  0.00     0.124 C 
HETATM   26  C1  UNL     1      22.428   6.950  50.706  1.00  0.00     0.026 C 
ENDBRANCH   1  25
TORSDOF 4
ENDMDL
MODEL 2
REMARK VINA RESULT:      -8.4      1.761      4.890
REMARK  4 active torsions:
REMARK  status: ('A' for Active; 'I' for Inactive)
REMARK    1  A    between atoms: C2_2  and  N1_3 
REMARK    2  A    between atoms: C6_8  and  C7_9 
REMARK    3  A    between atoms: C14_17  and  O1_18 
REMARK    4  A    between atoms: O1_18  and  C15_19 
ROOT
HETATM    1  N1  UNL     1      21.759   1.333  51.337  1.00  0.00    -0.325 N 
HETATM    2  C3  UNL     1      20.599   1.627  52.240  1.00  0.00     0.157 C 
HETATM    3  C4  UNL     1      20.549   3.156  52.308  1.00  0.00     0.012 C 
HETATM    4  C5  UNL     1      21.542   3.914  51.791  1.00  0.00     0.116 C 
HETATM    5  N2  UNL     1      22.731   4.348  51.162  1.00  0.00    -0.241 NA
HETATM    6  C6  UNL     1      23.940   4.109  51.628  1.00  0.00     0.164 C 
HETATM    7  N3  UNL     1      24.672   3.482  52.722  1.00  0.00    -0.181 NA
HETATM    8  C14 UNL     1      24.978   2.187  52.753  1.00  0.00     0.298 C 
HETATM    9  O2  UNL     1      24.516   1.480  51.615  1.00  0.00    -0.220 OA
HETATM   10  C20 UNL     1      23.172   1.365  51.391  1.00  0.00     0.371 C 
HETATM   11  O3  UNL     1      23.168   1.903  52.520  1.00  0.00    -0.238 OA
ENDROOT
BRANCH   6  12
HETATM   12  C7  UNL     1      24.870   4.737  50.662  1.00  0.00     0.018 A 
HETATM   13  C8  UNL     1      25.786   3.967  49.932  1.00  0.00     0.016 A 
HETATM   14  C9  UNL     1      26.696   4.406  49.017  1.00  0.00     0.001 A 
HETATM   15  C10 UNL     1      26.749   5.751  48.755  1.00  0.00     0.001 A 
HETATM   16  C11 UNL     1      25.887   6.578  49.426  1.00  0.00     0.007 A 
HETATM   17  C12 UNL     1      24.982   6.097  50.344  1.00  0.00    -0.048 A 
HETATM   18  C13 UNL     1      24.082   7.019  51.047  1.00  0.00     0.049 C 
ENDBRANCH   6  12
BRANCH   8  19
HETATM   19  O1  UNL     1      25.680   1.777  53.875  1.00  0.00    -0.309 OA
BRANCH  19  20
HETATM   20  C15 UNL     1      26.833   1.040  53.742  1.00  0.00     0.132 C 
HETATM   21  C16 UNL     1      27.996   2.001  53.622  1.00  0.00     0.032 C 
HETATM   22  C17 UNL     1      29.169   1.015  53.657  1.00  0.00     0.002 C 
HETATM   23  C18 UNL     1      28.669  -0.163  54.471  1.00  0.00     0.002 C 
HETATM   24  C19 UNL     1      27.259   0.231  54.926  1.00  0.00     0.032 C 
ENDBRANCH  19  20
ENDBRANCH   8  19
BRANCH   1  25
HETATM   25  C2  UNL     1      21.422   0.800  50.027  1.00  0.00     0.124 C 
HETATM   26  C1  UNL     1      21.951   1.618  48.882  1.00  0.00     0.026 C 
ENDBRANCH   1  25
TORSDOF 4
ENDMDL
MODEL 3
REMARK VINA RESULT:      -7.8      2.373      5.200
REMARK  4 active torsions:
REMARK  status: ('A' for Active; 'I' for Inactive)
REMARK    1  A    between atoms: C2_2  and  N1_3 
REMARK    2  A    between atoms: C6_8  and  C7_9 
REMARK    3  A    between atoms: C14_17  and  O1_18 
REMARK    4  A    between atoms: O1_18  and  C15_19 
ROOT
HETATM    1  N1  UNL     1      21.299   2.140  50.111  1.00  0.00    -0.325 N 
HETATM    2  C3  UNL     1      20.025   2.615  50.743  1.00  0.00     0.157 C 
HETATM    3  C4  UNL     1      20.179   4.137  50.811  1.00  0.00     0.012 C 
HETATM    4  C5  UNL     1      21.358   4.736  50.530  1.00  0.00     0.116 C 
HETATM    5  N2  UNL     1      22.704   4.984  50.179  1.00  0.00    -0.241 NA
HETATM    6  C6  UNL     1      23.737   4.589  50.895  1.00  0.00     0.164 C 
HETATM    7  N3  UNL     1      24.118   3.890  52.117  1.00  0.00    -0.181 NA
HETATM    8  C14 UNL     1      24.223   2.566  52.202  1.00  0.00     0.298 C 
HETATM    9  O2  UNL     1      23.922   1.905  50.984  1.00  0.00    -0.220 OA
HETATM   10  C20 UNL     1      22.656   1.975  50.472  1.00  0.00     0.371 C 
HETATM   11  O3  UNL     1      22.485   2.534  51.578  1.00  0.00    -0.238 OA
ENDROOT
BRANCH   6  12
HETATM   12  C7  UNL     1      24.934   5.057  50.160  1.00  0.00     0.018 A 
HETATM   13  C8  UNL     1      25.792   4.153  49.518  1.00  0.00     0.016 A 
HETATM   14  C9  UNL     1      26.922   4.439  48.812  1.00  0.00     0.001 A 
HETATM   15  C10 UNL     1      27.293   5.755  48.695  1.00  0.00     0.001 A 
HETATM   16  C11 UNL     1      26.509   6.706  49.292  1.00  0.00     0.007 A 
HETATM   17  C12 UNL     1      25.375   6.378  49.998  1.00  0.00    -0.048 A 
HETATM   18  C13 UNL     1      24.567   7.429  50.631  1.00  0.00     0.049 C 
ENDBRANCH   6  12
BRANCH   8  19
HETATM   19  O1  UNL     1      24.599   2.087  53.446  1.00  0.00    -0.309 OA
BRANCH  19  20
HETATM   20  C15 UNL     1      25.779   1.397  53.597  1.00  0.00     0.132 C 
HETATM   21  C16 UNL     1      25.762   0.220  52.647  1.00  0.00     0.032 C 
HETATM   22  C17 UNL     1      27.191  -0.304  52.837  1.00  0.00     0.002 C 
HETATM   23  C18 UNL     1      28.009   0.915  53.219  1.00  0.00     0.002 C 
HETATM   24  C19 UNL     1      27.030   2.092  53.161  1.00  0.00     0.032 C 
ENDBRANCH  19  20
ENDBRANCH   8  19
BRANCH   1  25
HETATM   25  C2  UNL     1      21.182   1.630  48.755  1.00  0.00     0.124 C 
HETATM   26  C1  UNL     1      22.296   2.066  47.843  1.00  0.00     0.026 C 
ENDBRANCH   1  25
TORSDOF 4
ENDMDL
MODEL 4
REMARK VINA RESULT:      -7.7      2.416      5.770
REMARK  4 active torsions:
REMARK  status: ('A' for Active; 'I' for Inactive)
REMARK    1  A    between atoms: C2_2  and  N1_3 
REMARK    2  A    between atoms: C6_8  and  C7_9 
REMARK    3  A    between atoms: C14_17  and  O1_18 
REMARK    4  A    between atoms: O1_18  and  C15_19 
ROOT
HETATM    1  N1  UNL     1      23.422   4.809  49.669  1.00  0.00    -0.325 N 
HETATM    2  C3  UNL     1      22.637   5.926  50.288  1.00  0.00     0.157 C 
HETATM    3  C4  UNL     1      22.797   5.712  51.796  1.00  0.00     0.012 C 
HETATM    4  C5  UNL     1      23.363   4.587  52.289  1.00  0.00     0.116 C 
HETATM    5  N2  UNL     1      23.983   3.323  52.416  1.00  0.00    -0.241 NA
HETATM    6  C6  UNL     1      23.421   2.188  52.053  1.00  0.00     0.164 C 
HETATM    7  N3  UNL     1      22.208   1.608  51.488  1.00  0.00    -0.181 NA
HETATM    8  C14 UNL     1      21.972   1.533  50.180  1.00  0.00     0.298 C 
HETATM    9  O2  UNL     1      23.017   2.078  49.394  1.00  0.00    -0.220 OA
HETATM   10  C20 UNL     1      23.296   3.415  49.472  1.00  0.00     0.371 C 
HETATM   11  O3  UNL     1      22.259   3.357  50.171  1.00  0.00    -0.238 OA
ENDROOT
BRANCH   6  12
HETATM   12  C7  UNL     1      24.416   1.136  52.359  1.00  0.00     0.018 A 
HETATM   13  C8  UNL     1      25.696   1.158  51.788  1.00  0.00     0.016 A 
HETATM   14  C9  UNL     1      26.705   0.262  51.977  1.00  0.00     0.001 A 
HETATM   15  C10 UNL     1      26.477  -0.798  52.817  1.00  0.00     0.001 A 
HETATM   16  C11 UNL     1      25.251  -0.897  53.419  1.00  0.00     0.007 A 
HETATM   17  C12 UNL     1      24.256   0.028  53.203  1.00  0.00    -0.048 A 
HETATM   18  C13 UNL     1      22.952  -0.121  53.862  1.00  0.00     0.049 C 
ENDBRANCH   6  12
BRANCH   8  19
HETATM   19  O1  UNL     1      20.764   0.946  49.836  1.00  0.00    -0.309 OA
BRANCH  19  20
HETATM   20  C15 UNL     1      19.625   1.236  50.549  1.00  0.00     0.132 C 
HETATM   21  C16 UNL     1      18.587   1.769  49.585  1.00  0.00     0.032 C 
HETATM   22  C17 UNL     1      17.373   1.865  50.515  1.00  0.00     0.002 C 
HETATM   23  C18 UNL     1      17.593   0.789  51.562  1.00  0.00     0.002 C 
HETATM   24  C19 UNL     1      18.886   0.079  51.144  1.00  0.00     0.032 C 
ENDBRANCH  19  20
ENDBRANCH   8  19
BRANCH   1  25
HETATM   25  C2  UNL     1      24.656   5.196  49.004  1.00  0.00     0.124 C 
HETATM   26  C1  UNL     1      25.853   4.391  49.430  1.00  0.00     0.026 C 
ENDBRANCH   1  25
TORSDOF 4
ENDMDL
MODEL 5
REMARK VINA RESULT:      -7.6      1.470      1.818
REMARK  4 active torsions:
REMARK  status: ('A' for Active; 'I' for Inactive)
REMARK    1  A    between atoms: C2_2  and  N1_3 
REMARK    2  A    between atoms: C6_8  and  C7_9 
REMARK    3  A    between atoms: C14_17  and  O1_18 
REMARK    4  A    between atoms: O1_18  and  C15_19 
ROOT
HETATM    1  N1  UNL     1      22.390   4.281  49.259  1.00  0.00    -0.325 N 
HETATM    2  C3  UNL     1      22.576   3.928  47.814  1.00  0.00     0.157 C 
HETATM    3  C4  UNL     1      22.207   2.444  47.735  1.00  0.00     0.012 C 
HETATM    4  C5  UNL     1      22.001   1.712  48.853  1.00  0.00     0.116 C 
HETATM    5  N2  UNL     1      21.870   1.294  50.197  1.00  0.00    -0.241 NA
HETATM    6  C6  UNL     1      22.866   1.266  51.059  1.00  0.00     0.164 C 
HETATM    7  N3  UNL     1      24.293   1.524  51.210  1.00  0.00    -0.181 NA
HETATM    8  C14 UNL     1      24.797   2.728  51.471  1.00  0.00     0.298 C 
HETATM    9  O2  UNL     1      23.805   3.734  51.582  1.00  0.00    -0.220 OA
HETATM   10  C20 UNL     1      23.051   4.063  50.490  1.00  0.00     0.371 C 
HETATM   11  O3  UNL     1      23.876   3.279  49.969  1.00  0.00    -0.238 OA
ENDROOT
BRANCH   6  12
HETATM   12  C7  UNL     1      22.281   0.774  52.326  1.00  0.00     0.018 A 
HETATM   13  C8  UNL     1      22.907  -0.236  53.070  1.00  0.00     0.016 A 
HETATM   14  C9  UNL     1      22.486  -0.785  54.244  1.00  0.00     0.001 A 
HETATM   15  C10 UNL     1      21.318  -0.318  54.792  1.00  0.00     0.001 A 
HETATM   16  C11 UNL     1      20.641   0.671  54.129  1.00  0.00     0.007 A 
HETATM   17  C12 UNL     1      21.097   1.200  52.944  1.00  0.00    -0.048 A 
HETATM   18  C13 UNL     1      20.335   2.253  52.262  1.00  0.00     0.049 C 
ENDBRANCH   6  12
BRANCH   8  19
HETATM   19  O1  UNL     1      26.178   2.774  51.582  1.00  0.00    -0.309 OA
BRANCH  19  20
HETATM   20  C15 UNL     1      26.827   1.975  52.494  1.00  0.00     0.132 C 
HETATM   21  C16 UNL     1      25.960   1.868  53.729  1.00  0.00     0.032 C 
HETATM   22  C17 UNL     1      26.754   0.829  54.531  1.00  0.00     0.002 C 
HETATM   23  C18 UNL     1      27.464  -0.014  53.488  1.00  0.00     0.002 C 
HETATM   24  C19 UNL     1      26.988   0.532  52.137  1.00  0.00     0.032 C 
ENDBRANCH  19  20
ENDBRANCH   8  19
BRANCH   1  25
HETATM   25  C2  UNL     1      21.260   5.144  49.560  1.00  0.00     0.124 C 
HETATM   26  C1  UNL     1      21.341   5.805  50.908  1.00  0.00     0.026 C 
ENDBRANCH   1  25
TORSDOF 4
ENDMDL
MODEL 6
REMARK VINA RESULT:      -7.2      2.107      6.533
REMARK  4 active torsions:
REMARK  status: ('A' for Active; 'I' for Inactive)
REMARK    1  A    between atoms: C2_2  and  N1_3 
REMARK    2  A    between atoms: C6_8  and  C7_9 
REMARK    3  A    between atoms: C14_17  and  O1_18 
REMARK    4  A    between atoms: O1_18  and  C15_19 
ROOT
HETATM    1  N1  UNL     1      25.769  -0.371  54.020  1.00  0.00    -0.325 N 
HETATM    2  C3  UNL     1      26.516  -1.433  53.270  1.00  0.00     0.157 C 
HETATM    3  C4  UNL     1      26.855  -0.782  51.926  1.00  0.00     0.012 C 
HETATM    4  C5  UNL     1      26.326   0.411  51.571  1.00  0.00     0.116 C 
HETATM    5  N2  UNL     1      25.599   1.623  51.557  1.00  0.00    -0.241 NA
HETATM    6  C6  UNL     1      24.283   1.691  51.552  1.00  0.00     0.164 C 
HETATM    7  N3  UNL     1      23.067   0.887  51.541  1.00  0.00    -0.181 NA
HETATM    8  C14 UNL     1      22.509   0.385  52.641  1.00  0.00     0.298 C 
HETATM    9  O2  UNL     1      23.221   0.710  53.823  1.00  0.00    -0.220 OA
HETATM   10  C20 UNL     1      24.489   0.230  54.002  1.00  0.00     0.371 C 
HETATM   11  O3  UNL     1      24.162  -0.375  52.957  1.00  0.00    -0.238 OA
ENDROOT
BRANCH   6  12
HETATM   12  C7  UNL     1      23.960   3.136  51.540  1.00  0.00     0.018 A 
HETATM   13  C8  UNL     1      23.820   3.859  52.733  1.00  0.00     0.016 A 
HETATM   14  C9  UNL     1      23.525   5.182  52.873  1.00  0.00     0.001 A 
HETATM   15  C10 UNL     1      23.337   5.924  51.735  1.00  0.00     0.001 A 
HETATM   16  C11 UNL     1      23.455   5.296  50.523  1.00  0.00     0.007 A 
HETATM   17  C12 UNL     1      23.754   3.956  50.423  1.00  0.00    -0.048 A 
HETATM   18  C13 UNL     1      23.863   3.320  49.103  1.00  0.00     0.049 C 
ENDBRANCH   6  12
BRANCH   8  19
HETATM   19  O1  UNL     1      21.355  -0.352  52.429  1.00  0.00    -0.309 OA
BRANCH  19  20
HETATM   20  C15 UNL     1      20.264   0.227  51.824  1.00  0.00     0.132 C 
HETATM   21  C16 UNL     1      19.020  -0.473  52.327  1.00  0.00     0.032 C 
HETATM   22  C17 UNL     1      17.936   0.405  51.689  1.00  0.00     0.002 C 
HETATM   23  C18 UNL     1      18.568   1.778  51.559  1.00  0.00     0.002 C 
HETATM   24  C19 UNL     1      19.957   1.643  52.194  1.00  0.00     0.032 C 
ENDBRANCH  19  20
ENDBRANCH   8  19
BRANCH   1  25
HETATM   25  C2  UNL     1      26.472   0.223  55.145  1.00  0.00     0.124 C 
HETATM   26  C1  UNL     1      27.969   0.227  54.994  1.00  0.00     0.026 C 
ENDBRANCH   1  25
TORSDOF 4
ENDMDL
MODEL 7
REMARK VINA RESULT:      -7.1      1.851      2.299
REMARK  4 active torsions:
REMARK  status: ('A' for Active; 'I' for Inactive)
REMARK    1  A    between atoms: C2_2  and  N1_3 
REMARK    2  A    between atoms: C6_8  and  C7_9 
REMARK    3  A    between atoms: C14_17  and  O1_18 
REMARK    4  A    between atoms: O1_18  and  C15_19 
ROOT
HETATM    1  N1  UNL     1      24.396   4.844  51.185  1.00  0.00    -0.325 N 
HETATM    2  C3  UNL     1      25.422   4.771  50.095  1.00  0.00     0.157 C 
HETATM    3  C4  UNL     1      24.730   3.991  48.973  1.00  0.00     0.012 C 
HETATM    4  C5  UNL     1      23.541   3.380  49.175  1.00  0.00     0.116 C 
HETATM    5  N2  UNL     1      22.346   2.892  49.751  1.00  0.00    -0.241 NA
HETATM    6  C6  UNL     1      22.307   2.018  50.735  1.00  0.00     0.164 C 
HETATM    7  N3  UNL     1      23.138   1.202  51.613  1.00  0.00    -0.181 NA
HETATM    8  C14 UNL     1      23.679   1.656  52.741  1.00  0.00     0.298 C 
HETATM    9  O2  UNL     1      23.368   3.014  53.000  1.00  0.00    -0.220 OA
HETATM   10  C20 UNL     1      23.824   3.985  52.152  1.00  0.00     0.371 C 
HETATM   11  O3  UNL     1      24.410   2.983  51.686  1.00  0.00    -0.238 OA
ENDROOT
BRANCH   6  12
HETATM   12  C7  UNL     1      20.869   1.801  51.018  1.00  0.00     0.018 A 
HETATM   13  C8  UNL     1      20.294   0.527  50.915  1.00  0.00     0.016 A 
HETATM   14  C9  UNL     1      18.995   0.183  51.141  1.00  0.00     0.001 A 
HETATM   15  C10 UNL     1      18.121   1.172  51.516  1.00  0.00     0.001 A 
HETATM   16  C11 UNL     1      18.601   2.448  51.641  1.00  0.00     0.007 A 
HETATM   17  C12 UNL     1      19.920   2.758  51.403  1.00  0.00    -0.048 A 
HETATM   18  C13 UNL     1      20.392   4.142  51.541  1.00  0.00     0.049 C 
ENDBRANCH   6  12
BRANCH   8  19
HETATM   19  O1  UNL     1      24.436   0.730  53.441  1.00  0.00    -0.309 OA
BRANCH  19  20
HETATM   20  C15 UNL     1      25.691   0.384  52.999  1.00  0.00     0.132 C 
HETATM   21  C16 UNL     1      26.705   1.195  53.777  1.00  0.00     0.032 C 
HETATM   22  C17 UNL     1      28.007   0.557  53.276  1.00  0.00     0.002 C 
HETATM   23  C18 UNL     1      27.634  -0.869  52.919  1.00  0.00     0.002 C 
HETATM   24  C19 UNL     1      26.155  -1.006  53.299  1.00  0.00     0.032 C 
ENDBRANCH  19  20
ENDBRANCH   8  19
BRANCH   1  25
HETATM   25  C2  UNL     1      23.815   6.155  51.422  1.00  0.00     0.124 C 
HETATM   26  C1  UNL     1      22.922   6.634  50.311  1.00  0.00     0.026 C 
ENDBRANCH   1  25
TORSDOF 4
ENDMDL
MODEL 8
REMARK VINA RESULT:      -7.0      2.787      5.295
REMARK  4 active torsions:
REMARK  status: ('A' for Active; 'I' for Inactive)
REMARK    1  A    between atoms: C2_2  and  N1_3 
REMARK    2  A    between atoms: C6_8  and  C7_9 
REMARK    3  A    between atoms: C14_17  and  O1_18 
REMARK    4  A    between atoms: O1_18  and  C15_19 
ROOT
HETATM    1  N1  UNL     1      19.364   2.369  49.681  1.00  0.00    -0.325 N 
HETATM    2  C3  UNL     1      18.287   3.054  50.466  1.00  0.00     0.157 C 
HETATM    3  C4  UNL     1      19.011   4.188  51.197  1.00  0.00     0.012 C 
HETATM    4  C5  UNL     1      20.361   4.270  51.201  1.00  0.00     0.116 C 
HETATM    5  N2  UNL     1      21.736   4.025  50.985  1.00  0.00    -0.241 NA
HETATM    6  C6  UNL     1      22.377   2.970  51.446  1.00  0.00     0.164 C 
HETATM    7  N3  UNL     1      22.217   1.752  52.233  1.00  0.00    -0.181 NA
HETATM    8  C14 UNL     1      21.774   0.604  51.725  1.00  0.00     0.298 C 
HETATM    9  O2  UNL     1      21.470   0.688  50.343  1.00  0.00    -0.220 OA
HETATM   10  C20 UNL     1      20.454   1.500  49.923  1.00  0.00     0.371 C 
HETATM   11  O3  UNL     1      20.313   1.584  51.163  1.00  0.00    -0.238 OA
ENDROOT
BRANCH   6  12
HETATM   12  C7  UNL     1      23.775   3.120  50.985  1.00  0.00     0.018 A 
HETATM   13  C8  UNL     1      24.070   3.423  49.648  1.00  0.00     0.016 A 
HETATM   14  C9  UNL     1      25.301   3.588  49.086  1.00  0.00     0.001 A 
HETATM   15  C10 UNL     1      26.402   3.448  49.892  1.00  0.00     0.001 A 
HETATM   16  C11 UNL     1      26.204   3.152  51.215  1.00  0.00     0.007 A 
HETATM   17  C12 UNL     1      24.945   2.992  51.746  1.00  0.00    -0.048 A 
HETATM   18  C13 UNL     1      24.778   2.666  53.168  1.00  0.00     0.049 C 
ENDBRANCH   6  12
BRANCH   8  19
HETATM   19  O1  UNL     1      21.692  -0.443  52.629  1.00  0.00    -0.309 OA
BRANCH  19  20
HETATM   20  C15 UNL     1      22.512  -0.473  53.732  1.00  0.00     0.132 C 
HETATM   21  C16 UNL     1      22.068  -1.615  54.621  1.00  0.00     0.032 C 
HETATM   22  C17 UNL     1      23.180  -1.589  55.675  1.00  0.00     0.002 C 
HETATM   23  C18 UNL     1      24.395  -1.036  54.954  1.00  0.00     0.002 C 
HETATM   24  C19 UNL     1      23.944  -0.838  53.502  1.00  0.00     0.032 C 
ENDBRANCH  19  20
ENDBRANCH   8  19
BRANCH   1  25
HETATM   25  C2  UNL     1      19.310   2.550  48.240  1.00  0.00     0.124 C 
HETATM   26  C1  UNL     1      20.628   2.932  47.625  1.00  0.00     0.026 C 
ENDBRANCH   1  25
TORSDOF 4
ENDMDL
MODEL 9
REMARK VINA RESULT:      -7.0      2.546      5.587
REMARK  4 active torsions:
REMARK  status: ('A' for Active; 'I' for Inactive)
REMARK    1  A    between atoms: C2_2  and  N1_3 
REMARK    2  A    between atoms: C6_8  and  C7_9 
REMARK    3  A    between atoms: C14_17  and  O1_18 
REMARK    4  A    between atoms: O1_18  and  C15_19 
ROOT
HETATM    1  N1  UNL     1      22.173   6.006  48.961  1.00  0.00    -0.325 N 
HETATM    2  C3  UNL     1      21.939   7.445  49.307  1.00  0.00     0.157 C 
HETATM    3  C4  UNL     1      22.988   7.753  50.380  1.00  0.00     0.012 C 
HETATM    4  C5  UNL     1      23.729   6.769  50.939  1.00  0.00     0.116 C 
HETATM    5  N2  UNL     1      24.288   5.515  51.275  1.00  0.00    -0.241 NA
HETATM    6  C6  UNL     1      23.613   4.538  51.846  1.00  0.00     0.164 C 
HETATM    7  N3  UNL     1      22.304   4.168  52.372  1.00  0.00    -0.181 NA
HETATM    8  C14 UNL     1      21.316   3.699  51.615  1.00  0.00     0.298 C 
HETATM    9  O2  UNL     1      21.664   3.599  50.245  1.00  0.00    -0.220 OA
HETATM   10  C20 UNL     1      21.942   4.733  49.533  1.00  0.00     0.371 C 
HETATM   11  O3  UNL     1      21.550   5.231  50.612  1.00  0.00    -0.238 OA
ENDROOT
BRANCH   6  12
HETATM   12  C7  UNL     1      24.580   3.429  52.008  1.00  0.00     0.018 A 
HETATM   13  C8  UNL     1      24.793   2.829  53.257  1.00  0.00     0.016 A 
HETATM   14  C9  UNL     1      25.646   1.808  53.553  1.00  0.00     0.001 A 
HETATM   15  C10 UNL     1      26.399   1.281  52.534  1.00  0.00     0.001 A 
HETATM   16  C11 UNL     1      26.252   1.809  51.279  1.00  0.00     0.007 A 
HETATM   17  C12 UNL     1      25.380   2.841  51.019  1.00  0.00    -0.048 A 
HETATM   18  C13 UNL     1      25.260   3.384  49.660  1.00  0.00     0.049 C 
ENDBRANCH   6  12
BRANCH   8  19
HETATM   19  O1  UNL     1      20.146   3.401  52.296  1.00  0.00    -0.309 OA
BRANCH  19  20
HETATM   20  C15 UNL     1      19.836   2.098  52.606  1.00  0.00     0.132 C 
HETATM   21  C16 UNL     1      19.079   1.502  51.439  1.00  0.00     0.032 C 
HETATM   22  C17 UNL     1      18.980   0.041  51.893  1.00  0.00     0.002 C 
HETATM   23  C18 UNL     1      20.199  -0.181  52.768  1.00  0.00     0.002 C 
HETATM   24  C19 UNL     1      20.978   1.138  52.717  1.00  0.00     0.032 C 
ENDBRANCH  19  20
ENDBRANCH   8  19
BRANCH   1  25
HETATM   25  C2  UNL     1      22.744   5.755  47.648  1.00  0.00     0.124 C 
HETATM   26  C1  UNL     1      22.875   6.987  46.796  1.00  0.00     0.026 C 
ENDBRANCH   1  25
TORSDOF 4
ENDMDL
