MODEL 1
REMARK VINA RESULT:      -8.5      0.000      0.000
REMARK  5 active torsions:
REMARK  status: ('A' for Active; 'I' for Inactive)
REMARK    1  A    between atoms: O1_2  and  C2_3 
REMARK    2  A    between atoms: C7_9  and  C8_10 
REMARK    3  A    between atoms: C7_9  and  N2_12 
REMARK    4  A    between atoms: C8_10  and  N1_11 
REMARK    5  A    between atoms: C16_20  and  N3_21 
ROOT
HETATM    1  C2  UNL     1      28.147   6.555  48.140  1.00  0.00     0.067 A 
HETATM    2  C3  UNL     1      27.126   7.040  48.854  1.00  0.00     0.046 A 
HETATM    3  C4  UNL     1      26.341   5.943  49.474  1.00  0.00     0.178 A 
HETATM    4  O2  UNL     1      25.063   5.813  48.978  1.00  0.00    -0.372 OA
HETATM    5  C5  UNL     1      24.170   5.300  49.878  1.00  0.00     0.227 C 
HETATM    6  C6  UNL     1      24.686   4.088  50.614  1.00  0.00     0.053 C 
HETATM    7  C7  UNL     1      24.102   3.960  51.779  1.00  0.00     0.060 C 
HETATM    8  N4  UNL     1      25.661   3.168  50.173  1.00  0.00    -0.386 N 
HETATM    9  C20 UNL     1      26.766   3.297  49.284  1.00  0.00     0.157 C 
HETATM   10  C21 UNL     1      27.073   4.722  48.999  1.00  0.00    -0.027 A 
HETATM   11  C22 UNL     1      28.112   5.078  48.233  1.00  0.00     0.044 A 
HETATM   12  H25 UNL     1      25.527   2.231  50.581  1.00  0.00     0.159 HD
ENDROOT
BRANCH   7  13
HETATM   13  C8  UNL     1      23.114   4.519  52.712  1.00  0.00     0.325 C 
BRANCH  13  14
HETATM   14  N1  UNL     1      23.736   5.413  53.657  1.00  0.00     0.083 N 
HETATM   15  H10 UNL     1      24.494   5.960  53.242  1.00  0.00     0.313 HD
HETATM   16  H11 UNL     1      23.010   6.038  54.029  1.00  0.00     0.313 HD
ENDBRANCH  13  14
ENDBRANCH   7  13
BRANCH   7  17
HETATM   17  N2  UNL     1      24.561   2.835  52.527  1.00  0.00    -0.369 N 
HETATM   18  C9  UNL     1      25.953   2.587  52.947  1.00  0.00     0.151 C 
HETATM   19  C10 UNL     1      25.989   1.548  54.046  1.00  0.00    -0.000 C 
HETATM   20  C11 UNL     1      25.219   0.473  53.955  1.00  0.00    -0.058 C 
HETATM   21  C12 UNL     1      24.991  -0.712  54.743  1.00  0.00     0.007 C 
HETATM   22  C19 UNL     1      24.352   0.522  52.703  1.00  0.00     0.067 C 
HETATM   23  C13 UNL     1      23.816  -1.261  54.883  1.00  0.00     0.001 C 
HETATM   24  C14 UNL     1      22.434  -1.071  54.466  1.00  0.00     0.002 C 
HETATM   25  C15 UNL     1      21.624  -0.295  53.781  1.00  0.00     0.029 C 
HETATM   26  C16 UNL     1      21.554   0.880  53.000  1.00  0.00     0.023 C 
HETATM   27  C17 UNL     1      22.262   1.878  52.537  1.00  0.00     0.027 C 
HETATM   28  C18 UNL     1      23.632   1.830  52.941  1.00  0.00     0.114 C 
BRANCH  26  29
HETATM   29  N3  UNL     1      20.271   1.219  52.437  1.00  0.00    -0.399 N 
HETATM   30  H19 UNL     1      19.357   1.449  52.039  1.00  0.00     0.156 HD
HETATM   31  H20 UNL     1      19.810   2.084  52.055  1.00  0.00     0.156 HD
ENDBRANCH  26  29
ENDBRANCH   7  17
BRANCH   1  32
HETATM   32  O1  UNL     1      29.163   7.130  47.379  1.00  0.00    -0.356 OA
HETATM   33  C1  UNL     1      30.439   7.321  48.012  1.00  0.00     0.210 C 
ENDBRANCH   1  32
TORSDOF 5
ENDMDL
MODEL 2
REMARK VINA RESULT:      -8.4      3.032      6.873
REMARK  5 active torsions:
REMARK  status: ('A' for Active; 'I' for Inactive)
REMARK    1  A    between atoms: O1_2  and  C2_3 
REMARK    2  A    between atoms: C7_9  and  C8_10 
REMARK    3  A    between atoms: C7_9  and  N2_12 
REMARK    4  A    between atoms: C8_10  and  N1_11 
REMARK    5  A    between atoms: C16_20  and  N3_21 
ROOT
HETATM    1  C2  UNL     1      27.410  -0.577  53.425  1.00  0.00     0.067 A 
HETATM    2  C3  UNL     1      26.361  -0.943  52.681  1.00  0.00     0.046 A 
HETATM    3  C4  UNL     1      25.346   0.138  52.625  1.00  0.00     0.178 A 
HETATM    4  O2  UNL     1      24.160  -0.168  53.253  1.00  0.00    -0.372 OA
HETATM    5  C5  UNL     1      23.071   0.467  52.721  1.00  0.00     0.227 C 
HETATM    6  C6  UNL     1      23.293   1.940  52.478  1.00  0.00     0.053 C 
HETATM    7  C7  UNL     1      22.515   2.381  51.522  1.00  0.00     0.060 C 
HETATM    8  N4  UNL     1      24.193   2.793  53.149  1.00  0.00    -0.386 N 
HETATM    9  C20 UNL     1      25.435   2.551  53.803  1.00  0.00     0.157 C 
HETATM   10  C21 UNL     1      25.973   1.208  53.470  1.00  0.00    -0.027 A 
HETATM   11  C22 UNL     1      27.161   0.793  53.928  1.00  0.00     0.044 A 
HETATM   12  H25 UNL     1      23.870   3.772  53.160  1.00  0.00     0.159 HD
ENDROOT
BRANCH   7  13
HETATM   13  C8  UNL     1      21.473   2.037  50.544  1.00  0.00     0.325 C 
BRANCH  13  14
HETATM   14  N1  UNL     1      22.039   1.402  49.380  1.00  0.00     0.083 N 
HETATM   15  H10 UNL     1      21.776   0.417  49.299  1.00  0.00     0.313 HD
HETATM   16  H11 UNL     1      21.725   1.921  48.550  1.00  0.00     0.313 HD
ENDBRANCH  13  14
ENDBRANCH   7  13
BRANCH   7  17
HETATM   17  N2  UNL     1      22.691   3.768  51.238  1.00  0.00    -0.369 N 
HETATM   18  C9  UNL     1      21.730   4.843  51.551  1.00  0.00     0.151 C 
HETATM   19  C10 UNL     1      22.416   6.191  51.488  1.00  0.00    -0.000 C 
HETATM   20  C11 UNL     1      23.260   6.449  50.499  1.00  0.00    -0.058 C 
HETATM   21  C12 UNL     1      24.061   7.572  50.082  1.00  0.00     0.007 C 
HETATM   22  C19 UNL     1      23.425   5.239  49.588  1.00  0.00     0.067 C 
HETATM   23  C13 UNL     1      25.253   7.447  49.569  1.00  0.00     0.001 C 
HETATM   24  C14 UNL     1      26.218   6.416  49.216  1.00  0.00     0.002 C 
HETATM   25  C15 UNL     1      26.446   5.122  49.222  1.00  0.00     0.029 C 
HETATM   26  C16 UNL     1      25.908   3.867  49.586  1.00  0.00     0.023 C 
HETATM   27  C17 UNL     1      24.880   3.289  50.151  1.00  0.00     0.027 C 
HETATM   28  C18 UNL     1      23.890   4.217  50.600  1.00  0.00     0.114 C 
BRANCH  26  29
HETATM   29  N3  UNL     1      26.691   2.700  49.266  1.00  0.00    -0.399 N 
HETATM   30  H19 UNL     1      27.241   1.870  49.031  1.00  0.00     0.156 HD
HETATM   31  H20 UNL     1      27.466   2.153  49.722  1.00  0.00     0.156 HD
ENDBRANCH  26  29
ENDBRANCH   7  17
BRANCH   1  32
HETATM   32  O1  UNL     1      28.604  -1.193  53.794  1.00  0.00    -0.356 OA
HETATM   33  C1  UNL     1      29.804  -0.405  53.733  1.00  0.00     0.210 C 
ENDBRANCH   1  32
TORSDOF 5
ENDMDL
MODEL 3
REMARK VINA RESULT:      -8.3      1.954      2.575
REMARK  5 active torsions:
REMARK  status: ('A' for Active; 'I' for Inactive)
REMARK    1  A    between atoms: O1_2  and  C2_3 
REMARK    2  A    between atoms: C7_9  and  C8_10 
REMARK    3  A    between atoms: C7_9  and  N2_12 
REMARK    4  A    between atoms: C8_10  and  N1_11 
REMARK    5  A    between atoms: C16_20  and  N3_21 
ROOT
HETATM    1  C2  UNL     1      29.073   7.302  48.277  1.00  0.00     0.067 A 
HETATM    2  C3  UNL     1      27.910   7.931  48.479  1.00  0.00     0.046 A 
HETATM    3  C4  UNL     1      26.822   6.960  48.757  1.00  0.00     0.178 A 
HETATM    4  O2  UNL     1      25.856   6.900  47.778  1.00  0.00    -0.372 OA
HETATM    5  C5  UNL     1      24.620   6.542  48.242  1.00  0.00     0.227 C 
HETATM    6  C6  UNL     1      24.648   5.355  49.173  1.00  0.00     0.053 C 
HETATM    7  C7  UNL     1      23.625   5.374  49.991  1.00  0.00     0.060 C 
HETATM    8  N4  UNL     1      25.607   4.322  49.217  1.00  0.00    -0.386 N 
HETATM    9  C20 UNL     1      26.986   4.281  48.867  1.00  0.00     0.157 C 
HETATM   10  C21 UNL     1      27.542   5.645  48.680  1.00  0.00    -0.027 A 
HETATM   11  C22 UNL     1      28.837   5.847  48.405  1.00  0.00     0.044 A 
HETATM   12  H25 UNL     1      25.212   3.436  49.568  1.00  0.00     0.159 HD
ENDROOT
BRANCH   7  13
HETATM   13  C8  UNL     1      22.410   6.092  50.404  1.00  0.00     0.325 C 
BRANCH  13  14
HETATM   14  N1  UNL     1      22.732   7.242  51.211  1.00  0.00     0.083 N 
HETATM   15  H10 UNL     1      22.882   8.087  50.654  1.00  0.00     0.313 HD
HETATM   16  H11 UNL     1      21.963   7.389  51.877  1.00  0.00     0.313 HD
ENDBRANCH  13  14
ENDBRANCH   7  13
BRANCH   7  17
HETATM   17  N2  UNL     1      23.606   4.281  50.907  1.00  0.00    -0.369 N 
HETATM   18  C9  UNL     1      24.402   4.175  52.144  1.00  0.00     0.151 C 
HETATM   19  C10 UNL     1      23.827   3.104  53.045  1.00  0.00    -0.000 C 
HETATM   20  C11 UNL     1      23.429   1.953  52.521  1.00  0.00    -0.058 C 
HETATM   21  C12 UNL     1      22.876   0.719  53.020  1.00  0.00     0.007 C 
HETATM   22  C19 UNL     1      23.593   1.954  51.007  1.00  0.00     0.067 C 
HETATM   23  C13 UNL     1      21.967   0.036  52.383  1.00  0.00     0.001 C 
HETATM   24  C14 UNL     1      21.183   0.084  51.157  1.00  0.00     0.002 C 
HETATM   25  C15 UNL     1      20.937   0.790  50.076  1.00  0.00     0.029 C 
HETATM   26  C16 UNL     1      21.264   1.979  49.387  1.00  0.00     0.023 C 
HETATM   27  C17 UNL     1      21.984   3.069  49.456  1.00  0.00     0.027 C 
HETATM   28  C18 UNL     1      22.752   3.161  50.658  1.00  0.00     0.114 C 
BRANCH  26  29
HETATM   29  N3  UNL     1      20.632   2.192  48.109  1.00  0.00    -0.399 N 
HETATM   30  H19 UNL     1      20.180   2.353  47.206  1.00  0.00     0.156 HD
HETATM   31  H20 UNL     1      20.565   1.674  47.196  1.00  0.00     0.156 HD
ENDBRANCH  26  29
ENDBRANCH   7  17
BRANCH   1  32
HETATM   32  O1  UNL     1      30.370   7.722  47.988  1.00  0.00    -0.356 OA
HETATM   33  C1  UNL     1      31.199   8.123  49.092  1.00  0.00     0.210 C 
ENDBRANCH   1  32
TORSDOF 5
ENDMDL
MODEL 4
REMARK VINA RESULT:      -8.3      3.144      4.363
REMARK  5 active torsions:
REMARK  status: ('A' for Active; 'I' for Inactive)
REMARK    1  A    between atoms: O1_2  and  C2_3 
REMARK    2  A    between atoms: C7_9  and  C8_10 
REMARK    3  A    between atoms: C7_9  and  N2_12 
REMARK    4  A    between atoms: C8_10  and  N1_11 
REMARK    5  A    between atoms: C16_20  and  N3_21 
ROOT
HETATM    1  C2  UNL     1      21.483   4.929  45.530  1.00  0.00     0.067 A 
HETATM    2  C3  UNL     1      21.467   5.705  46.620  1.00  0.00     0.046 A 
HETATM    3  C4  UNL     1      21.889   4.943  47.821  1.00  0.00     0.178 A 
HETATM    4  O2  UNL     1      20.892   4.760  48.753  1.00  0.00    -0.372 OA
HETATM    5  C5  UNL     1      21.348   4.648  50.038  1.00  0.00     0.227 C 
HETATM    6  C6  UNL     1      22.523   3.712  50.180  1.00  0.00     0.053 C 
HETATM    7  C7  UNL     1      23.252   4.025  51.222  1.00  0.00     0.060 C 
HETATM    8  N4  UNL     1      22.857   2.622  49.348  1.00  0.00    -0.386 N 
HETATM    9  C20 UNL     1      22.610   2.359  47.971  1.00  0.00     0.157 C 
HETATM   10  C21 UNL     1      22.154   3.578  47.256  1.00  0.00    -0.027 A 
HETATM   11  C22 UNL     1      21.921   3.575  45.937  1.00  0.00     0.044 A 
HETATM   12  H25 UNL     1      23.374   1.887  49.854  1.00  0.00     0.159 HD
ENDROOT
BRANCH   7  13
HETATM   13  C8  UNL     1      23.418   4.941  52.360  1.00  0.00     0.325 C 
BRANCH  13  14
HETATM   14  N1  UNL     1      24.012   6.186  51.945  1.00  0.00     0.083 N 
HETATM   15  H10 UNL     1      24.643   6.077  51.147  1.00  0.00     0.313 HD
HETATM   16  H11 UNL     1      23.254   6.838  51.709  1.00  0.00     0.313 HD
ENDBRANCH  13  14
ENDBRANCH   7  13
BRANCH   7  17
HETATM   17  N2  UNL     1      24.387   3.180  51.399  1.00  0.00    -0.369 N 
HETATM   18  C9  UNL     1      25.721   3.388  50.804  1.00  0.00     0.151 C 
HETATM   19  C10 UNL     1      26.752   2.550  51.528  1.00  0.00    -0.000 C 
HETATM   20  C11 UNL     1      26.463   1.300  51.859  1.00  0.00    -0.058 C 
HETATM   21  C12 UNL     1      27.151   0.209  52.503  1.00  0.00     0.007 C 
HETATM   22  C19 UNL     1      25.035   0.944  51.466  1.00  0.00     0.067 C 
HETATM   23  C13 UNL     1      26.563  -0.625  53.315  1.00  0.00     0.001 C 
HETATM   24  C14 UNL     1      25.256  -0.885  53.901  1.00  0.00     0.002 C 
HETATM   25  C15 UNL     1      24.014  -0.462  53.967  1.00  0.00     0.029 C 
HETATM   26  C16 UNL     1      23.120   0.536  53.519  1.00  0.00     0.023 C 
HETATM   27  C17 UNL     1      23.037   1.625  52.799  1.00  0.00     0.027 C 
HETATM   28  C18 UNL     1      24.285   2.016  52.224  1.00  0.00     0.114 C 
BRANCH  26  29
HETATM   29  N3  UNL     1      21.747   0.427  53.944  1.00  0.00    -0.399 N 
HETATM   30  H19 UNL     1      20.774   0.339  54.249  1.00  0.00     0.156 HD
HETATM   31  H20 UNL     1      20.891   1.038  53.921  1.00  0.00     0.156 HD
ENDBRANCH  26  29
ENDBRANCH   7  17
BRANCH   1  32
HETATM   32  O1  UNL     1      21.186   5.134  44.184  1.00  0.00    -0.356 OA
HETATM   33  C1  UNL     1      20.434   4.114  43.508  1.00  0.00     0.210 C 
ENDBRANCH   1  32
TORSDOF 5
ENDMDL
MODEL 5
REMARK VINA RESULT:      -8.3      3.575      6.803
REMARK  5 active torsions:
REMARK  status: ('A' for Active; 'I' for Inactive)
REMARK    1  A    between atoms: O1_2  and  C2_3 
REMARK    2  A    between atoms: C7_9  and  C8_10 
REMARK    3  A    between atoms: C7_9  and  N2_12 
REMARK    4  A    between atoms: C8_10  and  N1_11 
REMARK    5  A    between atoms: C16_20  and  N3_21 
ROOT
HETATM    1  C2  UNL     1      27.404  -0.049  53.895  1.00  0.00     0.067 A 
HETATM    2  C3  UNL     1      26.239   0.360  54.412  1.00  0.00     0.046 A 
HETATM    3  C4  UNL     1      25.529   1.264  53.473  1.00  0.00     0.178 A 
HETATM    4  O2  UNL     1      25.418   2.563  53.915  1.00  0.00    -0.372 OA
HETATM    5  C5  UNL     1      24.315   3.217  53.440  1.00  0.00     0.227 C 
HETATM    6  C6  UNL     1      24.100   3.036  51.957  1.00  0.00     0.053 C 
HETATM    7  C7  UNL     1      22.837   3.178  51.643  1.00  0.00     0.060 C 
HETATM    8  N4  UNL     1      25.076   2.754  50.978  1.00  0.00    -0.386 N 
HETATM    9  C20 UNL     1      26.328   2.079  51.041  1.00  0.00     0.157 C 
HETATM   10  C21 UNL     1      26.477   1.324  52.311  1.00  0.00    -0.027 A 
HETATM   11  C22 UNL     1      27.553   0.567  52.558  1.00  0.00     0.044 A 
HETATM   12  H25 UNL     1      24.815   3.117  50.049  1.00  0.00     0.159 HD
ENDROOT
BRANCH   7  13
HETATM   13  C8  UNL     1      21.482   3.451  52.143  1.00  0.00     0.325 C 
BRANCH  13  14
HETATM   14  N1  UNL     1      20.878   2.262  52.690  1.00  0.00     0.083 N 
HETATM   15  H10 UNL     1      21.060   2.151  53.690  1.00  0.00     0.313 HD
HETATM   16  H11 UNL     1      19.865   2.311  52.519  1.00  0.00     0.313 HD
ENDBRANCH  13  14
ENDBRANCH   7  13
BRANCH   7  17
HETATM   17  N2  UNL     1      22.571   3.004  50.252  1.00  0.00    -0.369 N 
HETATM   18  C9  UNL     1      22.311   1.719  49.576  1.00  0.00     0.151 C 
HETATM   19  C10 UNL     1      21.676   1.959  48.224  1.00  0.00    -0.000 C 
HETATM   20  C11 UNL     1      22.139   2.929  47.448  1.00  0.00    -0.058 C 
HETATM   21  C12 UNL     1      21.841   3.441  46.135  1.00  0.00     0.007 C 
HETATM   22  C19 UNL     1      23.260   3.697  48.138  1.00  0.00     0.067 C 
HETATM   23  C13 UNL     1      21.884   4.710  45.837  1.00  0.00     0.001 C 
HETATM   24  C14 UNL     1      22.164   5.997  46.456  1.00  0.00     0.002 C 
HETATM   25  C15 UNL     1      22.490   6.590  47.583  1.00  0.00     0.029 C 
HETATM   26  C16 UNL     1      22.778   6.372  48.948  1.00  0.00     0.023 C 
HETATM   27  C17 UNL     1      22.856   5.448  49.871  1.00  0.00     0.027 C 
HETATM   28  C18 UNL     1      22.535   4.142  49.387  1.00  0.00     0.114 C 
BRANCH  26  29
HETATM   29  N3  UNL     1      23.140   7.524  49.735  1.00  0.00    -0.399 N 
HETATM   30  H19 UNL     1      23.405   8.336  50.299  1.00  0.00     0.156 HD
HETATM   31  H20 UNL     1      22.848   8.534  49.789  1.00  0.00     0.156 HD
ENDBRANCH  26  29
ENDBRANCH   7  17
BRANCH   1  32
HETATM   32  O1  UNL     1      28.429  -0.880  54.342  1.00  0.00    -0.356 OA
HETATM   33  C1  UNL     1      29.691  -0.801  53.661  1.00  0.00     0.210 C 
ENDBRANCH   1  32
TORSDOF 5
ENDMDL
MODEL 6
REMARK VINA RESULT:      -8.1      3.352      5.352
REMARK  5 active torsions:
REMARK  status: ('A' for Active; 'I' for Inactive)
REMARK    1  A    between atoms: O1_2  and  C2_3 
REMARK    2  A    between atoms: C7_9  and  C8_10 
REMARK    3  A    between atoms: C7_9  and  N2_12 
REMARK    4  A    between atoms: C8_10  and  N1_11 
REMARK    5  A    between atoms: C16_20  and  N3_21 
ROOT
HETATM    1  C2  UNL     1      28.537   0.972  53.599  1.00  0.00     0.067 A 
HETATM    2  C3  UNL     1      27.941   2.158  53.433  1.00  0.00     0.046 A 
HETATM    3  C4  UNL     1      26.568   1.992  52.893  1.00  0.00     0.178 A 
HETATM    4  O2  UNL     1      26.401   2.479  51.616  1.00  0.00    -0.372 OA
HETATM    5  C5  UNL     1      25.129   2.903  51.347  1.00  0.00     0.227 C 
HETATM    6  C6  UNL     1      24.064   1.932  51.795  1.00  0.00     0.053 C 
HETATM    7  C7  UNL     1      22.934   2.550  52.032  1.00  0.00     0.060 C 
HETATM    8  N4  UNL     1      24.190   0.537  51.957  1.00  0.00    -0.386 N 
HETATM    9  C20 UNL     1      25.303  -0.295  52.269  1.00  0.00     0.157 C 
HETATM   10  C21 UNL     1      26.456   0.501  52.763  1.00  0.00    -0.027 A 
HETATM   11  C22 UNL     1      27.590  -0.082  53.171  1.00  0.00     0.044 A 
HETATM   12  H25 UNL     1      23.295   0.044  51.815  1.00  0.00     0.159 HD
ENDROOT
BRANCH   7  13
HETATM   13  C8  UNL     1      22.233   3.842  52.047  1.00  0.00     0.325 C 
BRANCH  13  14
HETATM   14  N1  UNL     1      22.883   4.778  52.929  1.00  0.00     0.083 N 
HETATM   15  H10 UNL     1      23.656   4.358  53.452  1.00  0.00     0.313 HD
HETATM   16  H11 UNL     1      23.226   5.564  52.362  1.00  0.00     0.313 HD
ENDBRANCH  13  14
ENDBRANCH   7  13
BRANCH   7  17
HETATM   17  N2  UNL     1      21.891   1.682  52.473  1.00  0.00    -0.369 N 
HETATM   18  C9  UNL     1      21.824   1.008  53.783  1.00  0.00     0.151 C 
HETATM   19  C10 UNL     1      20.416   0.521  54.049  1.00  0.00    -0.000 C 
HETATM   20  C11 UNL     1      19.729  -0.056  53.073  1.00  0.00    -0.058 C 
HETATM   21  C12 UNL     1      18.426  -0.655  52.932  1.00  0.00     0.007 C 
HETATM   22  C19 UNL     1      20.526  -0.071  51.775  1.00  0.00     0.067 C 
HETATM   23  C13 UNL     1      17.699  -0.538  51.856  1.00  0.00     0.001 C 
HETATM   24  C14 UNL     1      17.737   0.084  50.541  1.00  0.00     0.002 C 
HETATM   25  C15 UNL     1      18.452   0.842  49.740  1.00  0.00     0.029 C 
HETATM   26  C16 UNL     1      19.659   1.568  49.628  1.00  0.00     0.023 C 
HETATM   27  C17 UNL     1      20.741   1.915  50.277  1.00  0.00     0.027 C 
HETATM   28  C18 UNL     1      20.781   1.410  51.613  1.00  0.00     0.114 C 
BRANCH  26  29
HETATM   29  N3  UNL     1      19.919   2.218  48.368  1.00  0.00    -0.399 N 
HETATM   30  H19 UNL     1      20.097   2.674  47.469  1.00  0.00     0.156 HD
HETATM   31  H20 UNL     1      20.529   3.006  48.028  1.00  0.00     0.156 HD
ENDBRANCH  26  29
ENDBRANCH   7  17
BRANCH   1  32
HETATM   32  O1  UNL     1      29.788   0.567  54.061  1.00  0.00    -0.356 OA
HETATM   33  C1  UNL     1      30.169  -0.799  53.833  1.00  0.00     0.210 C 
ENDBRANCH   1  32
TORSDOF 5
ENDMDL
MODEL 7
REMARK VINA RESULT:      -8.0      3.499      5.903
REMARK  5 active torsions:
REMARK  status: ('A' for Active; 'I' for Inactive)
REMARK    1  A    between atoms: O1_2  and  C2_3 
REMARK    2  A    between atoms: C7_9  and  C8_10 
REMARK    3  A    between atoms: C7_9  and  N2_12 
REMARK    4  A    between atoms: C8_10  and  N1_11 
REMARK    5  A    between atoms: C16_20  and  N3_21 
ROOT
HETATM    1  C2  UNL     1      28.147   0.839  53.757  1.00  0.00     0.067 A 
HETATM    2  C3  UNL     1      28.176   2.086  53.276  1.00  0.00     0.046 A 
HETATM    3  C4  UNL     1      26.971   2.368  52.456  1.00  0.00     0.178 A 
HETATM    4  O2  UNL     1      27.231   2.559  51.118  1.00  0.00    -0.372 OA
HETATM    5  C5  UNL     1      26.339   3.385  50.492  1.00  0.00     0.227 C 
HETATM    6  C6  UNL     1      24.899   3.070  50.816  1.00  0.00     0.053 C 
HETATM    7  C7  UNL     1      24.143   4.131  50.680  1.00  0.00     0.060 C 
HETATM    8  N4  UNL     1      24.361   1.827  51.213  1.00  0.00    -0.386 N 
HETATM    9  C20 UNL     1      24.926   0.717  51.903  1.00  0.00     0.157 C 
HETATM   10  C21 UNL     1      26.225   1.069  52.531  1.00  0.00    -0.027 A 
HETATM   11  C22 UNL     1      26.904   0.192  53.281  1.00  0.00     0.044 A 
HETATM   12  H25 UNL     1      23.373   1.723  50.939  1.00  0.00     0.159 HD
ENDROOT
BRANCH   7  13
HETATM   13  C8  UNL     1      24.100   5.558  50.331  1.00  0.00     0.325 C 
BRANCH  13  14
HETATM   14  N1  UNL     1      24.580   6.375  51.418  1.00  0.00     0.083 N 
HETATM   15  H10 UNL     1      25.238   5.879  52.024  1.00  0.00     0.313 HD
HETATM   16  H11 UNL     1      25.029   7.208  51.015  1.00  0.00     0.313 HD
ENDBRANCH  13  14
ENDBRANCH   7  13
BRANCH   7  17
HETATM   17  N2  UNL     1      22.769   3.896  50.987  1.00  0.00    -0.369 N 
HETATM   18  C9  UNL     1      22.170   3.908  52.335  1.00  0.00     0.151 C 
HETATM   19  C10 UNL     1      20.666   4.031  52.237  1.00  0.00    -0.000 C 
HETATM   20  C11 UNL     1      20.010   3.325  51.326  1.00  0.00    -0.058 C 
HETATM   21  C12 UNL     1      18.632   3.145  50.944  1.00  0.00     0.007 C 
HETATM   22  C19 UNL     1      20.970   2.512  50.466  1.00  0.00     0.067 C 
HETATM   23  C13 UNL     1      18.249   2.998  49.706  1.00  0.00     0.001 C 
HETATM   24  C14 UNL     1      18.802   2.948  48.361  1.00  0.00     0.002 C 
HETATM   25  C15 UNL     1      19.910   3.033  47.659  1.00  0.00     0.029 C 
HETATM   26  C16 UNL     1      21.305   3.239  47.744  1.00  0.00     0.023 C 
HETATM   27  C17 UNL     1      22.280   3.490  48.579  1.00  0.00     0.027 C 
HETATM   28  C18 UNL     1      21.842   3.626  49.932  1.00  0.00     0.114 C 
BRANCH  26  29
HETATM   29  N3  UNL     1      22.055   3.171  46.516  1.00  0.00    -0.399 N 
HETATM   30  H19 UNL     1      22.591   3.132  45.645  1.00  0.00     0.156 HD
HETATM   31  H20 UNL     1      22.229   2.452  45.767  1.00  0.00     0.156 HD
ENDBRANCH  26  29
ENDBRANCH   7  17
BRANCH   1  32
HETATM   32  O1  UNL     1      29.001   0.085  54.560  1.00  0.00    -0.356 OA
HETATM   33  C1  UNL     1      29.846  -0.878  53.908  1.00  0.00     0.210 C 
ENDBRANCH   1  32
TORSDOF 5
ENDMDL
MODEL 8
REMARK VINA RESULT:      -7.8      2.683      4.983
REMARK  5 active torsions:
REMARK  status: ('A' for Active; 'I' for Inactive)
REMARK    1  A    between atoms: O1_2  and  C2_3 
REMARK    2  A    between atoms: C7_9  and  C8_10 
REMARK    3  A    between atoms: C7_9  and  N2_12 
REMARK    4  A    between atoms: C8_10  and  N1_11 
REMARK    5  A    between atoms: C16_20  and  N3_21 
ROOT
HETATM    1  C2  UNL     1      21.314   8.760  48.982  1.00  0.00     0.067 A 
HETATM    2  C3  UNL     1      22.422   8.258  48.427  1.00  0.00     0.046 A 
HETATM    3  C4  UNL     1      22.978   7.156  49.252  1.00  0.00     0.178 A 
HETATM    4  O2  UNL     1      24.197   7.440  49.826  1.00  0.00    -0.372 OA
HETATM    5  C5  UNL     1      24.981   6.340  50.036  1.00  0.00     0.227 C 
HETATM    6  C6  UNL     1      24.241   5.185  50.667  1.00  0.00     0.053 C 
HETATM    7  C7  UNL     1      24.804   4.043  50.363  1.00  0.00     0.060 C 
HETATM    8  N4  UNL     1      23.095   5.248  51.487  1.00  0.00    -0.386 N 
HETATM    9  C20 UNL     1      22.026   6.185  51.569  1.00  0.00     0.157 C 
HETATM   10  C21 UNL     1      22.009   7.096  50.396  1.00  0.00    -0.027 A 
HETATM   11  C22 UNL     1      21.053   8.019  50.236  1.00  0.00     0.044 A 
HETATM   12  H25 UNL     1      23.043   4.457  52.147  1.00  0.00     0.159 HD
ENDROOT
BRANCH   7  13
HETATM   13  C8  UNL     1      25.897   3.379  49.638  1.00  0.00     0.325 C 
BRANCH  13  14
HETATM   14  N1  UNL     1      27.072   4.213  49.590  1.00  0.00     0.083 N 
HETATM   15  H10 UNL     1      27.904   3.745  49.960  1.00  0.00     0.313 HD
HETATM   16  H11 UNL     1      27.227   4.489  48.612  1.00  0.00     0.313 HD
ENDBRANCH  13  14
ENDBRANCH   7  13
BRANCH   7  17
HETATM   17  N2  UNL     1      24.138   2.912  50.922  1.00  0.00    -0.369 N 
HETATM   18  C9  UNL     1      22.828   2.382  50.497  1.00  0.00     0.151 C 
HETATM   19  C10 UNL     1      22.642   0.973  51.015  1.00  0.00    -0.000 C 
HETATM   20  C11 UNL     1      23.001   0.680  52.256  1.00  0.00    -0.058 C 
HETATM   21  C12 UNL     1      22.964  -0.487  53.102  1.00  0.00     0.007 C 
HETATM   22  C19 UNL     1      23.620   1.887  52.949  1.00  0.00     0.067 C 
HETATM   23  C13 UNL     1      23.907  -0.782  53.953  1.00  0.00     0.001 C 
HETATM   24  C14 UNL     1      25.188  -0.278  54.424  1.00  0.00     0.002 C 
HETATM   25  C15 UNL     1      26.080   0.675  54.272  1.00  0.00     0.029 C 
HETATM   26  C16 UNL     1      26.394   1.842  53.541  1.00  0.00     0.023 C 
HETATM   27  C17 UNL     1      25.977   2.621  52.576  1.00  0.00     0.027 C 
HETATM   28  C18 UNL     1      24.750   2.182  51.989  1.00  0.00     0.114 C 
BRANCH  26  29
HETATM   29  N3  UNL     1      27.608   2.534  53.897  1.00  0.00    -0.399 N 
HETATM   30  H19 UNL     1      28.475   3.016  54.147  1.00  0.00     0.156 HD
HETATM   31  H20 UNL     1      27.866   3.496  54.236  1.00  0.00     0.156 HD
ENDBRANCH  26  29
ENDBRANCH   7  17
BRANCH   1  32
HETATM   32  O1  UNL     1      20.424   9.774  48.634  1.00  0.00    -0.356 OA
HETATM   33  C1  UNL     1      19.263   9.951  49.461  1.00  0.00     0.210 C 
ENDBRANCH   1  32
TORSDOF 5
ENDMDL
MODEL 9
REMARK VINA RESULT:      -7.6      3.410      7.119
REMARK  5 active torsions:
REMARK  status: ('A' for Active; 'I' for Inactive)
REMARK    1  A    between atoms: O1_2  and  C2_3 
REMARK    2  A    between atoms: C7_9  and  C8_10 
REMARK    3  A    between atoms: C7_9  and  N2_12 
REMARK    4  A    between atoms: C8_10  and  N1_11 
REMARK    5  A    between atoms: C16_20  and  N3_21 
ROOT
HETATM    1  C2  UNL     1      26.386   0.345  53.934  1.00  0.00     0.067 A 
HETATM    2  C3  UNL     1      25.882  -0.071  52.767  1.00  0.00     0.046 A 
HETATM    3  C4  UNL     1      25.017   0.973  52.161  1.00  0.00     0.178 A 
HETATM    4  O2  UNL     1      23.685   0.634  52.096  1.00  0.00    -0.372 OA
HETATM    5  C5  UNL     1      23.014   1.221  51.059  1.00  0.00     0.227 C 
HETATM    6  C6  UNL     1      23.297   2.697  50.917  1.00  0.00     0.053 C 
HETATM    7  C7  UNL     1      23.115   3.095  49.683  1.00  0.00     0.060 C 
HETATM    8  N4  UNL     1      23.701   3.593  51.929  1.00  0.00    -0.386 N 
HETATM    9  C20 UNL     1      24.431   3.406  53.137  1.00  0.00     0.157 C 
HETATM   10  C21 UNL     1      25.094   2.077  53.174  1.00  0.00    -0.027 A 
HETATM   11  C22 UNL     1      25.883   1.712  54.191  1.00  0.00     0.044 A 
HETATM   12  H25 UNL     1      23.397   4.559  51.740  1.00  0.00     0.159 HD
ENDROOT
BRANCH   7  13
HETATM   13  C8  UNL     1      22.736   2.698  48.319  1.00  0.00     0.325 C 
BRANCH  13  14
HETATM   14  N1  UNL     1      21.552   1.877  48.325  1.00  0.00     0.083 N 
HETATM   15  H10 UNL     1      20.754   2.337  48.772  1.00  0.00     0.313 HD
HETATM   16  H11 UNL     1      21.323   1.640  47.351  1.00  0.00     0.313 HD
ENDBRANCH  13  14
ENDBRANCH   7  13
BRANCH   7  17
HETATM   17  N2  UNL     1      23.381   4.482  49.486  1.00  0.00    -0.369 N 
HETATM   18  C9  UNL     1      24.708   5.083  49.251  1.00  0.00     0.151 C 
HETATM   19  C10 UNL     1      24.556   6.479  48.686  1.00  0.00    -0.000 C 
HETATM   20  C11 UNL     1      23.642   7.293  49.194  1.00  0.00    -0.058 C 
HETATM   21  C12 UNL     1      23.218   8.652  48.966  1.00  0.00     0.007 C 
HETATM   22  C19 UNL     1      22.834   6.601  50.284  1.00  0.00     0.067 C 
HETATM   23  C13 UNL     1      21.972   9.031  49.031  1.00  0.00     0.001 C 
HETATM   24  C14 UNL     1      20.647   8.486  49.288  1.00  0.00     0.002 C 
HETATM   25  C15 UNL     1      19.981   7.386  49.562  1.00  0.00     0.029 C 
HETATM   26  C16 UNL     1      20.108   5.996  49.780  1.00  0.00     0.023 C 
HETATM   27  C17 UNL     1      20.969   5.011  49.805  1.00  0.00     0.027 C 
HETATM   28  C18 UNL     1      22.303   5.422  49.500  1.00  0.00     0.114 C 
BRANCH  26  29
HETATM   29  N3  UNL     1      18.907   5.271  50.110  1.00  0.00    -0.399 N 
HETATM   30  H19 UNL     1      18.051   4.765  50.349  1.00  0.00     0.156 HD
HETATM   31  H20 UNL     1      18.547   4.291  49.977  1.00  0.00     0.156 HD
ENDBRANCH  26  29
ENDBRANCH   7  17
BRANCH   1  32
HETATM   32  O1  UNL     1      27.232  -0.222  54.886  1.00  0.00    -0.356 OA
HETATM   33  C1  UNL     1      28.633   0.079  54.793  1.00  0.00     0.210 C 
ENDBRANCH   1  32
TORSDOF 5
ENDMDL
