MODEL 1
REMARK VINA RESULT:      -9.1      0.000      0.000
REMARK  5 active torsions:
REMARK  status: ('A' for Active; 'I' for Inactive)
REMARK       I    between atoms: C1_2  and  N1_3 
REMARK    1  A    between atoms: C1_2  and  C15_21 
REMARK    2  A    between atoms: N1_3  and  C2_4 
REMARK    3  A    between atoms: C7_11  and  N4_12 
REMARK    4  A    between atoms: C16_23  and  C17_24 
REMARK    5  A    between atoms: C17_24  and  N5_25 
ROOT
HETATM    1  C2  UNL     1      22.193   1.246  52.223  1.00  0.00     0.035 A 
HETATM    2  C3  UNL     1      21.163   0.458  52.662  1.00  0.00     0.032 A 
HETATM    3  C4  UNL     1      21.311  -0.487  53.641  1.00  0.00     0.035 A 
HETATM    4  C5  UNL     1      22.541  -0.684  54.237  1.00  0.00     0.072 A 
HETATM    5  N2  UNL     1      22.710  -1.608  55.215  1.00  0.00    -0.241 NA
HETATM    6  C6  UNL     1      23.965  -1.712  55.738  1.00  0.00     0.236 A 
HETATM    7  N3  UNL     1      25.020  -0.952  55.333  1.00  0.00    -0.223 NA
HETATM    8  C7  UNL     1      24.814  -0.032  54.348  1.00  0.00     0.144 A 
HETATM    9  C13 UNL     1      23.569   0.117  53.785  1.00  0.00     0.041 A 
HETATM   10  C14 UNL     1      23.427   1.072  52.800  1.00  0.00     0.047 A 
ENDROOT
BRANCH   1  11
HETATM   11  N1  UNL     1      22.159   2.243  51.233  1.00  0.00    -0.325 N 
HETATM   12  C1  UNL     1      21.625   3.526  51.283  1.00  0.00     0.254 C 
HETATM   13  O1  UNL     1      21.066   3.943  52.341  1.00  0.00    -0.270 OA
HETATM   14  H1  UNL     1      22.530   2.205  50.269  1.00  0.00     0.169 HD
BRANCH  12  15
HETATM   15  C15 UNL     1      21.318   4.815  50.712  1.00  0.00     0.244 A 
HETATM   16  O2  UNL     1      22.426   5.807  50.955  1.00  0.00    -0.364 OA
HETATM   17  C16 UNL     1      21.917   5.471  49.636  1.00  0.00     0.189 A 
BRANCH  17  18
HETATM   18  C17 UNL     1      22.997   4.993  48.734  1.00  0.00     0.307 C 
BRANCH  18  19
HETATM   19  N5  UNL     1      24.323   5.001  49.327  1.00  0.00     0.091 N 
HETATM   20  C18 UNL     1      25.134   5.914  48.573  1.00  0.00     0.272 C 
HETATM   21  C19 UNL     1      26.584   5.886  48.978  1.00  0.00     0.030 C 
HETATM   22  C20 UNL     1      27.138   4.476  48.976  1.00  0.00     0.003 C 
HETATM   23  C21 UNL     1      26.283   3.647  49.899  1.00  0.00     0.030 C 
HETATM   24  C22 UNL     1      24.888   3.668  49.373  1.00  0.00     0.272 C 
ENDBRANCH  18  19
ENDBRANCH  17  18
ENDBRANCH  12  15
ENDBRANCH   1  11
BRANCH   8  25
HETATM   25  N4  UNL     1      26.008   0.660  54.008  1.00  0.00    -0.336 N 
HETATM   26  C8  UNL     1      27.053  -0.329  53.899  1.00  0.00     0.112 A 
HETATM   27  C9  UNL     1      28.337  -0.055  53.609  1.00  0.00     0.026 A 
HETATM   28 BR1  UNL     1      29.754  -1.318  53.454  1.00  0.00    -0.050 Br
HETATM   29  C10 UNL     1      28.729   1.343  53.375  1.00  0.00     0.018 A 
HETATM   30  C11 UNL     1      27.727   2.199  53.481  1.00  0.00    -0.005 A 
HETATM   31  C12 UNL     1      26.284   2.055  53.789  1.00  0.00     0.157 A 
ENDBRANCH   8  25
TORSDOF 5
ENDMDL
MODEL 2
REMARK VINA RESULT:      -8.9      3.365      5.833
REMARK  5 active torsions:
REMARK  status: ('A' for Active; 'I' for Inactive)
REMARK       I    between atoms: C1_2  and  N1_3 
REMARK    1  A    between atoms: C1_2  and  C15_21 
REMARK    2  A    between atoms: N1_3  and  C2_4 
REMARK    3  A    between atoms: C7_11  and  N4_12 
REMARK    4  A    between atoms: C16_23  and  C17_24 
REMARK    5  A    between atoms: C17_24  and  N5_25 
ROOT
HETATM    1  C2  UNL     1      22.620  -0.358  53.090  1.00  0.00     0.035 A 
HETATM    2  C3  UNL     1      21.802  -0.942  54.020  1.00  0.00     0.032 A 
HETATM    3  C4  UNL     1      20.437  -0.953  53.912  1.00  0.00     0.035 A 
HETATM    4  C5  UNL     1      19.822  -0.358  52.830  1.00  0.00     0.072 A 
HETATM    5  N2  UNL     1      18.472  -0.363  52.696  1.00  0.00    -0.241 NA
HETATM    6  C6  UNL     1      17.972   0.248  51.585  1.00  0.00     0.236 A 
HETATM    7  N3  UNL     1      18.744   0.842  50.634  1.00  0.00    -0.223 NA
HETATM    8  C7  UNL     1      20.098   0.828  50.800  1.00  0.00     0.144 A 
HETATM    9  C13 UNL     1      20.657   0.227  51.902  1.00  0.00     0.041 A 
HETATM   10  C14 UNL     1      22.033   0.241  52.003  1.00  0.00     0.047 A 
ENDROOT
BRANCH   1  11
HETATM   11  N1  UNL     1      24.024  -0.287  53.095  1.00  0.00    -0.325 N 
HETATM   12  C1  UNL     1      24.856   0.813  53.279  1.00  0.00     0.254 C 
HETATM   13  O1  UNL     1      24.360   1.962  53.477  1.00  0.00    -0.270 OA
HETATM   14  H1  UNL     1      24.707  -1.050  52.961  1.00  0.00     0.169 HD
BRANCH  12  15
HETATM   15  C15 UNL     1      26.150   1.444  53.380  1.00  0.00     0.244 A 
HETATM   16  O2  UNL     1      27.210   0.654  52.657  1.00  0.00    -0.364 OA
HETATM   17  C16 UNL     1      26.917   2.052  52.385  1.00  0.00     0.189 A 
BRANCH  17  18
HETATM   18  C17 UNL     1      26.585   2.276  50.955  1.00  0.00     0.307 C 
BRANCH  18  19
HETATM   19  N5  UNL     1      26.261   3.653  50.621  1.00  0.00     0.091 N 
HETATM   20  C18 UNL     1      24.833   3.788  50.660  1.00  0.00     0.272 C 
HETATM   21  C19 UNL     1      24.355   5.127  50.163  1.00  0.00     0.030 C 
HETATM   22  C20 UNL     1      24.937   5.460  48.804  1.00  0.00     0.003 C 
HETATM   23  C21 UNL     1      26.438   5.410  48.923  1.00  0.00     0.030 C 
HETATM   24  C22 UNL     1      26.819   4.029  49.339  1.00  0.00     0.272 C 
ENDBRANCH  18  19
ENDBRANCH  17  18
ENDBRANCH  12  15
ENDBRANCH   1  11
BRANCH   8  25
HETATM   25  N4  UNL     1      20.769   1.514  49.751  1.00  0.00    -0.336 N 
HETATM   26  C8  UNL     1      20.505   2.922  49.930  1.00  0.00     0.112 A 
HETATM   27  C9  UNL     1      20.959   3.893  49.117  1.00  0.00     0.026 A 
HETATM   28 BR1  UNL     1      20.641   5.761  49.305  1.00  0.00    -0.050 Br
HETATM   29  C10 UNL     1      21.790   3.521  47.962  1.00  0.00     0.018 A 
HETATM   30  C11 UNL     1      22.001   2.220  47.858  1.00  0.00    -0.005 A 
HETATM   31  C12 UNL     1      21.579   1.046  48.658  1.00  0.00     0.157 A 
ENDBRANCH   8  25
TORSDOF 5
ENDMDL
MODEL 3
REMARK VINA RESULT:      -8.9      3.763      5.681
REMARK  5 active torsions:
REMARK  status: ('A' for Active; 'I' for Inactive)
REMARK       I    between atoms: C1_2  and  N1_3 
REMARK    1  A    between atoms: C1_2  and  C15_21 
REMARK    2  A    between atoms: N1_3  and  C2_4 
REMARK    3  A    between atoms: C7_11  and  N4_12 
REMARK    4  A    between atoms: C16_23  and  C17_24 
REMARK    5  A    between atoms: C17_24  and  N5_25 
ROOT
HETATM    1  C2  UNL     1      26.280   3.792  49.791  1.00  0.00     0.035 A 
HETATM    2  C3  UNL     1      24.986   3.906  49.358  1.00  0.00     0.032 A 
HETATM    3  C4  UNL     1      23.942   3.240  49.942  1.00  0.00     0.035 A 
HETATM    4  C5  UNL     1      24.166   2.406  51.019  1.00  0.00     0.072 A 
HETATM    5  N2  UNL     1      23.147   1.742  51.619  1.00  0.00    -0.241 NA
HETATM    6  C6  UNL     1      23.481   0.952  52.678  1.00  0.00     0.236 A 
HETATM    7  N3  UNL     1      24.753   0.806  53.144  1.00  0.00    -0.223 NA
HETATM    8  C7  UNL     1      25.753   1.489  52.517  1.00  0.00     0.144 A 
HETATM    9  C13 UNL     1      25.474   2.301  51.444  1.00  0.00     0.041 A 
HETATM   10  C14 UNL     1      26.531   2.970  50.861  1.00  0.00     0.047 A 
ENDROOT
BRANCH   1  11
HETATM   11  N1  UNL     1      27.424   4.424  49.274  1.00  0.00    -0.325 N 
HETATM   12  C1  UNL     1      27.532   5.596  48.531  1.00  0.00     0.254 C 
HETATM   13  O1  UNL     1      26.494   6.256  48.228  1.00  0.00    -0.270 OA
HETATM   14  H1  UNL     1      28.412   4.130  49.351  1.00  0.00     0.169 HD
BRANCH  12  15
HETATM   15  C15 UNL     1      28.281   6.604  47.821  1.00  0.00     0.244 A 
HETATM   16  O2  UNL     1      29.022   7.513  48.767  1.00  0.00    -0.364 OA
HETATM   17  C16 UNL     1      29.663   6.760  47.701  1.00  0.00     0.189 A 
BRANCH  17  18
HETATM   18  C17 UNL     1      30.749   5.888  48.218  1.00  0.00     0.307 C 
BRANCH  18  19
HETATM   19  N5  UNL     1      31.790   5.585  47.251  1.00  0.00     0.091 N 
HETATM   20  C18 UNL     1      31.742   4.176  46.984  1.00  0.00     0.272 C 
HETATM   21  C19 UNL     1      32.884   3.701  46.125  1.00  0.00     0.030 C 
HETATM   22  C20 UNL     1      34.223   4.144  46.679  1.00  0.00     0.003 C 
HETATM   23  C21 UNL     1      34.196   5.647  46.793  1.00  0.00     0.030 C 
HETATM   24  C22 UNL     1      33.090   6.015  47.723  1.00  0.00     0.272 C 
ENDBRANCH  18  19
ENDBRANCH  17  18
ENDBRANCH  12  15
ENDBRANCH   1  11
BRANCH   8  25
HETATM   25  N4  UNL     1      27.025   1.213  53.088  1.00  0.00    -0.336 N 
HETATM   26  C8  UNL     1      27.282  -0.193  52.889  1.00  0.00     0.112 A 
HETATM   27  C9  UNL     1      28.385  -0.835  53.313  1.00  0.00     0.026 A 
HETATM   28 BR1  UNL     1      28.773  -2.685  53.079  1.00  0.00    -0.050 Br
HETATM   29  C10 UNL     1      29.420  -0.073  54.026  1.00  0.00     0.018 A 
HETATM   30  C11 UNL     1      29.130   1.209  54.169  1.00  0.00    -0.005 A 
HETATM   31  C12 UNL     1      27.978   2.051  53.766  1.00  0.00     0.157 A 
ENDBRANCH   8  25
TORSDOF 5
ENDMDL
MODEL 4
REMARK VINA RESULT:      -8.7      1.877      2.242
REMARK  5 active torsions:
REMARK  status: ('A' for Active; 'I' for Inactive)
REMARK       I    between atoms: C1_2  and  N1_3 
REMARK    1  A    between atoms: C1_2  and  C15_21 
REMARK    2  A    between atoms: N1_3  and  C2_4 
REMARK    3  A    between atoms: C7_11  and  N4_12 
REMARK    4  A    between atoms: C16_23  and  C17_24 
REMARK    5  A    between atoms: C17_24  and  N5_25 
ROOT
HETATM    1  C2  UNL     1      20.651   0.934  51.838  1.00  0.00     0.035 A 
HETATM    2  C3  UNL     1      19.703   0.165  52.457  1.00  0.00     0.032 A 
HETATM    3  C4  UNL     1      19.991  -0.687  53.490  1.00  0.00     0.035 A 
HETATM    4  C5  UNL     1      21.286  -0.803  53.953  1.00  0.00     0.072 A 
HETATM    5  N2  UNL     1      21.595  -1.635  54.980  1.00  0.00    -0.241 NA
HETATM    6  C6  UNL     1      22.903  -1.664  55.361  1.00  0.00     0.236 A 
HETATM    7  N3  UNL     1      23.881  -0.919  54.775  1.00  0.00    -0.223 NA
HETATM    8  C7  UNL     1      23.535  -0.094  53.746  1.00  0.00     0.144 A 
HETATM    9  C13 UNL     1      22.230  -0.023  53.320  1.00  0.00     0.041 A 
HETATM   10  C14 UNL     1      21.947   0.839  52.280  1.00  0.00     0.047 A 
ENDROOT
BRANCH   1  11
HETATM   11  N1  UNL     1      20.473   1.840  50.777  1.00  0.00    -0.325 N 
HETATM   12  C1  UNL     1      20.855   1.731  49.444  1.00  0.00     0.254 C 
HETATM   13  O1  UNL     1      21.460   0.695  49.036  1.00  0.00    -0.270 OA
HETATM   14  H1  UNL     1      20.019   2.768  50.793  1.00  0.00     0.169 HD
BRANCH  12  15
HETATM   15  C15 UNL     1      20.952   2.219  48.090  1.00  0.00     0.244 A 
HETATM   16  O2  UNL     1      19.936   3.298  47.815  1.00  0.00    -0.364 OA
HETATM   17  C16 UNL     1      21.368   3.470  47.628  1.00  0.00     0.189 A 
BRANCH  17  18
HETATM   18  C17 UNL     1      21.890   4.625  48.402  1.00  0.00     0.307 C 
BRANCH  18  19
HETATM   19  N5  UNL     1      23.326   4.821  48.295  1.00  0.00     0.091 N 
HETATM   20  C18 UNL     1      23.957   3.968  49.261  1.00  0.00     0.272 C 
HETATM   21  C19 UNL     1      25.440   4.203  49.373  1.00  0.00     0.030 C 
HETATM   22  C20 UNL     1      25.760   5.668  49.590  1.00  0.00     0.003 C 
HETATM   23  C21 UNL     1      25.155   6.443  48.448  1.00  0.00     0.030 C 
HETATM   24  C22 UNL     1      23.681   6.214  48.469  1.00  0.00     0.272 C 
ENDBRANCH  18  19
ENDBRANCH  17  18
ENDBRANCH  12  15
ENDBRANCH   1  11
BRANCH   8  25
HETATM   25  N4  UNL     1      24.660   0.592  53.213  1.00  0.00    -0.336 N 
HETATM   26  C8  UNL     1      25.813  -0.246  53.441  1.00  0.00     0.112 A 
HETATM   27  C9  UNL     1      27.071   0.074  53.091  1.00  0.00     0.026 A 
HETATM   28 BR1  UNL     1      28.626  -0.991  53.369  1.00  0.00    -0.050 Br
HETATM   29  C10 UNL     1      27.316   1.360  52.421  1.00  0.00     0.018 A 
HETATM   30  C11 UNL     1      26.221   2.077  52.235  1.00  0.00    -0.005 A 
HETATM   31  C12 UNL     1      24.789   1.866  52.557  1.00  0.00     0.157 A 
ENDBRANCH   8  25
TORSDOF 5
ENDMDL
MODEL 5
REMARK VINA RESULT:      -8.6      3.453      8.030
REMARK  5 active torsions:
REMARK  status: ('A' for Active; 'I' for Inactive)
REMARK       I    between atoms: C1_2  and  N1_3 
REMARK    1  A    between atoms: C1_2  and  C15_21 
REMARK    2  A    between atoms: N1_3  and  C2_4 
REMARK    3  A    between atoms: C7_11  and  N4_12 
REMARK    4  A    between atoms: C16_23  and  C17_24 
REMARK    5  A    between atoms: C17_24  and  N5_25 
ROOT
HETATM    1  C2  UNL     1      24.766   3.805  50.964  1.00  0.00     0.035 A 
HETATM    2  C3  UNL     1      25.363   4.725  50.144  1.00  0.00     0.032 A 
HETATM    3  C4  UNL     1      24.779   5.190  48.996  1.00  0.00     0.035 A 
HETATM    4  C5  UNL     1      23.533   4.734  48.616  1.00  0.00     0.072 A 
HETATM    5  N2  UNL     1      22.931   5.186  47.488  1.00  0.00    -0.241 NA
HETATM    6  C6  UNL     1      21.698   4.673  47.213  1.00  0.00     0.236 A 
HETATM    7  N3  UNL     1      21.066   3.757  47.998  1.00  0.00    -0.223 NA
HETATM    8  C7  UNL     1      21.701   3.324  49.125  1.00  0.00     0.144 A 
HETATM    9  C13 UNL     1      22.945   3.808  49.451  1.00  0.00     0.041 A 
HETATM   10  C14 UNL     1      23.526   3.335  50.610  1.00  0.00     0.047 A 
ENDROOT
BRANCH   1  11
HETATM   11  N1  UNL     1      25.266   3.260  52.160  1.00  0.00    -0.325 N 
HETATM   12  C1  UNL     1      26.392   2.471  52.373  1.00  0.00     0.254 C 
HETATM   13  O1  UNL     1      27.136   2.146  51.401  1.00  0.00    -0.270 OA
HETATM   14  H1  UNL     1      24.882   3.346  53.115  1.00  0.00     0.169 HD
BRANCH  12  15
HETATM   15  C15 UNL     1      27.296   1.719  53.209  1.00  0.00     0.244 A 
HETATM   16  O2  UNL     1      26.714   1.478  54.578  1.00  0.00    -0.364 OA
HETATM   17  C16 UNL     1      27.173   0.417  53.697  1.00  0.00     0.189 A 
BRANCH  17  18
HETATM   18  C17 UNL     1      26.106  -0.582  53.435  1.00  0.00     0.307 C 
BRANCH  18  19
HETATM   19  N5  UNL     1      24.830  -0.278  54.058  1.00  0.00     0.091 N 
HETATM   20  C18 UNL     1      24.542  -1.323  54.999  1.00  0.00     0.272 C 
HETATM   21  C19 UNL     1      23.161  -1.219  55.591  1.00  0.00     0.030 C 
HETATM   22  C20 UNL     1      22.100  -1.092  54.517  1.00  0.00     0.003 C 
HETATM   23  C21 UNL     1      22.441   0.111  53.676  1.00  0.00     0.030 C 
HETATM   24  C22 UNL     1      23.784  -0.121  53.069  1.00  0.00     0.272 C 
ENDBRANCH  18  19
ENDBRANCH  17  18
ENDBRANCH  12  15
ENDBRANCH   1  11
BRANCH   8  25
HETATM   25  N4  UNL     1      20.939   2.348  49.822  1.00  0.00    -0.336 N 
HETATM   26  C8  UNL     1      19.718   2.990  50.249  1.00  0.00     0.112 A 
HETATM   27  C9  UNL     1      18.747   2.388  50.958  1.00  0.00     0.026 A 
HETATM   28 BR1  UNL     1      17.120   3.186  51.547  1.00  0.00    -0.050 Br
HETATM   29  C10 UNL     1      18.912   0.976  51.334  1.00  0.00     0.018 A 
HETATM   30  C11 UNL     1      20.045   0.445  50.908  1.00  0.00    -0.005 A 
HETATM   31  C12 UNL     1      21.194   0.966  50.130  1.00  0.00     0.157 A 
ENDBRANCH   8  25
TORSDOF 5
ENDMDL
MODEL 6
REMARK VINA RESULT:      -8.5      1.982      2.555
REMARK  5 active torsions:
REMARK  status: ('A' for Active; 'I' for Inactive)
REMARK       I    between atoms: C1_2  and  N1_3 
REMARK    1  A    between atoms: C1_2  and  C15_21 
REMARK    2  A    between atoms: N1_3  and  C2_4 
REMARK    3  A    between atoms: C7_11  and  N4_12 
REMARK    4  A    between atoms: C16_23  and  C17_24 
REMARK    5  A    between atoms: C17_24  and  N5_25 
ROOT
HETATM    1  C2  UNL     1      22.103   0.942  51.974  1.00  0.00     0.035 A 
HETATM    2  C3  UNL     1      21.076   0.168  52.444  1.00  0.00     0.032 A 
HETATM    3  C4  UNL     1      21.211  -0.686  53.506  1.00  0.00     0.035 A 
HETATM    4  C5  UNL     1      22.423  -0.799  54.157  1.00  0.00     0.072 A 
HETATM    5  N2  UNL     1      22.579  -1.632  55.216  1.00  0.00    -0.241 NA
HETATM    6  C6  UNL     1      23.816  -1.659  55.787  1.00  0.00     0.236 A 
HETATM    7  N3  UNL     1      24.867  -0.909  55.354  1.00  0.00    -0.223 NA
HETATM    8  C7  UNL     1      24.675  -0.082  54.286  1.00  0.00     0.144 A 
HETATM    9  C13 UNL     1      23.448  -0.015  53.672  1.00  0.00     0.041 A 
HETATM   10  C14 UNL     1      23.320   0.849  52.603  1.00  0.00     0.047 A 
ENDROOT
BRANCH   1  11
HETATM   11  N1  UNL     1      22.081   1.849  50.900  1.00  0.00    -0.325 N 
HETATM   12  C1  UNL     1      21.814   1.624  49.553  1.00  0.00     0.254 C 
HETATM   13  O1  UNL     1      21.539   0.457  49.144  1.00  0.00    -0.270 OA
HETATM   14  H1  UNL     1      22.263   2.866  50.914  1.00  0.00     0.169 HD
BRANCH  12  15
HETATM   15  C15 UNL     1      21.658   2.051  48.184  1.00  0.00     0.244 A 
HETATM   16  O2  UNL     1      20.704   3.212  48.071  1.00  0.00    -0.364 OA
HETATM   17  C16 UNL     1      22.070   3.238  47.576  1.00  0.00     0.189 A 
BRANCH  17  18
HETATM   18  C17 UNL     1      22.845   4.365  48.155  1.00  0.00     0.307 C 
BRANCH  18  19
HETATM   19  N5  UNL     1      22.051   5.315  48.913  1.00  0.00     0.091 N 
HETATM   20  C18 UNL     1      22.092   6.571  48.221  1.00  0.00     0.272 C 
HETATM   21  C19 UNL     1      21.448   7.691  48.995  1.00  0.00     0.030 C 
HETATM   22  C20 UNL     1      21.995   7.784  50.405  1.00  0.00     0.003 C 
HETATM   23  C21 UNL     1      21.779   6.449  51.068  1.00  0.00     0.030 C 
HETATM   24  C22 UNL     1      22.518   5.421  50.280  1.00  0.00     0.272 C 
ENDBRANCH  18  19
ENDBRANCH  17  18
ENDBRANCH  12  15
ENDBRANCH   1  11
BRANCH   8  25
HETATM   25  N4  UNL     1      25.865   0.608  53.927  1.00  0.00    -0.336 N 
HETATM   26  C8  UNL     1      26.916  -0.378  53.844  1.00  0.00     0.112 A 
HETATM   27  C9  UNL     1      28.198  -0.102  53.545  1.00  0.00     0.026 A 
HETATM   28 BR1  UNL     1      29.623  -1.361  53.423  1.00  0.00    -0.050 Br
HETATM   29  C10 UNL     1      28.581   1.291  53.274  1.00  0.00     0.018 A 
HETATM   30  C11 UNL     1      27.573   2.143  53.359  1.00  0.00    -0.005 A 
HETATM   31  C12 UNL     1      26.131   1.998  53.671  1.00  0.00     0.157 A 
ENDBRANCH   8  25
TORSDOF 5
ENDMDL
MODEL 7
REMARK VINA RESULT:      -8.5      4.420      7.546
REMARK  5 active torsions:
REMARK  status: ('A' for Active; 'I' for Inactive)
REMARK       I    between atoms: C1_2  and  N1_3 
REMARK    1  A    between atoms: C1_2  and  C15_21 
REMARK    2  A    between atoms: N1_3  and  C2_4 
REMARK    3  A    between atoms: C7_11  and  N4_12 
REMARK    4  A    between atoms: C16_23  and  C17_24 
REMARK    5  A    between atoms: C17_24  and  N5_25 
ROOT
HETATM    1  C2  UNL     1      26.523   6.332  48.809  1.00  0.00     0.035 A 
HETATM    2  C3  UNL     1      25.641   7.060  48.057  1.00  0.00     0.032 A 
HETATM    3  C4  UNL     1      24.334   6.693  47.876  1.00  0.00     0.035 A 
HETATM    4  C5  UNL     1      23.849   5.542  48.462  1.00  0.00     0.072 A 
HETATM    5  N2  UNL     1      22.556   5.161  48.304  1.00  0.00    -0.241 NA
HETATM    6  C6  UNL     1      22.183   4.011  48.934  1.00  0.00     0.236 A 
HETATM    7  N3  UNL     1      23.025   3.254  49.691  1.00  0.00    -0.223 NA
HETATM    8  C7  UNL     1      24.317   3.666  49.829  1.00  0.00     0.144 A 
HETATM    9  C13 UNL     1      24.749   4.818  49.216  1.00  0.00     0.041 A 
HETATM   10  C14 UNL     1      26.066   5.182  49.404  1.00  0.00     0.047 A 
ENDROOT
BRANCH   1  11
HETATM   11  N1  UNL     1      27.877   6.610  49.064  1.00  0.00    -0.325 N 
HETATM   12  C1  UNL     1      28.864   7.083  48.205  1.00  0.00     0.254 C 
HETATM   13  O1  UNL     1      28.590   7.326  46.992  1.00  0.00    -0.270 OA
HETATM   14  H1  UNL     1      28.397   6.512  49.952  1.00  0.00     0.169 HD
BRANCH  12  15
HETATM   15  C15 UNL     1      30.210   7.504  47.899  1.00  0.00     0.244 A 
HETATM   16  O2  UNL     1      30.920   8.022  49.123  1.00  0.00    -0.364 OA
HETATM   17  C16 UNL     1      31.424   6.940  48.294  1.00  0.00     0.189 A 
BRANCH  17  18
HETATM   18  C17 UNL     1      31.668   5.707  49.085  1.00  0.00     0.307 C 
BRANCH  18  19
HETATM   19  N5  UNL     1      32.387   4.666  48.372  1.00  0.00     0.091 N 
HETATM   20  C18 UNL     1      33.695   5.169  48.065  1.00  0.00     0.272 C 
HETATM   21  C19 UNL     1      34.485   4.250  47.171  1.00  0.00     0.030 C 
HETATM   22  C20 UNL     1      33.703   3.864  45.933  1.00  0.00     0.003 C 
HETATM   23  C21 UNL     1      32.411   3.232  46.385  1.00  0.00     0.030 C 
HETATM   24  C22 UNL     1      31.665   4.242  47.189  1.00  0.00     0.272 C 
ENDBRANCH  18  19
ENDBRANCH  17  18
ENDBRANCH  12  15
ENDBRANCH   1  11
BRANCH   8  25
HETATM   25  N4  UNL     1      25.083   2.762  50.614  1.00  0.00    -0.336 N 
HETATM   26  C8  UNL     1      24.148   1.961  51.369  1.00  0.00     0.112 A 
HETATM   27  C9  UNL     1      24.497   1.002  52.244  1.00  0.00     0.026 A 
HETATM   28 BR1  UNL     1      23.308  -0.081  53.265  1.00  0.00    -0.050 Br
HETATM   29  C10 UNL     1      25.925   0.725  52.461  1.00  0.00     0.018 A 
HETATM   30  C11 UNL     1      26.728   1.485  51.737  1.00  0.00    -0.005 A 
HETATM   31  C12 UNL     1      26.502   2.564  50.746  1.00  0.00     0.157 A 
ENDBRANCH   8  25
TORSDOF 5
ENDMDL
MODEL 8
REMARK VINA RESULT:      -8.4      2.646      3.719
REMARK  5 active torsions:
REMARK  status: ('A' for Active; 'I' for Inactive)
REMARK       I    between atoms: C1_2  and  N1_3 
REMARK    1  A    between atoms: C1_2  and  C15_21 
REMARK    2  A    between atoms: N1_3  and  C2_4 
REMARK    3  A    between atoms: C7_11  and  N4_12 
REMARK    4  A    between atoms: C16_23  and  C17_24 
REMARK    5  A    between atoms: C17_24  and  N5_25 
ROOT
HETATM    1  C2  UNL     1      23.880   3.595  51.694  1.00  0.00     0.035 A 
HETATM    2  C3  UNL     1      22.555   3.251  51.704  1.00  0.00     0.032 A 
HETATM    3  C4  UNL     1      22.083   2.112  52.301  1.00  0.00     0.035 A 
HETATM    4  C5  UNL     1      22.955   1.246  52.930  1.00  0.00     0.072 A 
HETATM    5  N2  UNL     1      22.511   0.116  53.535  1.00  0.00    -0.241 NA
HETATM    6  C6  UNL     1      23.458  -0.662  54.133  1.00  0.00     0.236 A 
HETATM    7  N3  UNL     1      24.786  -0.362  54.147  1.00  0.00    -0.223 NA
HETATM    8  C7  UNL     1      25.197   0.782  53.530  1.00  0.00     0.144 A 
HETATM    9  C13 UNL     1      24.286   1.605  52.912  1.00  0.00     0.041 A 
HETATM   10  C14 UNL     1      24.769   2.751  52.314  1.00  0.00     0.047 A 
ENDROOT
BRANCH   1  11
HETATM   11  N1  UNL     1      24.475   4.731  51.118  1.00  0.00    -0.325 N 
HETATM   12  C1  UNL     1      25.315   4.830  50.014  1.00  0.00     0.254 C 
HETATM   13  O1  UNL     1      25.646   3.790  49.370  1.00  0.00    -0.270 OA
HETATM   14  H1  UNL     1      24.397   5.717  51.415  1.00  0.00     0.169 HD
BRANCH  12  15
HETATM   15  C15 UNL     1      26.124   5.568  49.075  1.00  0.00     0.244 A 
HETATM   16  O2  UNL     1      25.310   6.593  48.328  1.00  0.00    -0.364 OA
HETATM   17  C16 UNL     1      26.501   6.912  49.098  1.00  0.00     0.189 A 
BRANCH  17  18
HETATM   18  C17 UNL     1      26.228   7.941  50.134  1.00  0.00     0.307 C 
BRANCH  18  19
HETATM   19  N5  UNL     1      26.810   9.243  49.857  1.00  0.00     0.091 N 
HETATM   20  C18 UNL     1      25.985   9.893  48.880  1.00  0.00     0.272 C 
HETATM   21  C19 UNL     1      26.575  11.183  48.376  1.00  0.00     0.030 C 
HETATM   22  C20 UNL     1      28.003  11.000  47.905  1.00  0.00     0.003 C 
HETATM   23  C21 UNL     1      28.795  10.434  49.055  1.00  0.00     0.030 C 
HETATM   24  C22 UNL     1      28.188   9.123  49.427  1.00  0.00     0.272 C 
ENDBRANCH  18  19
ENDBRANCH  17  18
ENDBRANCH  12  15
ENDBRANCH   1  11
BRANCH   8  25
HETATM   25  N4  UNL     1      26.608   0.945  53.596  1.00  0.00    -0.336 N 
HETATM   26  C8  UNL     1      27.193  -0.365  53.437  1.00  0.00     0.112 A 
HETATM   27  C9  UNL     1      28.513  -0.620  53.463  1.00  0.00     0.026 A 
HETATM   28 BR1  UNL     1      29.336  -2.326  53.259  1.00  0.00    -0.050 Br
HETATM   29  C10 UNL     1      29.448   0.497  53.660  1.00  0.00     0.018 A 
HETATM   30  C11 UNL     1      28.852   1.669  53.792  1.00  0.00    -0.005 A 
HETATM   31  C12 UNL     1      27.435   2.107  53.785  1.00  0.00     0.157 A 
ENDBRANCH   8  25
TORSDOF 5
ENDMDL
MODEL 9
REMARK VINA RESULT:      -8.4      3.820      6.001
REMARK  5 active torsions:
REMARK  status: ('A' for Active; 'I' for Inactive)
REMARK       I    between atoms: C1_2  and  N1_3 
REMARK    1  A    between atoms: C1_2  and  C15_21 
REMARK    2  A    between atoms: N1_3  and  C2_4 
REMARK    3  A    between atoms: C7_11  and  N4_12 
REMARK    4  A    between atoms: C16_23  and  C17_24 
REMARK    5  A    between atoms: C17_24  and  N5_25 
ROOT
HETATM    1  C2  UNL     1      20.604   0.215  52.582  1.00  0.00     0.035 A 
HETATM    2  C3  UNL     1      20.065  -0.659  53.487  1.00  0.00     0.032 A 
HETATM    3  C4  UNL     1      20.810  -1.301  54.440  1.00  0.00     0.035 A 
HETATM    4  C5  UNL     1      22.170  -1.083  54.522  1.00  0.00     0.072 A 
HETATM    5  N2  UNL     1      22.928  -1.700  55.462  1.00  0.00    -0.241 NA
HETATM    6  C6  UNL     1      24.258  -1.405  55.456  1.00  0.00     0.236 A 
HETATM    7  N3  UNL     1      24.840  -0.545  54.575  1.00  0.00    -0.223 NA
HETATM    8  C7  UNL     1      24.048   0.059  53.644  1.00  0.00     0.144 A 
HETATM    9  C13 UNL     1      22.700  -0.201  53.603  1.00  0.00     0.041 A 
HETATM   10  C14 UNL     1      21.956   0.451  52.641  1.00  0.00     0.047 A 
ENDROOT
BRANCH   1  11
HETATM   11  N1  UNL     1      19.942   0.928  51.567  1.00  0.00    -0.325 N 
HETATM   12  C1  UNL     1      19.466   2.235  51.567  1.00  0.00     0.254 C 
HETATM   13  O1  UNL     1      19.606   2.965  52.593  1.00  0.00    -0.270 OA
HETATM   14  H1  UNL     1      19.683   0.607  50.620  1.00  0.00     0.169 HD
BRANCH  12  15
HETATM   15  C15 UNL     1      18.811   3.365  50.955  1.00  0.00     0.244 A 
HETATM   16  O2  UNL     1      18.366   3.053  49.549  1.00  0.00    -0.364 OA
HETATM   17  C16 UNL     1      17.471   3.523  50.594  1.00  0.00     0.189 A 
BRANCH  17  18
HETATM   18  C17 UNL     1      16.332   2.593  50.803  1.00  0.00     0.307 C 
BRANCH  18  19
HETATM   19  N5  UNL     1      15.647   2.757  52.073  1.00  0.00     0.091 N 
HETATM   20  C18 UNL     1      14.339   2.182  51.942  1.00  0.00     0.272 C 
HETATM   21  C19 UNL     1      13.460   2.440  53.137  1.00  0.00     0.030 C 
HETATM   22  C20 UNL     1      13.418   3.912  53.494  1.00  0.00     0.003 C 
HETATM   23  C21 UNL     1      14.835   4.366  53.733  1.00  0.00     0.030 C 
HETATM   24  C22 UNL     1      15.603   4.148  52.473  1.00  0.00     0.272 C 
ENDBRANCH  18  19
ENDBRANCH  17  18
ENDBRANCH  12  15
ENDBRANCH   1  11
BRANCH   8  25
HETATM   25  N4  UNL     1      24.796   0.900  52.775  1.00  0.00    -0.336 N 
HETATM   26  C8  UNL     1      26.069   1.142  53.413  1.00  0.00     0.112 A 
HETATM   27  C9  UNL     1      27.044   1.913  52.901  1.00  0.00     0.026 A 
HETATM   28 BR1  UNL     1      28.738   2.266  53.699  1.00  0.00    -0.050 Br
HETATM   29  C10 UNL     1      26.828   2.562  51.600  1.00  0.00     0.018 A 
HETATM   30  C11 UNL     1      25.649   2.296  51.065  1.00  0.00    -0.005 A 
HETATM   31  C12 UNL     1      24.488   1.480  51.495  1.00  0.00     0.157 A 
ENDBRANCH   8  25
TORSDOF 5
ENDMDL
