MODEL 1
REMARK VINA RESULT:      -8.2      0.000      0.000
REMARK  5 active torsions:
REMARK  status: ('A' for Active; 'I' for Inactive)
REMARK    1  A    between atoms: C4_6  and  C5_7 
REMARK    2  A    between atoms: C5_7  and  O1_8 
REMARK    3  A    between atoms: O1_8  and  C6_9 
REMARK    4  A    between atoms: C9_12  and  N3_13 
REMARK    5  A    between atoms: C12_17  and  N4_18 
ROOT
HETATM    1  C6  UNL     1      23.241   1.131  51.831  1.00  0.00     0.104 C 
HETATM    2  C7  UNL     1      23.190   1.847  52.947  1.00  0.00     0.049 C 
HETATM    3  C8  UNL     1      22.718   2.983  51.803  1.00  0.00    -0.028 C 
HETATM    4  C9  UNL     1      23.094   3.546  50.541  1.00  0.00     0.033 C 
HETATM    5  C15 UNL     1      22.364   3.047  49.300  1.00  0.00     0.175 C 
HETATM    6  N5  UNL     1      22.211   1.738  48.883  1.00  0.00    -0.194 NA
HETATM    7  O2  UNL     1      21.769   0.801  49.948  1.00  0.00    -0.261 OA
HETATM    8  C16 UNL     1      21.793   1.362  51.335  1.00  0.00     0.121 C 
HETATM    9  C17 UNL     1      20.699   2.010  51.919  1.00  0.00     0.020 C 
HETATM   10  C18 UNL     1      21.276   3.412  52.193  1.00  0.00     0.071 C 
HETATM   11  H21 UNL     1      23.070   1.282  48.496  1.00  0.00     0.154 HD
ENDROOT
BRANCH   1  12
HETATM   12  O1  UNL     1      24.662   0.763  52.099  1.00  0.00    -0.346 OA
BRANCH  12  13
HETATM   13  C5  UNL     1      24.823   0.053  53.331  1.00  0.00     0.213 C 
BRANCH  13  14
HETATM   14  C4  UNL     1      26.216   0.364  53.791  1.00  0.00     0.272 C 
HETATM   15  N2  UNL     1      26.877  -0.873  54.106  1.00  0.00     0.093 N 
HETATM   16  C3  UNL     1      28.012  -1.106  53.237  1.00  0.00     0.300 C 
HETATM   17  H8  UNL     1      26.232  -1.703  54.030  1.00  0.00     0.316 HD
HETATM   18  C2  UNL     1      28.957   0.074  53.468  1.00  0.00     0.301 C 
HETATM   19  N1  UNL     1      28.354   1.294  53.005  1.00  0.00     0.088 N 
HETATM   20  C1  UNL     1      28.741   2.445  53.779  1.00  0.00     0.310 C 
HETATM   21  C19 UNL     1      26.939   1.203  52.790  1.00  0.00     0.309 C 
ENDBRANCH  13  14
ENDBRANCH  12  13
ENDBRANCH   1  12
BRANCH   4  22
HETATM   22  N3  UNL     1      24.156   4.559  50.284  1.00  0.00    -0.353 N 
HETATM   23  C10 UNL     1      25.341   4.305  49.540  1.00  0.00     0.117 A 
HETATM   24  C11 UNL     1      26.170   5.330  49.416  1.00  0.00     0.075 A 
HETATM   25 CL1  UNL     1      27.619   5.053  48.519  1.00  0.00    -0.080 Cl
HETATM   26  C12 UNL     1      25.871   6.629  50.009  1.00  0.00     0.046 A 
HETATM   27  C13 UNL     1      24.748   6.800  50.691  1.00  0.00     0.024 A 
HETATM   28  C14 UNL     1      23.718   5.751  50.917  1.00  0.00     0.158 A 
BRANCH  26  29
HETATM   29  N4  UNL     1      26.792   7.704  49.851  1.00  0.00    -0.398 N 
HETATM   30  H14 UNL     1      27.782   7.791  50.176  1.00  0.00     0.156 HD
HETATM   31  H15 UNL     1      26.851   8.658  49.433  1.00  0.00     0.156 HD
ENDBRANCH  26  29
ENDBRANCH   4  22
TORSDOF 5
ENDMDL
MODEL 2
REMARK VINA RESULT:      -8.2      3.204      5.401
REMARK  5 active torsions:
REMARK  status: ('A' for Active; 'I' for Inactive)
REMARK    1  A    between atoms: C4_6  and  C5_7 
REMARK    2  A    between atoms: C5_7  and  O1_8 
REMARK    3  A    between atoms: O1_8  and  C6_9 
REMARK    4  A    between atoms: C9_12  and  N3_13 
REMARK    5  A    between atoms: C12_17  and  N4_18 
ROOT
HETATM    1  C6  UNL     1      24.786   3.624  51.346  1.00  0.00     0.104 C 
HETATM    2  C7  UNL     1      24.916   2.692  50.411  1.00  0.00     0.049 C 
HETATM    3  C8  UNL     1      23.244   2.826  50.514  1.00  0.00    -0.028 C 
HETATM    4  C9  UNL     1      22.163   2.833  51.453  1.00  0.00     0.033 C 
HETATM    5  C15 UNL     1      21.579   4.184  51.849  1.00  0.00     0.175 C 
HETATM    6  N5  UNL     1      22.260   5.283  52.339  1.00  0.00    -0.194 NA
HETATM    7  O2  UNL     1      23.482   5.642  51.575  1.00  0.00    -0.261 OA
HETATM    8  C16 UNL     1      23.913   4.631  50.559  1.00  0.00     0.121 C 
HETATM    9  C17 UNL     1      23.481   4.650  49.228  1.00  0.00     0.020 C 
HETATM   10  C18 UNL     1      22.762   3.293  49.112  1.00  0.00     0.071 C 
HETATM   11  H21 UNL     1      22.602   5.201  53.326  1.00  0.00     0.154 HD
ENDROOT
BRANCH   1  12
HETATM   12  O1  UNL     1      25.616   2.826  52.295  1.00  0.00    -0.346 OA
BRANCH  12  13
HETATM   13  C5  UNL     1      26.664   2.106  51.638  1.00  0.00     0.213 C 
BRANCH  13  14
HETATM   14  C4  UNL     1      27.542   1.590  52.738  1.00  0.00     0.272 C 
HETATM   15  N2  UNL     1      26.946   1.942  53.998  1.00  0.00     0.093 N 
HETATM   16  C3  UNL     1      26.569   0.767  54.755  1.00  0.00     0.300 C 
HETATM   17  H8  UNL     1      26.089   2.544  53.882  1.00  0.00     0.316 HD
HETATM   18  C2  UNL     1      27.866  -0.011  54.982  1.00  0.00     0.301 C 
HETATM   19  N1  UNL     1      28.380  -0.500  53.731  1.00  0.00     0.088 N 
HETATM   20  C1  UNL     1      29.818  -0.558  53.695  1.00  0.00     0.310 C 
HETATM   21  C19 UNL     1      27.807   0.130  52.577  1.00  0.00     0.309 C 
ENDBRANCH  13  14
ENDBRANCH  12  13
ENDBRANCH   1  12
BRANCH   4  22
HETATM   22  N3  UNL     1      21.545   1.657  52.129  1.00  0.00    -0.353 N 
HETATM   23  C10 UNL     1      20.238   1.170  51.854  1.00  0.00     0.117 A 
HETATM   24  C11 UNL     1      19.861   0.112  52.555  1.00  0.00     0.075 A 
HETATM   25 CL1  UNL     1      18.278  -0.502  52.244  1.00  0.00    -0.080 Cl
HETATM   26  C12 UNL     1      20.743  -0.503  53.542  1.00  0.00     0.046 A 
HETATM   27  C13 UNL     1      21.951   0.000  53.751  1.00  0.00     0.024 A 
HETATM   28  C14 UNL     1      22.519   1.180  53.045  1.00  0.00     0.158 A 
BRANCH  26  29
HETATM   29  N4  UNL     1      20.296  -1.639  54.275  1.00  0.00    -0.398 N 
HETATM   30  H14 UNL     1      20.406  -1.867  55.289  1.00  0.00     0.156 HD
HETATM   31  H15 UNL     1      19.781  -2.536  54.134  1.00  0.00     0.156 HD
ENDBRANCH  26  29
ENDBRANCH   4  22
TORSDOF 5
ENDMDL
MODEL 3
REMARK VINA RESULT:      -8.0      2.434      6.438
REMARK  5 active torsions:
REMARK  status: ('A' for Active; 'I' for Inactive)
REMARK    1  A    between atoms: C4_6  and  C5_7 
REMARK    2  A    between atoms: C5_7  and  O1_8 
REMARK    3  A    between atoms: O1_8  and  C6_9 
REMARK    4  A    between atoms: C9_12  and  N3_13 
REMARK    5  A    between atoms: C12_17  and  N4_18 
ROOT
HETATM    1  C6  UNL     1      23.897   3.939  50.129  1.00  0.00     0.104 C 
HETATM    2  C7  UNL     1      23.509   2.763  49.652  1.00  0.00     0.049 C 
HETATM    3  C8  UNL     1      23.546   2.455  51.304  1.00  0.00    -0.028 C 
HETATM    4  C9  UNL     1      24.377   2.583  52.463  1.00  0.00     0.033 C 
HETATM    5  C15 UNL     1      24.094   3.742  53.411  1.00  0.00     0.175 C 
HETATM    6  N5  UNL     1      24.005   5.085  53.095  1.00  0.00    -0.194 NA
HETATM    7  O2  UNL     1      23.155   5.384  51.914  1.00  0.00    -0.261 OA
HETATM    8  C16 UNL     1      22.732   4.189  51.118  1.00  0.00     0.121 C 
HETATM    9  C17 UNL     1      21.551   3.481  51.367  1.00  0.00     0.020 C 
HETATM   10  C18 UNL     1      22.093   2.079  51.704  1.00  0.00     0.071 C 
HETATM   11  H21 UNL     1      24.911   5.559  52.872  1.00  0.00     0.154 HD
ENDROOT
BRANCH   1  12
HETATM   12  O1  UNL     1      25.105   3.927  49.254  1.00  0.00    -0.346 OA
BRANCH  12  13
HETATM   13  C5  UNL     1      26.064   4.921  49.628  1.00  0.00     0.213 C 
BRANCH  13  14
HETATM   14  C4  UNL     1      25.336   6.229  49.540  1.00  0.00     0.272 C 
HETATM   15  N2  UNL     1      25.633   6.993  50.722  1.00  0.00     0.093 N 
HETATM   16  C3  UNL     1      26.342   8.214  50.401  1.00  0.00     0.300 C 
HETATM   17  H8  UNL     1      26.213   6.451  51.415  1.00  0.00     0.316 HD
HETATM   18  C2  UNL     1      25.411   9.003  49.479  1.00  0.00     0.301 C 
HETATM   19  N1  UNL     1      25.240   8.310  48.231  1.00  0.00     0.088 N 
HETATM   20  C1  UNL     1      23.937   8.504  47.650  1.00  0.00     0.310 C 
HETATM   21  C19 UNL     1      25.649   6.935  48.264  1.00  0.00     0.309 C 
ENDBRANCH  13  14
ENDBRANCH  12  13
ENDBRANCH   1  12
BRANCH   4  22
HETATM   22  N3  UNL     1      25.530   1.721  52.848  1.00  0.00    -0.353 N 
HETATM   23  C10 UNL     1      26.766   2.214  53.352  1.00  0.00     0.117 A 
HETATM   24  C11 UNL     1      27.674   1.295  53.640  1.00  0.00     0.075 A 
HETATM   25 CL1  UNL     1      29.185   1.862  54.254  1.00  0.00    -0.080 Cl
HETATM   26  C12 UNL     1      27.409  -0.127  53.448  1.00  0.00     0.046 A 
HETATM   27  C13 UNL     1      26.236  -0.520  52.974  1.00  0.00     0.024 A 
HETATM   28  C14 UNL     1      25.116   0.385  52.605  1.00  0.00     0.158 A 
BRANCH  26  29
HETATM   29  N4  UNL     1      28.416  -1.081  53.771  1.00  0.00    -0.398 N 
HETATM   30  H14 UNL     1      28.320  -2.072  54.090  1.00  0.00     0.156 HD
HETATM   31  H15 UNL     1      29.454  -1.172  53.816  1.00  0.00     0.156 HD
ENDBRANCH  26  29
ENDBRANCH   4  22
TORSDOF 5
ENDMDL
MODEL 4
REMARK VINA RESULT:      -7.9      2.514      5.327
REMARK  5 active torsions:
REMARK  status: ('A' for Active; 'I' for Inactive)
REMARK    1  A    between atoms: C4_6  and  C5_7 
REMARK    2  A    between atoms: C5_7  and  O1_8 
REMARK    3  A    between atoms: O1_8  and  C6_9 
REMARK    4  A    between atoms: C9_12  and  N3_13 
REMARK    5  A    between atoms: C12_17  and  N4_18 
ROOT
HETATM    1  C6  UNL     1      22.345   3.699  49.396  1.00  0.00     0.104 C 
HETATM    2  C7  UNL     1      22.834   2.716  48.652  1.00  0.00     0.049 C 
HETATM    3  C8  UNL     1      22.524   1.915  50.096  1.00  0.00    -0.028 C 
HETATM    4  C9  UNL     1      22.744   1.999  51.509  1.00  0.00     0.033 C 
HETATM    5  C15 UNL     1      21.597   2.507  52.374  1.00  0.00     0.175 C 
HETATM    6  N5  UNL     1      20.889   3.686  52.224  1.00  0.00    -0.194 NA
HETATM    7  O2  UNL     1      20.427   3.956  50.838  1.00  0.00    -0.261 OA
HETATM    8  C16 UNL     1      20.998   3.048  49.793  1.00  0.00     0.121 C 
HETATM    9  C17 UNL     1      20.390   1.850  49.404  1.00  0.00     0.020 C 
HETATM   10  C18 UNL     1      21.476   0.818  49.763  1.00  0.00     0.071 C 
HETATM   11  H21 UNL     1      21.404   4.559  52.486  1.00  0.00     0.154 HD
ENDROOT
BRANCH   1  12
HETATM   12  O1  UNL     1      23.561   4.528  49.150  1.00  0.00    -0.346 OA
BRANCH  12  13
HETATM   13  C5  UNL     1      23.955   5.282  50.300  1.00  0.00     0.213 C 
BRANCH  13  14
HETATM   14  C4  UNL     1      25.398   5.623  50.078  1.00  0.00     0.272 C 
HETATM   15  N2  UNL     1      26.188   4.454  50.357  1.00  0.00     0.093 N 
HETATM   16  C3  UNL     1      26.884   3.988  49.175  1.00  0.00     0.300 C 
HETATM   17  H8  UNL     1      25.608   3.657  50.729  1.00  0.00     0.316 HD
HETATM   18  C2  UNL     1      27.785   5.146  48.744  1.00  0.00     0.301 C 
HETATM   19  N1  UNL     1      26.989   6.264  48.314  1.00  0.00     0.088 N 
HETATM   20  C1  UNL     1      27.601   7.536  48.598  1.00  0.00     0.310 C 
HETATM   21  C19 UNL     1      25.614   6.193  48.716  1.00  0.00     0.309 C 
ENDBRANCH  13  14
ENDBRANCH  12  13
ENDBRANCH   1  12
BRANCH   4  22
HETATM   22  N3  UNL     1      23.994   1.671  52.250  1.00  0.00    -0.353 N 
HETATM   23  C10 UNL     1      24.683   0.431  52.149  1.00  0.00     0.117 A 
HETATM   24  C11 UNL     1      25.780   0.324  52.884  1.00  0.00     0.075 A 
HETATM   25 CL1  UNL     1      26.638  -1.170  52.784  1.00  0.00    -0.080 Cl
HETATM   26  C12 UNL     1      26.238   1.416  53.736  1.00  0.00     0.046 A 
HETATM   27  C13 UNL     1      25.549   2.547  53.784  1.00  0.00     0.024 A 
HETATM   28  C14 UNL     1      24.303   2.822  53.021  1.00  0.00     0.158 A 
BRANCH  26  29
HETATM   29  N4  UNL     1      27.422   1.257  54.510  1.00  0.00    -0.398 N 
HETATM   30  H14 UNL     1      28.378   1.654  54.360  1.00  0.00     0.156 HD
HETATM   31  H15 UNL     1      27.762   0.777  55.372  1.00  0.00     0.156 HD
ENDBRANCH  26  29
ENDBRANCH   4  22
TORSDOF 5
ENDMDL
MODEL 5
REMARK VINA RESULT:      -7.9      5.467      8.196
REMARK  5 active torsions:
REMARK  status: ('A' for Active; 'I' for Inactive)
REMARK    1  A    between atoms: C4_6  and  C5_7 
REMARK    2  A    between atoms: C5_7  and  O1_8 
REMARK    3  A    between atoms: O1_8  and  C6_9 
REMARK    4  A    between atoms: C9_12  and  N3_13 
REMARK    5  A    between atoms: C12_17  and  N4_18 
ROOT
HETATM    1  C6  UNL     1      29.792   7.431  48.403  1.00  0.00     0.104 C 
HETATM    2  C7  UNL     1      29.473   6.823  47.268  1.00  0.00     0.049 C 
HETATM    3  C8  UNL     1      27.965   7.331  47.808  1.00  0.00    -0.028 C 
HETATM    4  C9  UNL     1      27.109   7.322  48.956  1.00  0.00     0.033 C 
HETATM    5  C15 UNL     1      27.043   8.591  49.797  1.00  0.00     0.175 C 
HETATM    6  N5  UNL     1      28.100   9.286  50.356  1.00  0.00    -0.194 NA
HETATM    7  O2  UNL     1      29.229   9.543  49.425  1.00  0.00    -0.261 OA
HETATM    8  C16 UNL     1      29.153   8.812  48.121  1.00  0.00     0.121 C 
HETATM    9  C17 UNL     1      28.534   9.339  46.982  1.00  0.00     0.020 C 
HETATM   10  C18 UNL     1      27.424   8.302  46.722  1.00  0.00     0.071 C 
HETATM   11  H21 UNL     1      28.559   8.829  51.178  1.00  0.00     0.154 HD
ENDROOT
BRANCH   1  12
HETATM   12  O1  UNL     1      30.483   6.204  48.898  1.00  0.00    -0.346 OA
BRANCH  12  13
HETATM   13  C5  UNL     1      31.085   5.449  47.842  1.00  0.00     0.213 C 
BRANCH  13  14
HETATM   14  C4  UNL     1      32.461   5.109  48.333  1.00  0.00     0.272 C 
HETATM   15  N2  UNL     1      32.644   3.687  48.220  1.00  0.00     0.093 N 
HETATM   16  C3  UNL     1      33.702   3.360  47.286  1.00  0.00     0.300 C 
HETATM   17  H8  UNL     1      31.768   3.193  47.906  1.00  0.00     0.316 HD
HETATM   18  C2  UNL     1      34.965   4.013  47.848  1.00  0.00     0.301 C 
HETATM   19  N1  UNL     1      34.843   5.446  47.814  1.00  0.00     0.088 N 
HETATM   20  C1  UNL     1      35.529   6.098  48.899  1.00  0.00     0.310 C 
HETATM   21  C19 UNL     1      33.500   5.914  47.626  1.00  0.00     0.309 C 
ENDBRANCH  13  14
ENDBRANCH  12  13
ENDBRANCH   1  12
BRANCH   4  22
HETATM   22  N3  UNL     1      26.282   6.189  49.458  1.00  0.00    -0.353 N 
HETATM   23  C10 UNL     1      25.131   6.341  50.280  1.00  0.00     0.117 A 
HETATM   24  C11 UNL     1      24.523   5.216  50.627  1.00  0.00     0.075 A 
HETATM   25 CL1  UNL     1      23.124   5.367  51.626  1.00  0.00    -0.080 Cl
HETATM   26  C12 UNL     1      25.015   3.915  50.186  1.00  0.00     0.046 A 
HETATM   27  C13 UNL     1      26.094   3.844  49.420  1.00  0.00     0.024 A 
HETATM   28  C14 UNL     1      26.884   5.011  48.946  1.00  0.00     0.158 A 
BRANCH  26  29
HETATM   29  N4  UNL     1      24.330   2.732  50.583  1.00  0.00    -0.398 N 
HETATM   30  H14 UNL     1      23.446   2.622  51.132  1.00  0.00     0.156 HD
HETATM   31  H15 UNL     1      24.408   1.694  50.511  1.00  0.00     0.156 HD
ENDBRANCH  26  29
ENDBRANCH   4  22
TORSDOF 5
ENDMDL
MODEL 6
REMARK VINA RESULT:      -7.6      2.997      6.300
REMARK  5 active torsions:
REMARK  status: ('A' for Active; 'I' for Inactive)
REMARK    1  A    between atoms: C4_6  and  C5_7 
REMARK    2  A    between atoms: C5_7  and  O1_8 
REMARK    3  A    between atoms: O1_8  and  C6_9 
REMARK    4  A    between atoms: C9_12  and  N3_13 
REMARK    5  A    between atoms: C12_17  and  N4_18 
ROOT
HETATM    1  C6  UNL     1      22.201   3.821  50.027  1.00  0.00     0.104 C 
HETATM    2  C7  UNL     1      22.748   2.996  49.144  1.00  0.00     0.049 C 
HETATM    3  C8  UNL     1      22.005   1.913  50.192  1.00  0.00    -0.028 C 
HETATM    4  C9  UNL     1      21.878   1.585  51.580  1.00  0.00     0.033 C 
HETATM    5  C15 UNL     1      20.616   2.043  52.301  1.00  0.00     0.175 C 
HETATM    6  N5  UNL     1      20.101   3.324  52.363  1.00  0.00    -0.194 NA
HETATM    7  O2  UNL     1      20.027   4.023  51.054  1.00  0.00    -0.261 OA
HETATM    8  C16 UNL     1      20.735   3.335  49.929  1.00  0.00     0.121 C 
HETATM    9  C17 UNL     1      20.115   2.405  49.088  1.00  0.00     0.020 C 
HETATM   10  C18 UNL     1      20.958   1.141  49.342  1.00  0.00     0.071 C 
HETATM   11  H21 UNL     1      20.627   3.995  52.971  1.00  0.00     0.154 HD
ENDROOT
BRANCH   1  12
HETATM   12  O1  UNL     1      23.524   4.460  50.291  1.00  0.00    -0.346 OA
BRANCH  12  13
HETATM   13  C5  UNL     1      23.405   5.696  51.001  1.00  0.00     0.213 C 
BRANCH  13  14
HETATM   14  C4  UNL     1      24.684   6.432  50.736  1.00  0.00     0.272 C 
HETATM   15  N2  UNL     1      25.693   5.472  50.376  1.00  0.00     0.093 N 
HETATM   16  C3  UNL     1      26.161   5.676  49.021  1.00  0.00     0.300 C 
HETATM   17  H8  UNL     1      25.349   4.479  50.456  1.00  0.00     0.316 HD
HETATM   18  C2  UNL     1      26.742   7.091  48.992  1.00  0.00     0.301 C 
HETATM   19  N1  UNL     1      25.701   8.061  49.197  1.00  0.00     0.088 N 
HETATM   20  C1  UNL     1      26.151   9.235  49.898  1.00  0.00     0.310 C 
HETATM   21  C19 UNL     1      24.485   7.513  49.726  1.00  0.00     0.309 C 
ENDBRANCH  13  14
ENDBRANCH  12  13
ENDBRANCH   1  12
BRANCH   4  22
HETATM   22  N3  UNL     1      22.864   0.862  52.432  1.00  0.00    -0.353 N 
HETATM   23  C10 UNL     1      22.515   0.043  53.541  1.00  0.00     0.117 A 
HETATM   24  C11 UNL     1      23.530  -0.520  54.179  1.00  0.00     0.075 A 
HETATM   25 CL1  UNL     1      23.139  -1.520  55.530  1.00  0.00    -0.080 Cl
HETATM   26  C12 UNL     1      24.911  -0.304  53.758  1.00  0.00     0.046 A 
HETATM   27  C13 UNL     1      25.167   0.472  52.715  1.00  0.00     0.024 A 
HETATM   28  C14 UNL     1      24.142   1.172  51.897  1.00  0.00     0.158 A 
BRANCH  26  29
HETATM   29  N4  UNL     1      25.971  -0.928  54.474  1.00  0.00    -0.398 N 
HETATM   30  H14 UNL     1      27.006  -0.836  54.352  1.00  0.00     0.156 HD
HETATM   31  H15 UNL     1      26.128  -1.600  55.256  1.00  0.00     0.156 HD
ENDBRANCH  26  29
ENDBRANCH   4  22
TORSDOF 5
ENDMDL
MODEL 7
REMARK VINA RESULT:      -7.6      2.522      6.340
REMARK  5 active torsions:
REMARK  status: ('A' for Active; 'I' for Inactive)
REMARK    1  A    between atoms: C4_6  and  C5_7 
REMARK    2  A    between atoms: C5_7  and  O1_8 
REMARK    3  A    between atoms: O1_8  and  C6_9 
REMARK    4  A    between atoms: C9_12  and  N3_13 
REMARK    5  A    between atoms: C12_17  and  N4_18 
ROOT
HETATM    1  C6  UNL     1      21.830   3.649  50.025  1.00  0.00     0.104 C 
HETATM    2  C7  UNL     1      22.350   2.888  49.071  1.00  0.00     0.049 C 
HETATM    3  C8  UNL     1      21.962   1.740  50.236  1.00  0.00    -0.028 C 
HETATM    4  C9  UNL     1      22.111   1.443  51.629  1.00  0.00     0.033 C 
HETATM    5  C15 UNL     1      20.925   1.727  52.542  1.00  0.00     0.175 C 
HETATM    6  N5  UNL     1      20.234   2.917  52.678  1.00  0.00    -0.194 NA
HETATM    7  O2  UNL     1      19.844   3.552  51.393  1.00  0.00    -0.261 OA
HETATM    8  C16 UNL     1      20.460   2.943  50.172  1.00  0.00     0.121 C 
HETATM    9  C17 UNL     1      19.865   1.902  49.451  1.00  0.00     0.020 C 
HETATM   10  C18 UNL     1      20.925   0.791  49.575  1.00  0.00     0.071 C 
HETATM   11  H21 UNL     1      20.740   3.680  53.185  1.00  0.00     0.154 HD
ENDROOT
BRANCH   1  12
HETATM   12  O1  UNL     1      23.062   4.490  50.065  1.00  0.00    -0.346 OA
BRANCH  12  13
HETATM   13  C5  UNL     1      23.207   5.195  51.302  1.00  0.00     0.213 C 
BRANCH  13  14
HETATM   14  C4  UNL     1      23.456   6.623  50.918  1.00  0.00     0.272 C 
HETATM   15  N2  UNL     1      24.749   7.008  51.417  1.00  0.00     0.093 N 
HETATM   16  C3  UNL     1      25.658   7.336  50.338  1.00  0.00     0.300 C 
HETATM   17  H8  UNL     1      25.195   6.252  52.001  1.00  0.00     0.316 HD
HETATM   18  C2  UNL     1      25.010   8.503  49.592  1.00  0.00     0.301 C 
HETATM   19  N1  UNL     1      23.791   8.075  48.960  1.00  0.00     0.088 N 
HETATM   20  C1  UNL     1      22.792   9.110  48.898  1.00  0.00     0.310 C 
HETATM   21  C19 UNL     1      23.285   6.825  49.449  1.00  0.00     0.309 C 
ENDBRANCH  13  14
ENDBRANCH  12  13
ENDBRANCH   1  12
BRANCH   4  22
HETATM   22  N3  UNL     1      23.321   0.907  52.314  1.00  0.00    -0.353 N 
HETATM   23  C10 UNL     1      24.653   1.299  52.009  1.00  0.00     0.117 A 
HETATM   24  C11 UNL     1      25.600   0.713  52.725  1.00  0.00     0.075 A 
HETATM   25 CL1  UNL     1      27.229   1.167  52.378  1.00  0.00    -0.080 Cl
HETATM   26  C12 UNL     1      25.281  -0.268  53.757  1.00  0.00     0.046 A 
HETATM   27  C13 UNL     1      24.017  -0.588  53.992  1.00  0.00     0.024 A 
HETATM   28  C14 UNL     1      22.844  -0.020  53.277  1.00  0.00     0.158 A 
BRANCH  26  29
HETATM   29  N4  UNL     1      26.331  -0.873  54.504  1.00  0.00    -0.398 N 
HETATM   30  H14 UNL     1      27.268  -0.493  54.769  1.00  0.00     0.156 HD
HETATM   31  H15 UNL     1      26.559  -1.765  54.995  1.00  0.00     0.156 HD
ENDBRANCH  26  29
ENDBRANCH   4  22
TORSDOF 5
ENDMDL
MODEL 8
REMARK VINA RESULT:      -7.3      2.754      6.093
REMARK  5 active torsions:
REMARK  status: ('A' for Active; 'I' for Inactive)
REMARK    1  A    between atoms: C4_6  and  C5_7 
REMARK    2  A    between atoms: C5_7  and  O1_8 
REMARK    3  A    between atoms: O1_8  and  C6_9 
REMARK    4  A    between atoms: C9_12  and  N3_13 
REMARK    5  A    between atoms: C12_17  and  N4_18 
ROOT
HETATM    1  C6  UNL     1      21.125   2.422  49.582  1.00  0.00     0.104 C 
HETATM    2  C7  UNL     1      21.159   1.199  49.070  1.00  0.00     0.049 C 
HETATM    3  C8  UNL     1      20.780   0.875  50.674  1.00  0.00    -0.028 C 
HETATM    4  C9  UNL     1      21.188   1.162  52.016  1.00  0.00     0.033 C 
HETATM    5  C15 UNL     1      20.395   2.211  52.787  1.00  0.00     0.175 C 
HETATM    6  N5  UNL     1      20.112   3.506  52.396  1.00  0.00    -0.194 NA
HETATM    7  O2  UNL     1      19.600   3.633  51.008  1.00  0.00    -0.261 OA
HETATM    8  C16 UNL     1      19.698   2.389  50.181  1.00  0.00     0.121 C 
HETATM    9  C17 UNL     1      18.679   1.432  50.112  1.00  0.00     0.020 C 
HETATM   10  C18 UNL     1      19.391   0.178  50.655  1.00  0.00     0.071 C 
HETATM   11  H21 UNL     1      20.918   4.174  52.422  1.00  0.00     0.154 HD
ENDROOT
BRANCH   1  12
HETATM   12  O1  UNL     1      22.508   2.696  49.094  1.00  0.00    -0.346 OA
BRANCH  12  13
HETATM   13  C5  UNL     1      23.260   3.509  50.000  1.00  0.00     0.213 C 
BRANCH  13  14
HETATM   14  C4  UNL     1      24.294   4.193  49.156  1.00  0.00     0.272 C 
HETATM   15  N2  UNL     1      23.649   5.236  48.406  1.00  0.00     0.093 N 
HETATM   16  C3  UNL     1      24.154   6.543  48.770  1.00  0.00     0.300 C 
HETATM   17  H8  UNL     1      22.604   5.241  48.541  1.00  0.00     0.316 HD
HETATM   18  C2  UNL     1      25.650   6.511  48.454  1.00  0.00     0.301 C 
HETATM   19  N1  UNL     1      26.322   5.577  49.317  1.00  0.00     0.088 N 
HETATM   20  C1  UNL     1      27.447   4.935  48.689  1.00  0.00     0.310 C 
HETATM   21  C19 UNL     1      25.443   4.661  49.985  1.00  0.00     0.309 C 
ENDBRANCH  13  14
ENDBRANCH  12  13
ENDBRANCH   1  12
BRANCH   4  22
HETATM   22  N3  UNL     1      22.338   0.571  52.757  1.00  0.00    -0.353 N 
HETATM   23  C10 UNL     1      23.702   0.752  52.396  1.00  0.00     0.117 A 
HETATM   24  C11 UNL     1      24.585   0.148  53.176  1.00  0.00     0.075 A 
HETATM   25 CL1  UNL     1      26.250   0.349  52.764  1.00  0.00    -0.080 Cl
HETATM   26  C12 UNL     1      24.171  -0.647  54.327  1.00  0.00     0.046 A 
HETATM   27  C13 UNL     1      22.882  -0.776  54.608  1.00  0.00     0.024 A 
HETATM   28  C14 UNL     1      21.772  -0.162  53.833  1.00  0.00     0.158 A 
BRANCH  26  29
HETATM   29  N4  UNL     1      25.155  -1.280  55.138  1.00  0.00    -0.398 N 
HETATM   30  H14 UNL     1      26.196  -1.187  55.120  1.00  0.00     0.156 HD
HETATM   31  H15 UNL     1      25.233  -1.960  55.925  1.00  0.00     0.156 HD
ENDBRANCH  26  29
ENDBRANCH   4  22
TORSDOF 5
ENDMDL
MODEL 9
REMARK VINA RESULT:      -7.2      3.823      7.422
REMARK  5 active torsions:
REMARK  status: ('A' for Active; 'I' for Inactive)
REMARK    1  A    between atoms: C4_6  and  C5_7 
REMARK    2  A    between atoms: C5_7  and  O1_8 
REMARK    3  A    between atoms: O1_8  and  C6_9 
REMARK    4  A    between atoms: C9_12  and  N3_13 
REMARK    5  A    between atoms: C12_17  and  N4_18 
ROOT
HETATM    1  C6  UNL     1      23.659   3.999  51.881  1.00  0.00     0.104 C 
HETATM    2  C7  UNL     1      24.120   3.473  53.009  1.00  0.00     0.049 C 
HETATM    3  C8  UNL     1      23.729   2.092  52.135  1.00  0.00    -0.028 C 
HETATM    4  C9  UNL     1      22.673   1.491  51.377  1.00  0.00     0.033 C 
HETATM    5  C15 UNL     1      22.768   1.558  49.857  1.00  0.00     0.175 C 
HETATM    6  N5  UNL     1      22.944   2.684  49.074  1.00  0.00    -0.194 NA
HETATM    7  O2  UNL     1      24.029   3.589  49.532  1.00  0.00    -0.261 OA
HETATM    8  C16 UNL     1      24.592   3.271  50.882  1.00  0.00     0.121 C 
HETATM    9  C17 UNL     1      25.681   2.415  51.076  1.00  0.00     0.020 C 
HETATM   10  C18 UNL     1      25.058   1.310  51.949  1.00  0.00     0.071 C 
HETATM   11  H21 UNL     1      22.113   3.316  48.997  1.00  0.00     0.154 HD
ENDROOT
BRANCH   1  12
HETATM   12  O1  UNL     1      22.663   4.815  52.636  1.00  0.00    -0.346 OA
BRANCH  12  13
HETATM   13  C5  UNL     1      21.453   5.022  51.901  1.00  0.00     0.213 C 
BRANCH  13  14
HETATM   14  C4  UNL     1      21.856   5.797  50.683  1.00  0.00     0.272 C 
HETATM   15  N2  UNL     1      21.261   5.174  49.531  1.00  0.00     0.093 N 
HETATM   16  C3  UNL     1      20.321   6.059  48.874  1.00  0.00     0.300 C 
HETATM   17  H8  UNL     1      20.754   4.283  49.774  1.00  0.00     0.316 HD
HETATM   18  C2  UNL     1      21.133   7.285  48.453  1.00  0.00     0.301 C 
HETATM   19  N1  UNL     1      21.597   7.998  49.612  1.00  0.00     0.088 N 
HETATM   20  C1  UNL     1      22.872   8.636  49.411  1.00  0.00     0.310 C 
HETATM   21  C19 UNL     1      21.524   7.245  50.831  1.00  0.00     0.309 C 
ENDBRANCH  13  14
ENDBRANCH  12  13
ENDBRANCH   1  12
BRANCH   4  22
HETATM   22  N3  UNL     1      21.451   0.820  51.903  1.00  0.00    -0.353 N 
HETATM   23  C10 UNL     1      20.254   0.638  51.157  1.00  0.00     0.117 A 
HETATM   24  C11 UNL     1      19.272   0.018  51.794  1.00  0.00     0.075 A 
HETATM   25 CL1  UNL     1      17.804  -0.218  50.915  1.00  0.00    -0.080 Cl
HETATM   26  C12 UNL     1      19.424  -0.442  53.170  1.00  0.00     0.046 A 
HETATM   27  C13 UNL     1      20.568  -0.240  53.809  1.00  0.00     0.024 A 
HETATM   28  C14 UNL     1      21.760   0.437  53.234  1.00  0.00     0.158 A 
BRANCH  26  29
HETATM   29  N4  UNL     1      18.342  -1.103  53.816  1.00  0.00    -0.398 N 
HETATM   30  H14 UNL     1      18.153  -2.126  53.928  1.00  0.00     0.156 HD
HETATM   31  H15 UNL     1      17.465  -0.889  54.340  1.00  0.00     0.156 HD
ENDBRANCH  26  29
ENDBRANCH   4  22
TORSDOF 5
ENDMDL
