MODEL 1
REMARK VINA RESULT:      -7.0      0.000      0.000
REMARK  4 active torsions:
REMARK  status: ('A' for Active; 'I' for Inactive)
REMARK    1  A    between atoms: O1_2  and  C2_3 
REMARK    2  A    between atoms: C6_8  and  N2_9 
REMARK    3  A    between atoms: C11_16  and  N3_17 
REMARK    4  A    between atoms: C13_19  and  O2_20 
ROOT
HETATM    1  C2  UNL     1      26.350   0.189  54.585  1.00  0.00     0.081 A 
HETATM    2  C3  UNL     1      25.313  -0.632  54.713  1.00  0.00     0.067 A 
HETATM    3  C4  UNL     1      24.233  -0.256  53.802  1.00  0.00     0.065 A 
HETATM    4  N1  UNL     1      23.046  -0.489  53.350  1.00  0.00    -0.283 NA
HETATM    5  C5  UNL     1      22.705   0.489  52.333  1.00  0.00     0.207 A 
HETATM    6  C6  UNL     1      23.906   1.372  52.244  1.00  0.00     0.045 A 
HETATM    7  C12 UNL     1      24.794   0.917  53.116  1.00  0.00     0.030 A 
HETATM    8  C13 UNL     1      26.120   1.254  53.558  1.00  0.00     0.212 A 
ENDROOT
BRANCH   6   9
HETATM    9  N2  UNL     1      23.840   2.423  51.317  1.00  0.00    -0.332 N 
HETATM   10  C7  UNL     1      23.212   2.121  50.061  1.00  0.00     0.120 A 
HETATM   11  C8  UNL     1      23.129   3.085  49.155  1.00  0.00     0.087 A 
HETATM   12 CL1  UNL     1      22.371   2.759  47.612  1.00  0.00    -0.080 Cl
HETATM   13  C9  UNL     1      23.645   4.433  49.382  1.00  0.00     0.139 A 
HETATM   14  F1  UNL     1      23.587   5.446  48.499  1.00  0.00    -0.204 F 
HETATM   15  C10 UNL     1      24.208   4.622  50.567  1.00  0.00     0.063 A 
HETATM   16  C11 UNL     1      24.381   3.652  51.688  1.00  0.00     0.208 A 
BRANCH  16  17
HETATM   17  N3  UNL     1      24.014   4.299  52.874  1.00  0.00    -0.407 N 
HETATM   18  H10 UNL     1      24.616   5.082  53.206  1.00  0.00     0.152 HD
HETATM   19  H11 UNL     1      23.012   4.427  53.056  1.00  0.00     0.152 HD
ENDBRANCH  16  17
ENDBRANCH   6   9
BRANCH   8  20
HETATM   20  O2  UNL     1      26.436   2.509  53.933  1.00  0.00    -0.384 OA
HETATM   21  H13 UNL     1      26.146   3.258  53.380  1.00  0.00     0.211 HD
ENDBRANCH   8  20
BRANCH   1  22
HETATM   22  O1  UNL     1      27.551   0.129  55.295  1.00  0.00    -0.357 OA
HETATM   23  C1  UNL     1      28.762  -0.069  54.557  1.00  0.00     0.209 C 
ENDBRANCH   1  22
TORSDOF 4
ENDMDL
MODEL 2
REMARK VINA RESULT:      -6.8      4.081      6.155
REMARK  4 active torsions:
REMARK  status: ('A' for Active; 'I' for Inactive)
REMARK    1  A    between atoms: O1_2  and  C2_3 
REMARK    2  A    between atoms: C6_8  and  N2_9 
REMARK    3  A    between atoms: C11_16  and  N3_17 
REMARK    4  A    between atoms: C13_19  and  O2_20 
ROOT
HETATM    1  C2  UNL     1      24.879   3.949  50.154  1.00  0.00     0.081 A 
HETATM    2  C3  UNL     1      23.739   3.640  50.762  1.00  0.00     0.067 A 
HETATM    3  C4  UNL     1      23.959   2.643  51.809  1.00  0.00     0.065 A 
HETATM    4  N1  UNL     1      23.460   1.902  52.742  1.00  0.00    -0.283 NA
HETATM    5  C5  UNL     1      24.512   1.117  53.362  1.00  0.00     0.207 A 
HETATM    6  C6  UNL     1      25.755   1.513  52.634  1.00  0.00     0.045 A 
HETATM    7  C12 UNL     1      25.408   2.412  51.725  1.00  0.00     0.030 A 
HETATM    8  C13 UNL     1      26.050   3.198  50.706  1.00  0.00     0.212 A 
ENDROOT
BRANCH   6   9
HETATM    9  N2  UNL     1      26.943   0.888  53.043  1.00  0.00    -0.332 N 
HETATM   10  C7  UNL     1      27.050  -0.515  52.761  1.00  0.00     0.120 A 
HETATM   11  C8  UNL     1      28.156  -1.146  53.131  1.00  0.00     0.087 A 
HETATM   12 CL1  UNL     1      28.326  -2.857  52.806  1.00  0.00    -0.080 Cl
HETATM   13  C9  UNL     1      29.262  -0.474  53.808  1.00  0.00     0.139 A 
HETATM   14  F1  UNL     1      30.404  -1.065  54.205  1.00  0.00    -0.204 F 
HETATM   15  C10 UNL     1      29.078   0.820  54.029  1.00  0.00     0.063 A 
HETATM   16  C11 UNL     1      27.904   1.672  53.678  1.00  0.00     0.208 A 
BRANCH  16  17
HETATM   17  N3  UNL     1      28.389   2.858  53.115  1.00  0.00    -0.407 N 
HETATM   18  H10 UNL     1      27.763   3.377  52.463  1.00  0.00     0.152 HD
HETATM   19  H11 UNL     1      28.981   3.456  53.703  1.00  0.00     0.152 HD
ENDBRANCH  16  17
ENDBRANCH   6   9
BRANCH   8  20
HETATM   20  O2  UNL     1      26.868   2.633  49.796  1.00  0.00    -0.384 OA
HETATM   21  H13 UNL     1      26.539   2.478  48.892  1.00  0.00     0.211 HD
ENDBRANCH   8  20
BRANCH   1  22
HETATM   22  O1  UNL     1      25.044   4.862  49.110  1.00  0.00    -0.357 OA
HETATM   23  C1  UNL     1      25.878   6.003  49.335  1.00  0.00     0.209 C 
ENDBRANCH   1  22
TORSDOF 4
ENDMDL
MODEL 3
REMARK VINA RESULT:      -6.6      3.958      5.746
REMARK  4 active torsions:
REMARK  status: ('A' for Active; 'I' for Inactive)
REMARK    1  A    between atoms: O1_2  and  C2_3 
REMARK    2  A    between atoms: C6_8  and  N2_9 
REMARK    3  A    between atoms: C11_16  and  N3_17 
REMARK    4  A    between atoms: C13_19  and  O2_20 
ROOT
HETATM    1  C2  UNL     1      21.777   1.699  52.136  1.00  0.00     0.081 A 
HETATM    2  C3  UNL     1      21.230   0.803  52.949  1.00  0.00     0.067 A 
HETATM    3  C4  UNL     1      22.258   0.059  53.675  1.00  0.00     0.065 A 
HETATM    4  N1  UNL     1      22.548  -0.858  54.536  1.00  0.00    -0.283 NA
HETATM    5  C5  UNL     1      23.989  -0.961  54.681  1.00  0.00     0.207 A 
HETATM    6  C6  UNL     1      24.534   0.068  53.744  1.00  0.00     0.045 A 
HETATM    7  C12 UNL     1      23.500   0.657  53.162  1.00  0.00     0.030 A 
HETATM    8  C13 UNL     1      23.272   1.693  52.191  1.00  0.00     0.212 A 
ENDROOT
BRANCH   6   9
HETATM    9  N2  UNL     1      25.932   0.180  53.686  1.00  0.00    -0.332 N 
HETATM   10  C7  UNL     1      26.650  -1.019  53.359  1.00  0.00     0.120 A 
HETATM   11  C8  UNL     1      27.973  -0.958  53.294  1.00  0.00     0.087 A 
HETATM   12 CL1  UNL     1      28.887  -2.398  52.900  1.00  0.00    -0.080 Cl
HETATM   13  C9  UNL     1      28.722   0.271  53.540  1.00  0.00     0.139 A 
HETATM   14  F1  UNL     1      30.062   0.388  53.487  1.00  0.00    -0.204 F 
HETATM   15  C10 UNL     1      27.979   1.328  53.834  1.00  0.00     0.063 A 
HETATM   16  C11 UNL     1      26.494   1.427  53.946  1.00  0.00     0.208 A 
BRANCH  16  17
HETATM   17  N3  UNL     1      26.091   2.583  53.267  1.00  0.00    -0.407 N 
HETATM   18  H10 UNL     1      25.068   2.758  53.173  1.00  0.00     0.152 HD
HETATM   19  H11 UNL     1      26.657   3.430  53.391  1.00  0.00     0.152 HD
ENDBRANCH  16  17
ENDBRANCH   6   9
BRANCH   8  20
HETATM   20  O2  UNL     1      23.904   1.688  51.001  1.00  0.00    -0.384 OA
HETATM   21  H13 UNL     1      24.801   1.311  50.939  1.00  0.00     0.211 HD
ENDBRANCH   8  20
BRANCH   1  22
HETATM   22  O1  UNL     1      21.097   2.582  51.293  1.00  0.00    -0.357 OA
HETATM   23  C1  UNL     1      20.807   3.895  51.783  1.00  0.00     0.209 C 
ENDBRANCH   1  22
TORSDOF 4
ENDMDL
MODEL 4
REMARK VINA RESULT:      -6.5      2.485      3.149
REMARK  4 active torsions:
REMARK  status: ('A' for Active; 'I' for Inactive)
REMARK    1  A    between atoms: O1_2  and  C2_3 
REMARK    2  A    between atoms: C6_8  and  N2_9 
REMARK    3  A    between atoms: C11_16  and  N3_17 
REMARK    4  A    between atoms: C13_19  and  O2_20 
ROOT
HETATM    1  C2  UNL     1      26.932   0.751  53.512  1.00  0.00     0.081 A 
HETATM    2  C3  UNL     1      27.688   1.292  52.563  1.00  0.00     0.067 A 
HETATM    3  C4  UNL     1      26.902   2.189  51.716  1.00  0.00     0.065 A 
HETATM    4  N1  UNL     1      26.865   2.998  50.711  1.00  0.00    -0.283 NA
HETATM    5  C5  UNL     1      25.518   3.515  50.544  1.00  0.00     0.207 A 
HETATM    6  C6  UNL     1      24.731   2.869  51.637  1.00  0.00     0.045 A 
HETATM    7  C12 UNL     1      25.562   2.093  52.315  1.00  0.00     0.030 A 
HETATM    8  C13 UNL     1      25.508   1.207  53.447  1.00  0.00     0.212 A 
ENDROOT
BRANCH   6   9
HETATM    9  N2  UNL     1      23.368   3.202  51.704  1.00  0.00    -0.332 N 
HETATM   10  C7  UNL     1      22.443   2.128  51.473  1.00  0.00     0.120 A 
HETATM   11  C8  UNL     1      21.146   2.398  51.526  1.00  0.00     0.087 A 
HETATM   12 CL1  UNL     1      19.984   1.119  51.250  1.00  0.00    -0.080 Cl
HETATM   13  C9  UNL     1      20.626   3.734  51.809  1.00  0.00     0.139 A 
HETATM   14  F1  UNL     1      19.322   4.061  51.874  1.00  0.00    -0.204 F 
HETATM   15  C10 UNL     1      21.550   4.662  52.009  1.00  0.00     0.063 A 
HETATM   16  C11 UNL     1      23.036   4.525  51.985  1.00  0.00     0.208 A 
BRANCH  16  17
HETATM   17  N3  UNL     1      23.546   5.200  53.100  1.00  0.00    -0.407 N 
HETATM   18  H10 UNL     1      24.459   4.879  53.487  1.00  0.00     0.152 HD
HETATM   19  H11 UNL     1      23.396   6.214  53.151  1.00  0.00     0.152 HD
ENDBRANCH  16  17
ENDBRANCH   6   9
BRANCH   8  20
HETATM   20  O2  UNL     1      24.576   0.237  53.532  1.00  0.00    -0.384 OA
HETATM   21  H13 UNL     1      24.009   0.190  54.323  1.00  0.00     0.211 HD
ENDBRANCH   8  20
BRANCH   1  22
HETATM   22  O1  UNL     1      27.349  -0.150  54.495  1.00  0.00    -0.357 OA
HETATM   23  C1  UNL     1      28.697  -0.055  54.970  1.00  0.00     0.209 C 
ENDBRANCH   1  22
TORSDOF 4
ENDMDL
MODEL 5
REMARK VINA RESULT:      -6.4      4.067      5.865
REMARK  4 active torsions:
REMARK  status: ('A' for Active; 'I' for Inactive)
REMARK    1  A    between atoms: O1_2  and  C2_3 
REMARK    2  A    between atoms: C6_8  and  N2_9 
REMARK    3  A    between atoms: C11_16  and  N3_17 
REMARK    4  A    between atoms: C13_19  and  O2_20 
ROOT
HETATM    1  C2  UNL     1      19.386  -0.154  52.204  1.00  0.00     0.081 A 
HETATM    2  C3  UNL     1      19.289  -0.929  53.279  1.00  0.00     0.067 A 
HETATM    3  C4  UNL     1      20.580  -1.047  53.956  1.00  0.00     0.065 A 
HETATM    4  N1  UNL     1      21.267  -1.540  54.932  1.00  0.00    -0.283 NA
HETATM    5  C5  UNL     1      22.646  -1.096  54.837  1.00  0.00     0.207 A 
HETATM    6  C6  UNL     1      22.680  -0.237  53.615  1.00  0.00     0.045 A 
HETATM    7  C12 UNL     1      21.455  -0.220  53.112  1.00  0.00     0.030 A 
HETATM    8  C13 UNL     1      20.772   0.371  51.993  1.00  0.00     0.212 A 
ENDROOT
BRANCH   6   9
HETATM    9  N2  UNL     1      23.921   0.331  53.287  1.00  0.00    -0.332 N 
HETATM   10  C7  UNL     1      25.030  -0.578  53.202  1.00  0.00     0.120 A 
HETATM   11  C8  UNL     1      26.221  -0.084  52.895  1.00  0.00     0.087 A 
HETATM   12 CL1  UNL     1      27.599  -1.157  52.782  1.00  0.00    -0.080 Cl
HETATM   13  C9  UNL     1      26.449   1.336  52.641  1.00  0.00     0.139 A 
HETATM   14  F1  UNL     1      27.635   1.889  52.326  1.00  0.00    -0.204 F 
HETATM   15  C10 UNL     1      25.371   2.101  52.740  1.00  0.00     0.063 A 
HETATM   16  C11 UNL     1      23.971   1.706  53.074  1.00  0.00     0.208 A 
BRANCH  16  17
HETATM   17  N3  UNL     1      23.118   2.351  52.170  1.00  0.00    -0.407 N 
HETATM   18  H10 UNL     1      23.553   2.879  51.384  1.00  0.00     0.152 HD
HETATM   19  H11 UNL     1      22.237   1.882  51.930  1.00  0.00     0.152 HD
ENDBRANCH  16  17
ENDBRANCH   6   9
BRANCH   8  20
HETATM   20  O2  UNL     1      21.256   0.263  50.740  1.00  0.00    -0.384 OA
HETATM   21  H13 UNL     1      21.274  -0.611  50.310  1.00  0.00     0.211 HD
ENDBRANCH   8  20
BRANCH   1  22
HETATM   22  O1  UNL     1      18.355   0.178  51.322  1.00  0.00    -0.357 OA
HETATM   23  C1  UNL     1      17.006  -0.068  51.737  1.00  0.00     0.209 C 
ENDBRANCH   1  22
TORSDOF 4
ENDMDL
MODEL 6
REMARK VINA RESULT:      -6.3      7.100      8.823
REMARK  4 active torsions:
REMARK  status: ('A' for Active; 'I' for Inactive)
REMARK    1  A    between atoms: O1_2  and  C2_3 
REMARK    2  A    between atoms: C6_8  and  N2_9 
REMARK    3  A    between atoms: C11_16  and  N3_17 
REMARK    4  A    between atoms: C13_19  and  O2_20 
ROOT
HETATM    1  C2  UNL     1      32.604   6.492  48.314  1.00  0.00     0.081 A 
HETATM    2  C3  UNL     1      32.545   6.902  47.052  1.00  0.00     0.067 A 
HETATM    3  C4  UNL     1      31.195   7.346  46.709  1.00  0.00     0.065 A 
HETATM    4  N1  UNL     1      30.389   7.826  45.822  1.00  0.00    -0.283 NA
HETATM    5  C5  UNL     1      29.063   7.979  46.392  1.00  0.00     0.207 A 
HETATM    6  C6  UNL     1      29.203   7.502  47.801  1.00  0.00     0.045 A 
HETATM    7  C12 UNL     1      30.465   7.134  47.968  1.00  0.00     0.030 A 
HETATM    8  C13 UNL     1      31.288   6.599  49.018  1.00  0.00     0.212 A 
ENDROOT
BRANCH   6   9
HETATM    9  N2  UNL     1      28.044   7.543  48.592  1.00  0.00    -0.332 N 
HETATM   10  C7  UNL     1      27.252   6.346  48.615  1.00  0.00     0.120 A 
HETATM   11  C8  UNL     1      26.148   6.341  49.349  1.00  0.00     0.087 A 
HETATM   12 CL1  UNL     1      25.153   4.902  49.405  1.00  0.00    -0.080 Cl
HETATM   13  C9  UNL     1      25.709   7.495  50.128  1.00  0.00     0.139 A 
HETATM   14  F1  UNL     1      24.599   7.544  50.888  1.00  0.00    -0.204 F 
HETATM   15  C10 UNL     1      26.500   8.556  50.048  1.00  0.00     0.063 A 
HETATM   16  C11 UNL     1      27.766   8.723  49.276  1.00  0.00     0.208 A 
BRANCH  16  17
HETATM   17  N3  UNL     1      28.703   9.334  50.118  1.00  0.00    -0.407 N 
HETATM   18  H10 UNL     1      28.343   9.895  50.919  1.00  0.00     0.152 HD
HETATM   19  H11 UNL     1      29.571   8.824  50.313  1.00  0.00     0.152 HD
ENDBRANCH  16  17
ENDBRANCH   6   9
BRANCH   8  20
HETATM   20  O2  UNL     1      30.908   5.513  49.721  1.00  0.00    -0.384 OA
HETATM   21  H13 UNL     1      31.252   5.387  50.624  1.00  0.00     0.211 HD
ENDBRANCH   8  20
BRANCH   1  22
HETATM   22  O1  UNL     1      33.731   6.002  48.978  1.00  0.00    -0.357 OA
HETATM   23  C1  UNL     1      35.017   6.481  48.569  1.00  0.00     0.209 C 
ENDBRANCH   1  22
TORSDOF 4
ENDMDL
MODEL 7
REMARK VINA RESULT:      -6.2      4.083      6.306
REMARK  4 active torsions:
REMARK  status: ('A' for Active; 'I' for Inactive)
REMARK    1  A    between atoms: O1_2  and  C2_3 
REMARK    2  A    between atoms: C6_8  and  N2_9 
REMARK    3  A    between atoms: C11_16  and  N3_17 
REMARK    4  A    between atoms: C13_19  and  O2_20 
ROOT
HETATM    1  C2  UNL     1      22.319   1.673  51.454  1.00  0.00     0.081 A 
HETATM    2  C3  UNL     1      22.682   2.607  50.582  1.00  0.00     0.067 A 
HETATM    3  C4  UNL     1      24.137   2.751  50.546  1.00  0.00     0.065 A 
HETATM    4  N1  UNL     1      25.169   3.345  50.048  1.00  0.00    -0.283 NA
HETATM    5  C5  UNL     1      26.380   2.812  50.646  1.00  0.00     0.207 A 
HETATM    6  C6  UNL     1      25.898   1.777  51.609  1.00  0.00     0.045 A 
HETATM    7  C12 UNL     1      24.576   1.756  51.535  1.00  0.00     0.030 A 
HETATM    8  C13 UNL     1      23.487   1.043  52.145  1.00  0.00     0.212 A 
ENDROOT
BRANCH   6   9
HETATM    9  N2  UNL     1      26.886   1.095  52.337  1.00  0.00    -0.332 N 
HETATM   10  C7  UNL     1      27.800   1.913  53.083  1.00  0.00     0.120 A 
HETATM   11  C8  UNL     1      28.750   1.309  53.784  1.00  0.00     0.087 A 
HETATM   12 CL1  UNL     1      29.885   2.269  54.707  1.00  0.00    -0.080 Cl
HETATM   13  C9  UNL     1      28.901  -0.143  53.828  1.00  0.00     0.139 A 
HETATM   14  F1  UNL     1      29.845  -0.805  54.522  1.00  0.00    -0.204 F 
HETATM   15  C10 UNL     1      28.015  -0.818  53.111  1.00  0.00     0.063 A 
HETATM   16  C11 UNL     1      26.894  -0.297  52.274  1.00  0.00     0.208 A 
BRANCH  16  17
HETATM   17  N3  UNL     1      25.757  -1.062  52.557  1.00  0.00    -0.407 N 
HETATM   18  H10 UNL     1      25.027  -0.638  53.168  1.00  0.00     0.152 HD
HETATM   19  H11 UNL     1      25.390  -1.663  51.811  1.00  0.00     0.152 HD
ENDBRANCH  16  17
ENDBRANCH   6   9
BRANCH   8  20
HETATM   20  O2  UNL     1      23.386   0.930  53.485  1.00  0.00    -0.384 OA
HETATM   21  H13 UNL     1      22.655   0.410  53.865  1.00  0.00     0.211 HD
ENDBRANCH   8  20
BRANCH   1  22
HETATM   22  O1  UNL     1      21.013   1.272  51.748  1.00  0.00    -0.357 OA
HETATM   23  C1  UNL     1      20.189   2.160  52.511  1.00  0.00     0.209 C 
ENDBRANCH   1  22
TORSDOF 4
ENDMDL
MODEL 8
REMARK VINA RESULT:      -6.2      2.529      3.473
REMARK  4 active torsions:
REMARK  status: ('A' for Active; 'I' for Inactive)
REMARK    1  A    between atoms: O1_2  and  C2_3 
REMARK    2  A    between atoms: C6_8  and  N2_9 
REMARK    3  A    between atoms: C11_16  and  N3_17 
REMARK    4  A    between atoms: C13_19  and  O2_20 
ROOT
HETATM    1  C2  UNL     1      25.669   1.316  52.803  1.00  0.00     0.081 A 
HETATM    2  C3  UNL     1      26.701   1.468  51.981  1.00  0.00     0.067 A 
HETATM    3  C4  UNL     1      26.479   2.585  51.063  1.00  0.00     0.065 A 
HETATM    4  N1  UNL     1      26.917   3.308  50.087  1.00  0.00    -0.283 NA
HETATM    5  C5  UNL     1      25.940   4.330  49.754  1.00  0.00     0.207 A 
HETATM    6  C6  UNL     1      24.816   4.100  50.711  1.00  0.00     0.045 A 
HETATM    7  C12 UNL     1      25.153   3.069  51.472  1.00  0.00     0.030 A 
HETATM    8  C13 UNL     1      24.584   2.318  52.559  1.00  0.00     0.212 A 
ENDROOT
BRANCH   6   9
HETATM    9  N2  UNL     1      23.718   4.968  50.603  1.00  0.00    -0.332 N 
HETATM   10  C7  UNL     1      22.483   4.375  50.173  1.00  0.00     0.120 A 
HETATM   11  C8  UNL     1      21.421   5.159  50.057  1.00  0.00     0.087 A 
HETATM   12 CL1  UNL     1      19.896   4.477  49.535  1.00  0.00    -0.080 Cl
HETATM   13  C9  UNL     1      21.456   6.590  50.347  1.00  0.00     0.139 A 
HETATM   14  F1  UNL     1      20.409   7.430  50.246  1.00  0.00    -0.204 F 
HETATM   15  C10 UNL     1      22.635   7.051  50.738  1.00  0.00     0.063 A 
HETATM   16  C11 UNL     1      23.918   6.310  50.918  1.00  0.00     0.208 A 
BRANCH  16  17
HETATM   17  N3  UNL     1      24.477   6.713  52.136  1.00  0.00    -0.407 N 
HETATM   18  H10 UNL     1      25.303   6.185  52.490  1.00  0.00     0.152 HD
HETATM   19  H11 UNL     1      24.497   7.719  52.340  1.00  0.00     0.152 HD
ENDBRANCH  16  17
ENDBRANCH   6   9
BRANCH   8  20
HETATM   20  O2  UNL     1      23.332   1.823  52.489  1.00  0.00    -0.384 OA
HETATM   21  H13 UNL     1      22.968   1.341  53.253  1.00  0.00     0.211 HD
ENDBRANCH   8  20
BRANCH   1  22
HETATM   22  O1  UNL     1      25.539   0.353  53.806  1.00  0.00    -0.357 OA
HETATM   23  C1  UNL     1      26.538   0.305  54.831  1.00  0.00     0.209 C 
ENDBRANCH   1  22
TORSDOF 4
ENDMDL
MODEL 9
REMARK VINA RESULT:      -6.2      8.212     10.195
REMARK  4 active torsions:
REMARK  status: ('A' for Active; 'I' for Inactive)
REMARK    1  A    between atoms: O1_2  and  C2_3 
REMARK    2  A    between atoms: C6_8  and  N2_9 
REMARK    3  A    between atoms: C11_16  and  N3_17 
REMARK    4  A    between atoms: C13_19  and  O2_20 
ROOT
HETATM    1  C2  UNL     1      27.003   6.828  48.594  1.00  0.00     0.081 A 
HETATM    2  C3  UNL     1      26.896   8.096  48.974  1.00  0.00     0.067 A 
HETATM    3  C4  UNL     1      28.214   8.712  49.121  1.00  0.00     0.065 A 
HETATM    4  N1  UNL     1      28.911   9.758  49.413  1.00  0.00    -0.283 NA
HETATM    5  C5  UNL     1      30.326   9.460  49.285  1.00  0.00     0.207 A 
HETATM    6  C6  UNL     1      30.370   8.029  48.859  1.00  0.00     0.045 A 
HETATM    7  C12 UNL     1      29.118   7.607  48.767  1.00  0.00     0.030 A 
HETATM    8  C13 UNL     1      28.426   6.394  48.426  1.00  0.00     0.212 A 
ENDROOT
BRANCH   6   9
HETATM    9  N2  UNL     1      31.645   7.476  48.660  1.00  0.00    -0.332 N 
HETATM   10  C7  UNL     1      32.596   8.310  47.980  1.00  0.00     0.120 A 
HETATM   11  C8  UNL     1      33.813   7.827  47.770  1.00  0.00     0.087 A 
HETATM   12 CL1  UNL     1      35.003   8.809  46.945  1.00  0.00    -0.080 Cl
HETATM   13  C9  UNL     1      34.221   6.492  48.200  1.00  0.00     0.139 A 
HETATM   14  F1  UNL     1      35.441   5.954  48.013  1.00  0.00    -0.204 F 
HETATM   15  C10 UNL     1      33.281   5.793  48.819  1.00  0.00     0.063 A 
HETATM   16  C11 UNL     1      31.875   6.187  49.132  1.00  0.00     0.208 A 
BRANCH  16  17
HETATM   17  N3  UNL     1      31.614   5.821  50.458  1.00  0.00    -0.407 N 
HETATM   18  H10 UNL     1      30.626   5.858  50.786  1.00  0.00     0.152 HD
HETATM   19  H11 UNL     1      32.166   5.053  50.857  1.00  0.00     0.152 HD
ENDBRANCH  16  17
ENDBRANCH   6   9
BRANCH   8  20
HETATM   20  O2  UNL     1      28.752   5.217  48.997  1.00  0.00    -0.384 OA
HETATM   21  H13 UNL     1      29.418   4.650  48.570  1.00  0.00     0.211 HD
ENDBRANCH   8  20
BRANCH   1  22
HETATM   22  O1  UNL     1      25.952   5.938  48.358  1.00  0.00    -0.357 OA
HETATM   23  C1  UNL     1      25.324   5.321  49.487  1.00  0.00     0.209 C 
ENDBRANCH   1  22
TORSDOF 4
ENDMDL
