MODEL 1
REMARK VINA RESULT:      -7.7      0.000      0.000
REMARK  10 active torsions:
REMARK  status: ('A' for Active; 'I' for Inactive)
REMARK    1  A    between atoms: C2_2  and  C3_3 
REMARK       I    between atoms: C3_3  and  N1_5 
REMARK    2  A    between atoms: N1_5  and  C4_6 
REMARK    3  A    between atoms: C6_8  and  N2_9 
REMARK    4  A    between atoms: N2_9  and  C7_10 
REMARK    5  A    between atoms: C13_19  and  O2_20 
REMARK    6  A    between atoms: C16_23  and  N6_24 
REMARK    7  A    between atoms: N6_24  and  C17_25 
REMARK    8  A    between atoms: N6_24  and  C19_27 
REMARK    9  A    between atoms: C19_27  and  C20_28 
REMARK   10  A    between atoms: C20_28  and  C22_30 
ROOT
HETATM    1  C4  UNL     1      24.027   3.552  51.599  1.00  0.00     0.064 A 
HETATM    2  C5  UNL     1      24.582   2.549  52.354  1.00  0.00     0.065 A 
HETATM    3  C6  UNL     1      23.886   1.549  52.986  1.00  0.00     0.085 A 
HETATM    4  C13 UNL     1      22.497   1.602  52.812  1.00  0.00     0.097 A 
HETATM    5  C15 UNL     1      21.915   2.598  52.059  1.00  0.00     0.070 A 
HETATM    6  C16 UNL     1      22.660   3.579  51.446  1.00  0.00     0.060 A 
ENDROOT
BRANCH   3   7
HETATM    7  N2  UNL     1      24.433   0.517  53.769  1.00  0.00    -0.184 N 
HETATM    8  H6  UNL     1      23.873   0.157  54.599  1.00  0.00     0.184 HD
BRANCH   7   9
HETATM    9  C7  UNL     1      25.699  -0.092  53.546  1.00  0.00     0.743 A 
HETATM   10  N3  UNL     1      26.713   0.551  54.068  1.00  0.00     0.021 NA
HETATM   11  N4  UNL     1      28.018   0.083  53.937  1.00  0.00    -0.253 N 
HETATM   12  C8  UNL     1      29.329   0.525  54.372  1.00  0.00     0.156 A 
HETATM   13  C11 UNL     1      28.115  -1.140  53.190  1.00  0.00     0.068 A 
HETATM   14  C9  UNL     1      30.287  -0.504  53.849  1.00  0.00     0.051 A 
HETATM   15  C10 UNL     1      29.395  -1.460  53.148  1.00  0.00     0.008 A 
HETATM   16  C12 UNL     1      26.958  -1.822  52.628  1.00  0.00     0.167 A 
HETATM   17  N5  UNL     1      25.785  -1.316  52.798  1.00  0.00    -0.071 NA
ENDBRANCH   7   9
ENDBRANCH   3   7
BRANCH   4  18
HETATM   18  O2  UNL     1      21.712   0.629  53.416  1.00  0.00    -0.354 OA
HETATM   19  C14 UNL     1      20.307   0.674  53.489  1.00  0.00     0.210 C 
ENDBRANCH   4  18
BRANCH   1  20
HETATM   20  N1  UNL     1      24.741   4.589  50.959  1.00  0.00    -0.322 N 
HETATM   21  C3  UNL     1      25.638   4.540  49.866  1.00  0.00     0.244 C 
HETATM   22  O1  UNL     1      25.903   3.445  49.317  1.00  0.00    -0.268 OA
HETATM   23  H4  UNL     1      24.660   5.580  51.269  1.00  0.00     0.169 HD
BRANCH  21  24
HETATM   24  C2  UNL     1      26.340   5.657  49.258  1.00  0.00     0.064 C 
HETATM   25  C1  UNL     1      27.377   5.064  48.650  1.00  0.00     0.017 C 
ENDBRANCH  21  24
ENDBRANCH   1  20
BRANCH   6  26
HETATM   26  N6  UNL     1      21.928   4.553  50.672  1.00  0.00    -0.379 N 
BRANCH  26  27
HETATM   27  C17 UNL     1      21.758   5.844  51.332  1.00  0.00     0.118 C 
HETATM   28  C18 UNL     1      22.228   7.007  50.500  1.00  0.00     0.026 C 
ENDBRANCH  26  27
BRANCH  26  29
HETATM   29  C19 UNL     1      21.444   4.132  49.383  1.00  0.00     0.127 C 
BRANCH  29  30
HETATM   30  C20 UNL     1      22.469   3.953  48.321  1.00  0.00    -0.001 C 
HETATM   31  C21 UNL     1      22.656   5.097  47.380  1.00  0.00     0.011 C 
BRANCH  30  32
HETATM   32  C22 UNL     1      22.280   2.660  47.544  1.00  0.00     0.001 C 
HETATM   33  C23 UNL     1      21.861   1.504  48.387  1.00  0.00     0.005 C 
ENDBRANCH  30  32
ENDBRANCH  29  30
ENDBRANCH  26  29
ENDBRANCH   6  26
TORSDOF 10
ENDMDL
MODEL 2
REMARK VINA RESULT:      -7.3      0.710      2.175
REMARK  10 active torsions:
REMARK  status: ('A' for Active; 'I' for Inactive)
REMARK    1  A    between atoms: C2_2  and  C3_3 
REMARK       I    between atoms: C3_3  and  N1_5 
REMARK    2  A    between atoms: N1_5  and  C4_6 
REMARK    3  A    between atoms: C6_8  and  N2_9 
REMARK    4  A    between atoms: N2_9  and  C7_10 
REMARK    5  A    between atoms: C13_19  and  O2_20 
REMARK    6  A    between atoms: C16_23  and  N6_24 
REMARK    7  A    between atoms: N6_24  and  C17_25 
REMARK    8  A    between atoms: N6_24  and  C19_27 
REMARK    9  A    between atoms: C19_27  and  C20_28 
REMARK   10  A    between atoms: C20_28  and  C22_30 
ROOT
HETATM    1  C4  UNL     1      24.170   3.728  51.385  1.00  0.00     0.064 A 
HETATM    2  C5  UNL     1      24.656   2.705  52.160  1.00  0.00     0.065 A 
HETATM    3  C6  UNL     1      23.893   1.778  52.826  1.00  0.00     0.085 A 
HETATM    4  C13 UNL     1      22.510   1.934  52.666  1.00  0.00     0.097 A 
HETATM    5  C15 UNL     1      21.997   2.952  51.892  1.00  0.00     0.070 A 
HETATM    6  C16 UNL     1      22.808   3.856  51.244  1.00  0.00     0.060 A 
ENDROOT
BRANCH   3   7
HETATM    7  N2  UNL     1      24.369   0.728  53.631  1.00  0.00    -0.184 N 
HETATM    8  H6  UNL     1      23.763   0.392  54.439  1.00  0.00     0.184 HD
BRANCH   7   9
HETATM    9  C7  UNL     1      25.618   0.070  53.459  1.00  0.00     0.743 A 
HETATM   10  N3  UNL     1      26.647   0.716  53.949  1.00  0.00     0.021 NA
HETATM   11  N4  UNL     1      27.938   0.203  53.859  1.00  0.00    -0.253 N 
HETATM   12  C8  UNL     1      29.258   0.633  54.278  1.00  0.00     0.156 A 
HETATM   13  C11 UNL     1      28.005  -1.067  53.191  1.00  0.00     0.068 A 
HETATM   14  C9  UNL     1      30.190  -0.454  53.829  1.00  0.00     0.051 A 
HETATM   15  C10 UNL     1      29.276  -1.426  53.181  1.00  0.00     0.008 A 
HETATM   16  C12 UNL     1      26.833  -1.749  52.662  1.00  0.00     0.167 A 
HETATM   17  N5  UNL     1      25.673  -1.200  52.789  1.00  0.00    -0.071 NA
ENDBRANCH   7   9
ENDBRANCH   3   7
BRANCH   4  18
HETATM   18  O2  UNL     1      21.660   1.041  53.303  1.00  0.00    -0.354 OA
HETATM   19  C14 UNL     1      20.336   0.782  52.905  1.00  0.00     0.210 C 
ENDBRANCH   4  18
BRANCH   1  20
HETATM   20  N1  UNL     1      24.953   4.689  50.709  1.00  0.00    -0.322 N 
HETATM   21  C3  UNL     1      25.931   4.525  49.700  1.00  0.00     0.244 C 
HETATM   22  O1  UNL     1      26.214   3.380  49.277  1.00  0.00    -0.268 OA
HETATM   23  H4  UNL     1      24.870   5.707  50.918  1.00  0.00     0.169 HD
BRANCH  21  24
HETATM   24  C2  UNL     1      26.702   5.570  49.048  1.00  0.00     0.064 C 
HETATM   25  C1  UNL     1      27.769   4.908  48.580  1.00  0.00     0.017 C 
ENDBRANCH  21  24
ENDBRANCH   1  20
BRANCH   6  26
HETATM   26  N6  UNL     1      22.143   4.863  50.452  1.00  0.00    -0.379 N 
BRANCH  26  27
HETATM   27  C17 UNL     1      21.613   4.377  49.181  1.00  0.00     0.118 C 
HETATM   28  C18 UNL     1      22.669   4.196  48.124  1.00  0.00     0.026 C 
ENDBRANCH  26  27
BRANCH  26  29
HETATM   29  C19 UNL     1      22.107   6.198  50.989  1.00  0.00     0.127 C 
BRANCH  29  30
HETATM   30  C20 UNL     1      22.716   7.263  50.149  1.00  0.00    -0.001 C 
HETATM   31  C21 UNL     1      23.897   7.969  50.727  1.00  0.00     0.011 C 
BRANCH  30  32
HETATM   32  C22 UNL     1      21.691   8.273  49.657  1.00  0.00     0.001 C 
HETATM   33  C23 UNL     1      20.277   7.839  49.849  1.00  0.00     0.005 C 
ENDBRANCH  30  32
ENDBRANCH  29  30
ENDBRANCH  26  29
ENDBRANCH   6  26
TORSDOF 10
ENDMDL
MODEL 3
REMARK VINA RESULT:      -7.2      3.900      6.950
REMARK  10 active torsions:
REMARK  status: ('A' for Active; 'I' for Inactive)
REMARK    1  A    between atoms: C2_2  and  C3_3 
REMARK       I    between atoms: C3_3  and  N1_5 
REMARK    2  A    between atoms: N1_5  and  C4_6 
REMARK    3  A    between atoms: C6_8  and  N2_9 
REMARK    4  A    between atoms: N2_9  and  C7_10 
REMARK    5  A    between atoms: C13_19  and  O2_20 
REMARK    6  A    between atoms: C16_23  and  N6_24 
REMARK    7  A    between atoms: N6_24  and  C17_25 
REMARK    8  A    between atoms: N6_24  and  C19_27 
REMARK    9  A    between atoms: C19_27  and  C20_28 
REMARK   10  A    between atoms: C20_28  and  C22_30 
ROOT
HETATM    1  C4  UNL     1      28.472   5.882  48.259  1.00  0.00     0.064 A 
HETATM    2  C5  UNL     1      27.759   4.772  48.634  1.00  0.00     0.065 A 
HETATM    3  C6  UNL     1      26.507   4.782  49.199  1.00  0.00     0.085 A 
HETATM    4  C13 UNL     1      25.959   6.058  49.385  1.00  0.00     0.097 A 
HETATM    5  C15 UNL     1      26.654   7.188  49.016  1.00  0.00     0.070 A 
HETATM    6  C16 UNL     1      27.908   7.123  48.453  1.00  0.00     0.060 A 
ENDROOT
BRANCH   3   7
HETATM    7  N2  UNL     1      25.762   3.658  49.598  1.00  0.00    -0.184 N 
HETATM    8  H6  UNL     1      25.098   3.214  48.894  1.00  0.00     0.184 HD
BRANCH   7   9
HETATM    9  C7  UNL     1      25.815   3.059  50.886  1.00  0.00     0.743 A 
HETATM   10  N3  UNL     1      26.946   2.459  51.162  1.00  0.00     0.021 NA
HETATM   11  N4  UNL     1      27.153   1.824  52.384  1.00  0.00    -0.253 N 
HETATM   12  C8  UNL     1      28.241   1.090  53.002  1.00  0.00     0.156 A 
HETATM   13  C11 UNL     1      26.025   1.903  53.270  1.00  0.00     0.068 A 
HETATM   14  C9  UNL     1      27.733   0.696  54.357  1.00  0.00     0.051 A 
HETATM   15  C10 UNL     1      26.363   1.265  54.375  1.00  0.00     0.008 A 
HETATM   16  C12 UNL     1      24.786   2.582  52.920  1.00  0.00     0.167 A 
HETATM   17  N5  UNL     1      24.680   3.144  51.764  1.00  0.00    -0.071 NA
ENDBRANCH   7   9
ENDBRANCH   3   7
BRANCH   4  18
HETATM   18  O2  UNL     1      24.696   6.164  49.950  1.00  0.00    -0.354 OA
HETATM   19  C14 UNL     1      24.409   6.882  51.127  1.00  0.00     0.210 C 
ENDBRANCH   4  18
BRANCH   1  20
HETATM   20  N1  UNL     1      29.764   5.874  47.689  1.00  0.00    -0.322 N 
HETATM   21  C3  UNL     1      31.025   5.645  48.289  1.00  0.00     0.244 C 
HETATM   22  O1  UNL     1      31.105   5.405  49.516  1.00  0.00    -0.268 OA
HETATM   23  H4  UNL     1      29.915   6.056  46.674  1.00  0.00     0.169 HD
BRANCH  21  24
HETATM   24  C2  UNL     1      32.321   5.653  47.634  1.00  0.00     0.064 C 
HETATM   25  C1  UNL     1      32.252   4.592  46.817  1.00  0.00     0.017 C 
ENDBRANCH  21  24
ENDBRANCH   1  20
BRANCH   6  26
HETATM   26  N6  UNL     1      28.520   8.381  48.096  1.00  0.00    -0.379 N 
BRANCH  26  27
HETATM   27  C17 UNL     1      28.017   8.966  46.857  1.00  0.00     0.118 C 
HETATM   28  C18 UNL     1      28.637   8.370  45.621  1.00  0.00     0.026 C 
ENDBRANCH  26  27
BRANCH  26  29
HETATM   29  C19 UNL     1      29.545   8.881  48.975  1.00  0.00     0.127 C 
BRANCH  29  30
HETATM   30  C20 UNL     1      30.499   9.857  48.386  1.00  0.00    -0.001 C 
HETATM   31  C21 UNL     1      31.799   9.304  47.902  1.00  0.00     0.011 C 
BRANCH  30  32
HETATM   32  C22 UNL     1      30.743  11.051  49.295  1.00  0.00     0.001 C 
HETATM   33  C23 UNL     1      30.183  12.331  48.773  1.00  0.00     0.005 C 
ENDBRANCH  30  32
ENDBRANCH  29  30
ENDBRANCH  26  29
ENDBRANCH   6  26
TORSDOF 10
ENDMDL
MODEL 4
REMARK VINA RESULT:      -7.1      1.126      1.925
REMARK  10 active torsions:
REMARK  status: ('A' for Active; 'I' for Inactive)
REMARK    1  A    between atoms: C2_2  and  C3_3 
REMARK       I    between atoms: C3_3  and  N1_5 
REMARK    2  A    between atoms: N1_5  and  C4_6 
REMARK    3  A    between atoms: C6_8  and  N2_9 
REMARK    4  A    between atoms: N2_9  and  C7_10 
REMARK    5  A    between atoms: C13_19  and  O2_20 
REMARK    6  A    between atoms: C16_23  and  N6_24 
REMARK    7  A    between atoms: N6_24  and  C17_25 
REMARK    8  A    between atoms: N6_24  and  C19_27 
REMARK    9  A    between atoms: C19_27  and  C20_28 
REMARK   10  A    between atoms: C20_28  and  C22_30 
ROOT
HETATM    1  C4  UNL     1      24.741   3.975  50.897  1.00  0.00     0.064 A 
HETATM    2  C5  UNL     1      25.171   3.118  51.878  1.00  0.00     0.065 A 
HETATM    3  C6  UNL     1      24.374   2.251  52.585  1.00  0.00     0.085 A 
HETATM    4  C13 UNL     1      23.018   2.285  52.234  1.00  0.00     0.097 A 
HETATM    5  C15 UNL     1      22.561   3.135  51.252  1.00  0.00     0.070 A 
HETATM    6  C16 UNL     1      23.404   3.986  50.573  1.00  0.00     0.060 A 
ENDROOT
BRANCH   3   7
HETATM    7  N2  UNL     1      24.792   1.370  53.598  1.00  0.00    -0.184 N 
HETATM    8  H6  UNL     1      24.099   1.109  54.362  1.00  0.00     0.184 HD
BRANCH   7   9
HETATM    9  C7  UNL     1      26.089   0.796  53.695  1.00  0.00     0.743 A 
HETATM   10  N3  UNL     1      26.185  -0.418  53.212  1.00  0.00     0.021 NA
HETATM   11  N4  UNL     1      27.390  -1.117  53.233  1.00  0.00    -0.253 N 
HETATM   12  C8  UNL     1      27.839  -2.426  52.801  1.00  0.00     0.156 A 
HETATM   13  C11 UNL     1      28.471  -0.378  53.825  1.00  0.00     0.068 A 
HETATM   14  C9  UNL     1      29.295  -2.483  53.158  1.00  0.00     0.051 A 
HETATM   15  C10 UNL     1      29.536  -1.156  53.777  1.00  0.00     0.008 A 
HETATM   16  C12 UNL     1      28.317   0.972  54.349  1.00  0.00     0.167 A 
HETATM   17  N5  UNL     1      27.163   1.544  54.288  1.00  0.00    -0.071 NA
ENDBRANCH   7   9
ENDBRANCH   3   7
BRANCH   4  18
HETATM   18  O2  UNL     1      22.138   1.441  52.897  1.00  0.00    -0.354 OA
HETATM   19  C14 UNL     1      21.546   0.300  52.323  1.00  0.00     0.210 C 
ENDBRANCH   4  18
BRANCH   1  20
HETATM   20  N1  UNL     1      25.557   4.876  50.178  1.00  0.00    -0.322 N 
HETATM   21  C3  UNL     1      26.652   4.628  49.316  1.00  0.00     0.244 C 
HETATM   22  O1  UNL     1      27.029   3.453  49.099  1.00  0.00    -0.268 OA
HETATM   23  H4  UNL     1      25.408   5.906  50.226  1.00  0.00     0.169 HD
BRANCH  21  24
HETATM   24  C2  UNL     1      27.449   5.613  48.607  1.00  0.00     0.064 C 
HETATM   25  C1  UNL     1      26.579   6.612  48.402  1.00  0.00     0.017 C 
ENDBRANCH  21  24
ENDBRANCH   1  20
BRANCH   6  26
HETATM   26  N6  UNL     1      22.799   4.813  49.555  1.00  0.00    -0.379 N 
BRANCH  26  27
HETATM   27  C17 UNL     1      21.969   5.896  50.074  1.00  0.00     0.118 C 
HETATM   28  C18 UNL     1      22.714   7.194  50.235  1.00  0.00     0.026 C 
ENDBRANCH  26  27
BRANCH  26  29
HETATM   29  C19 UNL     1      23.063   4.460  48.185  1.00  0.00     0.127 C 
BRANCH  29  30
HETATM   30  C20 UNL     1      22.080   3.551  47.538  1.00  0.00    -0.001 C 
HETATM   31  C21 UNL     1      22.277   2.089  47.769  1.00  0.00     0.011 C 
BRANCH  30  32
HETATM   32  C22 UNL     1      21.922   3.830  46.052  1.00  0.00     0.001 C 
HETATM   33  C23 UNL     1      21.924   5.281  45.707  1.00  0.00     0.005 C 
ENDBRANCH  30  32
ENDBRANCH  29  30
ENDBRANCH  26  29
ENDBRANCH   6  26
TORSDOF 10
ENDMDL
MODEL 5
REMARK VINA RESULT:      -7.0      1.316      2.752
REMARK  10 active torsions:
REMARK  status: ('A' for Active; 'I' for Inactive)
REMARK    1  A    between atoms: C2_2  and  C3_3 
REMARK       I    between atoms: C3_3  and  N1_5 
REMARK    2  A    between atoms: N1_5  and  C4_6 
REMARK    3  A    between atoms: C6_8  and  N2_9 
REMARK    4  A    between atoms: N2_9  and  C7_10 
REMARK    5  A    between atoms: C13_19  and  O2_20 
REMARK    6  A    between atoms: C16_23  and  N6_24 
REMARK    7  A    between atoms: N6_24  and  C17_25 
REMARK    8  A    between atoms: N6_24  and  C19_27 
REMARK    9  A    between atoms: C19_27  and  C20_28 
REMARK   10  A    between atoms: C20_28  and  C22_30 
ROOT
HETATM    1  C4  UNL     1      24.654   4.094  50.507  1.00  0.00     0.064 A 
HETATM    2  C5  UNL     1      25.175   3.503  51.630  1.00  0.00     0.065 A 
HETATM    3  C6  UNL     1      24.525   2.590  52.425  1.00  0.00     0.085 A 
HETATM    4  C13 UNL     1      23.227   2.270  52.007  1.00  0.00     0.097 A 
HETATM    5  C15 UNL     1      22.681   2.849  50.882  1.00  0.00     0.070 A 
HETATM    6  C16 UNL     1      23.376   3.760  50.120  1.00  0.00     0.060 A 
ENDROOT
BRANCH   3   7
HETATM    7  N2  UNL     1      25.037   1.978  53.583  1.00  0.00    -0.184 N 
HETATM    8  H6  UNL     1      24.501   2.091  54.496  1.00  0.00     0.184 HD
BRANCH   7   9
HETATM    9  C7  UNL     1      26.234   1.214  53.640  1.00  0.00     0.743 A 
HETATM   10  N3  UNL     1      26.128  -0.003  53.167  1.00  0.00     0.021 NA
HETATM   11  N4  UNL     1      27.213  -0.876  53.153  1.00  0.00    -0.253 N 
HETATM   12  C8  UNL     1      27.443  -2.240  52.720  1.00  0.00     0.156 A 
HETATM   13  C11 UNL     1      28.414  -0.307  53.699  1.00  0.00     0.068 A 
HETATM   14  C9  UNL     1      28.885  -2.516  53.026  1.00  0.00     0.051 A 
HETATM   15  C10 UNL     1      29.346  -1.238  53.622  1.00  0.00     0.008 A 
HETATM   16  C12 UNL     1      28.485   1.053  54.215  1.00  0.00     0.167 A 
HETATM   17  N5  UNL     1      27.430   1.793  54.188  1.00  0.00    -0.071 NA
ENDBRANCH   7   9
ENDBRANCH   3   7
BRANCH   4  18
HETATM   18  O2  UNL     1      22.495   1.354  52.750  1.00  0.00    -0.354 OA
HETATM   19  C14 UNL     1      22.093   0.090  52.281  1.00  0.00     0.210 C 
ENDBRANCH   4  18
BRANCH   1  20
HETATM   20  N1  UNL     1      25.316   5.042  49.696  1.00  0.00    -0.322 N 
HETATM   21  C3  UNL     1      26.587   4.986  49.079  1.00  0.00     0.244 C 
HETATM   22  O1  UNL     1      27.313   3.974  49.220  1.00  0.00    -0.268 OA
HETATM   23  H4  UNL     1      24.880   5.959  49.460  1.00  0.00     0.169 HD
BRANCH  21  24
HETATM   24  C2  UNL     1      27.206   6.009  48.253  1.00  0.00     0.064 C 
HETATM   25  C1  UNL     1      28.504   5.673  48.282  1.00  0.00     0.017 C 
ENDBRANCH  21  24
ENDBRANCH   1  20
BRANCH   6  26
HETATM   26  N6  UNL     1      22.695   4.278  48.957  1.00  0.00    -0.379 N 
BRANCH  26  27
HETATM   27  C17 UNL     1      22.533   3.312  47.874  1.00  0.00     0.118 C 
HETATM   28  C18 UNL     1      21.140   3.283  47.304  1.00  0.00     0.026 C 
ENDBRANCH  26  27
BRANCH  26  29
HETATM   29  C19 UNL     1      22.291   5.659  48.998  1.00  0.00     0.127 C 
BRANCH  29  30
HETATM   30  C20 UNL     1      21.255   6.012  50.005  1.00  0.00    -0.001 C 
HETATM   31  C21 UNL     1      19.914   6.390  49.470  1.00  0.00     0.011 C 
BRANCH  30  32
HETATM   32  C22 UNL     1      21.740   7.060  50.994  1.00  0.00     0.001 C 
HETATM   33  C23 UNL     1      23.033   7.697  50.613  1.00  0.00     0.005 C 
ENDBRANCH  30  32
ENDBRANCH  29  30
ENDBRANCH  26  29
ENDBRANCH   6  26
TORSDOF 10
ENDMDL
MODEL 6
REMARK VINA RESULT:      -7.0      2.630      6.975
REMARK  10 active torsions:
REMARK  status: ('A' for Active; 'I' for Inactive)
REMARK    1  A    between atoms: C2_2  and  C3_3 
REMARK       I    between atoms: C3_3  and  N1_5 
REMARK    2  A    between atoms: N1_5  and  C4_6 
REMARK    3  A    between atoms: C6_8  and  N2_9 
REMARK    4  A    between atoms: N2_9  and  C7_10 
REMARK    5  A    between atoms: C13_19  and  O2_20 
REMARK    6  A    between atoms: C16_23  and  N6_24 
REMARK    7  A    between atoms: N6_24  and  C17_25 
REMARK    8  A    between atoms: N6_24  and  C19_27 
REMARK    9  A    between atoms: C19_27  and  C20_28 
REMARK   10  A    between atoms: C20_28  and  C22_30 
ROOT
HETATM    1  C4  UNL     1      23.384   3.086  51.747  1.00  0.00     0.064 A 
HETATM    2  C5  UNL     1      24.108   4.251  51.770  1.00  0.00     0.065 A 
HETATM    3  C6  UNL     1      23.588   5.516  51.644  1.00  0.00     0.085 A 
HETATM    4  C13 UNL     1      22.197   5.563  51.484  1.00  0.00     0.097 A 
HETATM    5  C15 UNL     1      21.447   4.408  51.458  1.00  0.00     0.070 A 
HETATM    6  C16 UNL     1      22.019   3.163  51.589  1.00  0.00     0.060 A 
ENDROOT
BRANCH   3   7
HETATM    7  N2  UNL     1      24.312   6.722  51.657  1.00  0.00    -0.184 N 
HETATM    8  H6  UNL     1      24.413   7.243  52.580  1.00  0.00     0.184 HD
BRANCH   7   9
HETATM    9  C7  UNL     1      24.924   7.318  50.521  1.00  0.00     0.743 A 
HETATM   10  N3  UNL     1      25.960   6.666  50.055  1.00  0.00     0.021 NA
HETATM   11  N4  UNL     1      26.668   7.122  48.946  1.00  0.00    -0.253 N 
HETATM   12  C8  UNL     1      27.819   6.668  48.190  1.00  0.00     0.156 A 
HETATM   13  C11 UNL     1      26.148   8.343  48.396  1.00  0.00     0.068 A 
HETATM   14  C9  UNL     1      28.009   7.688  47.107  1.00  0.00     0.051 A 
HETATM   15  C10 UNL     1      26.910   8.651  47.363  1.00  0.00     0.008 A 
HETATM   16  C12 UNL     1      24.991   9.033  48.948  1.00  0.00     0.167 A 
HETATM   17  N5  UNL     1      24.395   8.539  49.979  1.00  0.00    -0.071 NA
ENDBRANCH   7   9
ENDBRANCH   3   7
BRANCH   4  18
HETATM   18  O2  UNL     1      21.584   6.801  51.349  1.00  0.00    -0.354 OA
HETATM   19  C14 UNL     1      21.023   7.285  50.152  1.00  0.00     0.210 C 
ENDBRANCH   4  18
BRANCH   1  20
HETATM   20  N1  UNL     1      23.919   1.784  51.864  1.00  0.00    -0.322 N 
HETATM   21  C3  UNL     1      24.916   1.281  52.733  1.00  0.00     0.244 C 
HETATM   22  O1  UNL     1      25.469   2.039  53.563  1.00  0.00    -0.268 OA
HETATM   23  H4  UNL     1      23.592   1.003  51.257  1.00  0.00     0.169 HD
BRANCH  21  24
HETATM   24  C2  UNL     1      25.418  -0.080  52.795  1.00  0.00     0.064 C 
HETATM   25  C1  UNL     1      26.680   0.045  52.358  1.00  0.00     0.017 C 
ENDBRANCH  21  24
ENDBRANCH   1  20
BRANCH   6  26
HETATM   26  N6  UNL     1      21.118   2.035  51.562  1.00  0.00    -0.379 N 
BRANCH  26  27
HETATM   27  C17 UNL     1      20.576   1.728  50.243  1.00  0.00     0.118 C 
HETATM   28  C18 UNL     1      21.550   1.007  49.350  1.00  0.00     0.026 C 
ENDBRANCH  26  27
BRANCH  26  29
HETATM   29  C19 UNL     1      20.852   1.383  52.818  1.00  0.00     0.127 C 
BRANCH  29  30
HETATM   30  C20 UNL     1      20.671  -0.092  52.769  1.00  0.00    -0.001 C 
HETATM   31  C21 UNL     1      19.393  -0.622  53.328  1.00  0.00     0.011 C 
BRANCH  30  32
HETATM   32  C22 UNL     1      21.854  -0.842  53.361  1.00  0.00     0.001 C 
HETATM   33  C23 UNL     1      21.811  -0.959  54.846  1.00  0.00     0.005 C 
ENDBRANCH  30  32
ENDBRANCH  29  30
ENDBRANCH  26  29
ENDBRANCH   6  26
TORSDOF 10
ENDMDL
MODEL 7
REMARK VINA RESULT:      -7.0      1.715      2.777
REMARK  10 active torsions:
REMARK  status: ('A' for Active; 'I' for Inactive)
REMARK    1  A    between atoms: C2_2  and  C3_3 
REMARK       I    between atoms: C3_3  and  N1_5 
REMARK    2  A    between atoms: N1_5  and  C4_6 
REMARK    3  A    between atoms: C6_8  and  N2_9 
REMARK    4  A    between atoms: N2_9  and  C7_10 
REMARK    5  A    between atoms: C13_19  and  O2_20 
REMARK    6  A    between atoms: C16_23  and  N6_24 
REMARK    7  A    between atoms: N6_24  and  C17_25 
REMARK    8  A    between atoms: N6_24  and  C19_27 
REMARK    9  A    between atoms: C19_27  and  C20_28 
REMARK   10  A    between atoms: C20_28  and  C22_30 
ROOT
HETATM    1  C4  UNL     1      23.663   3.680  50.874  1.00  0.00     0.064 A 
HETATM    2  C5  UNL     1      24.512   3.536  51.942  1.00  0.00     0.065 A 
HETATM    3  C6  UNL     1      24.529   2.471  52.809  1.00  0.00     0.085 A 
HETATM    4  C13 UNL     1      23.580   1.477  52.534  1.00  0.00     0.097 A 
HETATM    5  C15 UNL     1      22.717   1.597  51.468  1.00  0.00     0.070 A 
HETATM    6  C16 UNL     1      22.742   2.687  50.628  1.00  0.00     0.060 A 
ENDROOT
BRANCH   3   7
HETATM    7  N2  UNL     1      25.384   2.307  53.913  1.00  0.00    -0.184 N 
HETATM    8  H6  UNL     1      25.045   2.626  54.870  1.00  0.00     0.184 HD
BRANCH   7   9
HETATM    9  C7  UNL     1      26.691   1.749  53.856  1.00  0.00     0.743 A 
HETATM   10  N3  UNL     1      26.725   0.468  53.584  1.00  0.00     0.021 NA
HETATM   11  N4  UNL     1      27.929  -0.225  53.494  1.00  0.00    -0.253 N 
HETATM   12  C8  UNL     1      28.322  -1.594  53.219  1.00  0.00     0.156 A 
HETATM   13  C11 UNL     1      29.083   0.599  53.725  1.00  0.00     0.068 A 
HETATM   14  C9  UNL     1      29.821  -1.598  53.292  1.00  0.00     0.051 A 
HETATM   15  C10 UNL     1      30.140  -0.184  53.609  1.00  0.00     0.008 A 
HETATM   16  C12 UNL     1      28.997   2.021  54.025  1.00  0.00     0.167 A 
HETATM   17  N5  UNL     1      27.838   2.582  54.089  1.00  0.00    -0.071 NA
ENDBRANCH   7   9
ENDBRANCH   3   7
BRANCH   4  18
HETATM   18  O2  UNL     1      23.525   0.363  53.360  1.00  0.00    -0.354 OA
HETATM   19  C14 UNL     1      22.536  -0.635  53.283  1.00  0.00     0.210 C 
ENDBRANCH   4  18
BRANCH   1  20
HETATM   20  N1  UNL     1      23.635   4.780  49.989  1.00  0.00    -0.322 N 
HETATM   21  C3  UNL     1      24.616   5.245  49.081  1.00  0.00     0.244 C 
HETATM   22  O1  UNL     1      25.715   4.651  48.980  1.00  0.00    -0.268 OA
HETATM   23  H4  UNL     1      22.806   5.407  49.922  1.00  0.00     0.169 HD
BRANCH  21  24
HETATM   24  C2  UNL     1      24.516   6.393  48.196  1.00  0.00     0.064 C 
HETATM   25  C1  UNL     1      25.712   6.984  48.335  1.00  0.00     0.017 C 
ENDBRANCH  21  24
ENDBRANCH   1  20
BRANCH   6  26
HETATM   26  N6  UNL     1      21.794   2.681  49.538  1.00  0.00    -0.379 N 
BRANCH  26  27
HETATM   27  C17 UNL     1      22.327   2.169  48.279  1.00  0.00     0.118 C 
HETATM   28  C18 UNL     1      22.080   3.085  47.110  1.00  0.00     0.026 C 
ENDBRANCH  26  27
BRANCH  26  29
HETATM   29  C19 UNL     1      20.477   3.192  49.815  1.00  0.00     0.127 C 
BRANCH  29  30
HETATM   30  C20 UNL     1      19.342   2.276  49.528  1.00  0.00    -0.001 C 
HETATM   31  C21 UNL     1      18.300   2.788  48.590  1.00  0.00     0.011 C 
BRANCH  30  32
HETATM   32  C22 UNL     1      18.691   1.743  50.795  1.00  0.00     0.001 C 
HETATM   33  C23 UNL     1      19.185   0.399  51.207  1.00  0.00     0.005 C 
ENDBRANCH  30  32
ENDBRANCH  29  30
ENDBRANCH  26  29
ENDBRANCH   6  26
TORSDOF 10
ENDMDL
MODEL 8
REMARK VINA RESULT:      -6.9      1.552      4.600
REMARK  10 active torsions:
REMARK  status: ('A' for Active; 'I' for Inactive)
REMARK    1  A    between atoms: C2_2  and  C3_3 
REMARK       I    between atoms: C3_3  and  N1_5 
REMARK    2  A    between atoms: N1_5  and  C4_6 
REMARK    3  A    between atoms: C6_8  and  N2_9 
REMARK    4  A    between atoms: N2_9  and  C7_10 
REMARK    5  A    between atoms: C13_19  and  O2_20 
REMARK    6  A    between atoms: C16_23  and  N6_24 
REMARK    7  A    between atoms: N6_24  and  C17_25 
REMARK    8  A    between atoms: N6_24  and  C19_27 
REMARK    9  A    between atoms: C19_27  and  C20_28 
REMARK   10  A    between atoms: C20_28  and  C22_30 
ROOT
HETATM    1  C4  UNL     1      22.470   1.885  52.184  1.00  0.00     0.064 A 
HETATM    2  C5  UNL     1      23.594   2.059  52.951  1.00  0.00     0.065 A 
HETATM    3  C6  UNL     1      24.753   2.670  52.540  1.00  0.00     0.085 A 
HETATM    4  C13 UNL     1      24.732   3.136  51.219  1.00  0.00     0.097 A 
HETATM    5  C15 UNL     1      23.616   2.974  50.428  1.00  0.00     0.070 A 
HETATM    6  C16 UNL     1      22.478   2.353  50.890  1.00  0.00     0.060 A 
ENDROOT
BRANCH   3   7
HETATM    7  N2  UNL     1      25.918   2.852  53.306  1.00  0.00    -0.184 N 
HETATM    8  H6  UNL     1      26.043   3.772  53.828  1.00  0.00     0.184 HD
BRANCH   7   9
HETATM    9  C7  UNL     1      26.964   1.899  53.439  1.00  0.00     0.743 A 
HETATM   10  N3  UNL     1      26.655   0.690  53.042  1.00  0.00     0.021 NA
HETATM   11  N4  UNL     1      27.572  -0.355  53.109  1.00  0.00    -0.253 N 
HETATM   12  C8  UNL     1      27.567  -1.765  52.768  1.00  0.00     0.156 A 
HETATM   13  C11 UNL     1      28.847   0.034  53.644  1.00  0.00     0.068 A 
HETATM   14  C9  UNL     1      28.937  -2.263  53.124  1.00  0.00     0.051 A 
HETATM   15  C10 UNL     1      29.605  -1.047  53.647  1.00  0.00     0.008 A 
HETATM   16  C12 UNL     1      29.147   1.393  54.073  1.00  0.00     0.167 A 
HETATM   17  N5  UNL     1      28.236   2.300  53.975  1.00  0.00    -0.071 NA
ENDBRANCH   7   9
ENDBRANCH   3   7
BRANCH   4  18
HETATM   18  O2  UNL     1      25.862   3.767  50.717  1.00  0.00    -0.354 OA
HETATM   19  C14 UNL     1      25.850   4.696  49.659  1.00  0.00     0.210 C 
ENDBRANCH   4  18
BRANCH   1  20
HETATM   20  N1  UNL     1      21.282   1.246  52.601  1.00  0.00    -0.322 N 
HETATM   21  C3  UNL     1      21.055  -0.094  52.995  1.00  0.00     0.244 C 
HETATM   22  O1  UNL     1      22.000  -0.917  53.003  1.00  0.00    -0.268 OA
HETATM   23  H4  UNL     1      20.377   1.760  52.660  1.00  0.00     0.169 HD
BRANCH  21  24
HETATM   24  C2  UNL     1      19.795  -0.683  53.414  1.00  0.00     0.064 C 
HETATM   25  C1  UNL     1      18.935  -0.247  52.483  1.00  0.00     0.017 C 
ENDBRANCH  21  24
ENDBRANCH   1  20
BRANCH   6  26
HETATM   26  N6  UNL     1      21.373   2.264  49.964  1.00  0.00    -0.379 N 
BRANCH  26  27
HETATM   27  C17 UNL     1      21.537   1.251  48.927  1.00  0.00     0.118 C 
HETATM   28  C18 UNL     1      22.376   1.715  47.766  1.00  0.00     0.026 C 
ENDBRANCH  26  27
BRANCH  26  29
HETATM   29  C19 UNL     1      20.282   3.182  50.160  1.00  0.00     0.127 C 
BRANCH  29  30
HETATM   30  C20 UNL     1      20.021   4.141  49.054  1.00  0.00    -0.001 C 
HETATM   31  C21 UNL     1      19.347   3.587  47.843  1.00  0.00     0.011 C 
BRANCH  30  32
HETATM   32  C22 UNL     1      21.265   4.917  48.652  1.00  0.00     0.001 C 
HETATM   33  C23 UNL     1      21.609   6.029  49.583  1.00  0.00     0.005 C 
ENDBRANCH  30  32
ENDBRANCH  29  30
ENDBRANCH  26  29
ENDBRANCH   6  26
TORSDOF 10
ENDMDL
MODEL 9
REMARK VINA RESULT:      -6.8      2.147      8.321
REMARK  10 active torsions:
REMARK  status: ('A' for Active; 'I' for Inactive)
REMARK    1  A    between atoms: C2_2  and  C3_3 
REMARK       I    between atoms: C3_3  and  N1_5 
REMARK    2  A    between atoms: N1_5  and  C4_6 
REMARK    3  A    between atoms: C6_8  and  N2_9 
REMARK    4  A    between atoms: N2_9  and  C7_10 
REMARK    5  A    between atoms: C13_19  and  O2_20 
REMARK    6  A    between atoms: C16_23  and  N6_24 
REMARK    7  A    between atoms: N6_24  and  C17_25 
REMARK    8  A    between atoms: N6_24  and  C19_27 
REMARK    9  A    between atoms: C19_27  and  C20_28 
REMARK   10  A    between atoms: C20_28  and  C22_30 
ROOT
HETATM    1  C4  UNL     1      24.310   2.602  51.877  1.00  0.00     0.064 A 
HETATM    2  C5  UNL     1      23.637   3.496  51.083  1.00  0.00     0.065 A 
HETATM    3  C6  UNL     1      24.196   4.251  50.082  1.00  0.00     0.085 A 
HETATM    4  C13 UNL     1      25.570   4.052  49.897  1.00  0.00     0.097 A 
HETATM    5  C15 UNL     1      26.269   3.160  50.680  1.00  0.00     0.070 A 
HETATM    6  C16 UNL     1      25.659   2.427  51.672  1.00  0.00     0.060 A 
ENDROOT
BRANCH   3   7
HETATM    7  N2  UNL     1      23.527   5.178  49.262  1.00  0.00    -0.184 N 
HETATM    8  H6  UNL     1      23.486   6.195  49.574  1.00  0.00     0.184 HD
BRANCH   7   9
HETATM    9  C7  UNL     1      22.883   4.864  48.034  1.00  0.00     0.743 A 
HETATM   10  N3  UNL     1      22.791   5.866  47.195  1.00  0.00     0.021 NA
HETATM   11  N4  UNL     1      22.187   5.718  45.949  1.00  0.00    -0.253 N 
HETATM   12  C8  UNL     1      21.923   6.582  44.814  1.00  0.00     0.156 A 
HETATM   13  C11 UNL     1      21.695   4.391  45.704  1.00  0.00     0.068 A 
HETATM   14  C9  UNL     1      21.221   5.714  43.812  1.00  0.00     0.051 A 
HETATM   15  C10 UNL     1      21.154   4.401  44.500  1.00  0.00     0.008 A 
HETATM   16  C12 UNL     1      21.819   3.307  46.668  1.00  0.00     0.167 A 
HETATM   17  N5  UNL     1      22.395   3.533  47.799  1.00  0.00    -0.071 NA
ENDBRANCH   7   9
ENDBRANCH   3   7
BRANCH   4  18
HETATM   18  O2  UNL     1      26.220   4.774  48.905  1.00  0.00    -0.354 OA
HETATM   19  C14 UNL     1      27.615   4.785  48.714  1.00  0.00     0.210 C 
ENDBRANCH   4  18
BRANCH   1  20
HETATM   20  N1  UNL     1      23.738   1.834  52.915  1.00  0.00    -0.322 N 
HETATM   21  C3  UNL     1      22.755   0.818  52.865  1.00  0.00     0.244 C 
HETATM   22  O1  UNL     1      22.252   0.482  51.767  1.00  0.00    -0.268 OA
HETATM   23  H4  UNL     1      24.021   1.964  53.910  1.00  0.00     0.169 HD
BRANCH  21  24
HETATM   24  C2  UNL     1      22.212   0.067  53.984  1.00  0.00     0.064 C 
HETATM   25  C1  UNL     1      22.131  -1.179  53.497  1.00  0.00     0.017 C 
ENDBRANCH  21  24
ENDBRANCH   1  20
BRANCH   6  26
HETATM   26  N6  UNL     1      26.502   1.514  52.408  1.00  0.00    -0.379 N 
BRANCH  26  27
HETATM   27  C17 UNL     1      27.067   2.071  53.632  1.00  0.00     0.118 C 
HETATM   28  C18 UNL     1      28.536   2.384  53.524  1.00  0.00     0.026 C 
ENDBRANCH  26  27
BRANCH  26  29
HETATM   29  C19 UNL     1      26.697   0.205  51.842  1.00  0.00     0.127 C 
BRANCH  29  30
HETATM   30  C20 UNL     1      26.371  -0.948  52.722  1.00  0.00    -0.001 C 
HETATM   31  C21 UNL     1      25.850  -0.617  54.081  1.00  0.00     0.011 C 
BRANCH  30  32
HETATM   32  C22 UNL     1      27.517  -1.941  52.827  1.00  0.00     0.001 C 
HETATM   33  C23 UNL     1      28.789  -1.344  53.324  1.00  0.00     0.005 C 
ENDBRANCH  30  32
ENDBRANCH  29  30
ENDBRANCH  26  29
ENDBRANCH   6  26
TORSDOF 10
ENDMDL
