MODEL 1
REMARK VINA RESULT:      -7.5      0.000      0.000
REMARK  3 active torsions:
REMARK  status: ('A' for Active; 'I' for Inactive)
REMARK    1  A    between atoms: O1_2  and  C2_3 
REMARK    2  A    between atoms: N1_15  and  N2_16 
REMARK    3  A    between atoms: C11_17  and  C12_18 
ROOT
HETATM    1  C2  UNL     1      23.228   3.056  49.660  1.00  0.00     0.165 C 
HETATM    2  C3  UNL     1      23.639   4.104  50.370  1.00  0.00     0.114 C 
HETATM    3  S1  UNL     1      23.710   4.577  52.088  1.00  0.00    -0.062 SA
HETATM    4  S2  UNL     1      23.975   2.875  53.293  1.00  0.00    -0.052 SA
HETATM    5  C4  UNL     1      24.032   1.345  52.318  1.00  0.00     0.157 A 
HETATM    6  C5  UNL     1      25.280   1.389  51.462  1.00  0.00     0.081 A 
HETATM    7  C6  UNL     1      26.271   0.361  51.784  1.00  0.00     0.001 A 
HETATM    8  C7  UNL     1      26.300  -0.613  52.683  1.00  0.00     0.030 A 
HETATM    9 CL1  UNL     1      27.594  -1.750  52.909  1.00  0.00    -0.085 Cl
HETATM   10  C8  UNL     1      25.078  -0.646  53.514  1.00  0.00     0.029 A 
HETATM   11  C9  UNL     1      24.119   0.240  53.305  1.00  0.00    -0.039 A 
HETATM   12  C10 UNL     1      22.912   0.133  54.200  1.00  0.00     0.047 C 
HETATM   13  N1  UNL     1      22.823   1.221  51.494  1.00  0.00    -0.183 N 
HETATM   14  N3  UNL     1      22.660   1.896  50.258  1.00  0.00    -0.259 N 
HETATM   15  H20 UNL     1      21.939   1.409  49.642  1.00  0.00     0.191 HD
ENDROOT
BRANCH  13  16
HETATM   16  N2  UNL     1      21.722   0.432  51.841  1.00  0.00    -0.167 NA
HETATM   17  C11 UNL     1      20.519   0.894  51.778  1.00  0.00     0.147 C 
BRANCH  17  18
HETATM   18  C12 UNL     1      19.377   0.025  52.155  1.00  0.00    -0.039 A 
HETATM   19  C13 UNL     1      19.574  -0.699  53.242  1.00  0.00     0.008 A 
HETATM   20  C14 UNL     1      18.489  -1.575  53.668  1.00  0.00    -0.003 A 
HETATM   21  C15 UNL     1      17.433  -1.517  52.877  1.00  0.00    -0.026 A 
HETATM   22  C16 UNL     1      17.087  -0.764  51.651  1.00  0.00     0.032 A 
HETATM   23  C17 UNL     1      18.213   0.118  51.248  1.00  0.00     0.043 A 
ENDBRANCH  17  18
ENDBRANCH  13  16
BRANCH   1  24
HETATM   24  O1  UNL     1      23.338   3.044  48.254  1.00  0.00    -0.339 OA
HETATM   25  C1  UNL     1      22.523   2.185  47.480  1.00  0.00     0.211 C 
ENDBRANCH   1  24
TORSDOF 3
ENDMDL
MODEL 2
REMARK VINA RESULT:      -7.4      4.702      8.868
REMARK  3 active torsions:
REMARK  status: ('A' for Active; 'I' for Inactive)
REMARK    1  A    between atoms: O1_2  and  C2_3 
REMARK    2  A    between atoms: N1_15  and  N2_16 
REMARK    3  A    between atoms: C11_17  and  C12_18 
ROOT
HETATM    1  C2  UNL     1      25.994   2.036  51.475  1.00  0.00     0.165 C 
HETATM    2  C3  UNL     1      25.151   2.246  52.484  1.00  0.00     0.114 C 
HETATM    3  S1  UNL     1      24.138   3.583  53.089  1.00  0.00    -0.062 SA
HETATM    4  S2  UNL     1      23.486   4.775  51.484  1.00  0.00    -0.052 SA
HETATM    5  C4  UNL     1      24.128   4.191  49.890  1.00  0.00     0.157 A 
HETATM    6  C5  UNL     1      23.517   2.834  49.614  1.00  0.00     0.081 A 
HETATM    7  C6  UNL     1      22.634   2.795  48.447  1.00  0.00     0.001 A 
HETATM    8  C7  UNL     1      22.255   3.715  47.572  1.00  0.00     0.030 A 
HETATM    9 CL1  UNL     1      21.179   3.462  46.232  1.00  0.00    -0.085 Cl
HETATM   10  C8  UNL     1      22.856   5.036  47.851  1.00  0.00     0.029 A 
HETATM   11  C9  UNL     1      23.670   5.181  48.883  1.00  0.00    -0.039 A 
HETATM   12  C10 UNL     1      24.234   6.562  49.093  1.00  0.00     0.047 C 
HETATM   13  N1  UNL     1      25.595   4.120  49.927  1.00  0.00    -0.183 N 
HETATM   14  N3  UNL     1      26.298   3.033  50.506  1.00  0.00    -0.259 N 
HETATM   15  H20 UNL     1      27.287   2.958  50.114  1.00  0.00     0.191 HD
ENDROOT
BRANCH  13  16
HETATM   16  N2  UNL     1      26.436   5.104  49.401  1.00  0.00    -0.167 NA
HETATM   17  C11 UNL     1      27.487   4.794  48.718  1.00  0.00     0.147 C 
BRANCH  17  18
HETATM   18  C12 UNL     1      28.354   5.867  48.176  1.00  0.00    -0.039 A 
HETATM   19  C13 UNL     1      27.715   6.976  47.846  1.00  0.00     0.008 A 
HETATM   20  C14 UNL     1      28.511   8.072  47.307  1.00  0.00    -0.003 A 
HETATM   21  C15 UNL     1      29.797   7.787  47.221  1.00  0.00    -0.026 A 
HETATM   22  C16 UNL     1      30.630   6.608  47.548  1.00  0.00     0.032 A 
HETATM   23  C17 UNL     1      29.788   5.513  48.096  1.00  0.00     0.043 A 
ENDBRANCH  17  18
ENDBRANCH  13  16
BRANCH   1  24
HETATM   24  O1  UNL     1      26.637   0.791  51.314  1.00  0.00    -0.339 OA
HETATM   25  C1  UNL     1      26.707  -0.121  52.394  1.00  0.00     0.211 C 
ENDBRANCH   1  24
TORSDOF 3
ENDMDL
MODEL 3
REMARK VINA RESULT:      -6.9      3.429      6.596
REMARK  3 active torsions:
REMARK  status: ('A' for Active; 'I' for Inactive)
REMARK    1  A    between atoms: O1_2  and  C2_3 
REMARK    2  A    between atoms: N1_15  and  N2_16 
REMARK    3  A    between atoms: C11_17  and  C12_18 
ROOT
HETATM    1  C2  UNL     1      18.369   3.432  51.495  1.00  0.00     0.165 C 
HETATM    2  C3  UNL     1      17.998   2.527  50.591  1.00  0.00     0.114 C 
HETATM    3  S1  UNL     1      18.791   1.463  49.400  1.00  0.00    -0.062 SA
HETATM    4  S2  UNL     1      20.691   0.894  50.095  1.00  0.00    -0.052 SA
HETATM    5  C4  UNL     1      21.085   1.638  51.703  1.00  0.00     0.157 A 
HETATM    6  C5  UNL     1      20.130   1.061  52.726  1.00  0.00     0.081 A 
HETATM    7  C6  UNL     1      20.771   0.250  53.762  1.00  0.00     0.001 A 
HETATM    8  C7  UNL     1      22.032  -0.088  53.991  1.00  0.00     0.030 A 
HETATM    9 CL1  UNL     1      22.598  -1.079  55.301  1.00  0.00    -0.085 Cl
HETATM   10  C8  UNL     1      22.956   0.479  52.987  1.00  0.00     0.029 A 
HETATM   11  C9  UNL     1      22.479   1.228  52.006  1.00  0.00    -0.039 A 
HETATM   12  C10 UNL     1      23.492   1.762  51.028  1.00  0.00     0.047 C 
HETATM   13  N1  UNL     1      20.970   3.100  51.630  1.00  0.00    -0.183 N 
HETATM   14  N3  UNL     1      19.730   3.781  51.720  1.00  0.00    -0.259 N 
HETATM   15  H20 UNL     1      19.865   4.792  52.031  1.00  0.00     0.191 HD
ENDROOT
BRANCH  13  16
HETATM   16  N2  UNL     1      22.061   3.959  51.466  1.00  0.00    -0.167 NA
HETATM   17  C11 UNL     1      22.004   4.971  50.667  1.00  0.00     0.147 C 
BRANCH  17  18
HETATM   18  C12 UNL     1      23.183   5.860  50.521  1.00  0.00    -0.039 A 
HETATM   19  C13 UNL     1      22.951   7.130  50.803  1.00  0.00     0.008 A 
HETATM   20  C14 UNL     1      24.068   8.057  50.680  1.00  0.00    -0.003 A 
HETATM   21  C15 UNL     1      25.187   7.475  50.289  1.00  0.00    -0.026 A 
HETATM   22  C16 UNL     1      25.578   6.089  49.945  1.00  0.00     0.032 A 
HETATM   23  C17 UNL     1      24.417   5.172  50.083  1.00  0.00     0.043 A 
ENDBRANCH  17  18
ENDBRANCH  13  16
BRANCH   1  24
HETATM   24  O1  UNL     1      17.413   4.098  52.289  1.00  0.00    -0.339 OA
HETATM   25  C1  UNL     1      16.049   4.106  51.910  1.00  0.00     0.211 C 
ENDBRANCH   1  24
TORSDOF 3
ENDMDL
MODEL 4
REMARK VINA RESULT:      -6.8      9.091     11.251
REMARK  3 active torsions:
REMARK  status: ('A' for Active; 'I' for Inactive)
REMARK    1  A    between atoms: O1_2  and  C2_3 
REMARK    2  A    between atoms: N1_15  and  N2_16 
REMARK    3  A    between atoms: C11_17  and  C12_18 
ROOT
HETATM    1  C2  UNL     1      30.940   9.195  45.160  1.00  0.00     0.165 C 
HETATM    2  C3  UNL     1      31.769  10.044  45.764  1.00  0.00     0.114 C 
HETATM    3  S1  UNL     1      32.531  10.215  47.368  1.00  0.00    -0.062 SA
HETATM    4  S2  UNL     1      32.871   8.319  48.209  1.00  0.00    -0.052 SA
HETATM    5  C4  UNL     1      32.285   6.976  47.137  1.00  0.00     0.157 A 
HETATM    6  C5  UNL     1      33.134   6.982  45.883  1.00  0.00     0.081 A 
HETATM    7  C6  UNL     1      33.956   5.784  45.706  1.00  0.00     0.001 A 
HETATM    8  C7  UNL     1      34.113   4.682  46.426  1.00  0.00     0.030 A 
HETATM    9 CL1  UNL     1      35.158   3.351  46.035  1.00  0.00    -0.085 Cl
HETATM   10  C8  UNL     1      33.281   4.688  47.647  1.00  0.00     0.029 A 
HETATM   11  C9  UNL     1      32.500   5.724  47.903  1.00  0.00    -0.039 A 
HETATM   12  C10 UNL     1      31.689   5.645  49.171  1.00  0.00     0.047 C 
HETATM   13  N1  UNL     1      30.863   7.162  46.820  1.00  0.00    -0.183 N 
HETATM   14  N3  UNL     1      30.408   8.046  45.810  1.00  0.00    -0.259 N 
HETATM   15  H20 UNL     1      29.436   7.774  45.465  1.00  0.00     0.191 HD
ENDROOT
BRANCH  13  16
HETATM   16  N2  UNL     1      29.825   6.492  47.475  1.00  0.00    -0.167 NA
HETATM   17  C11 UNL     1      28.623   6.961  47.483  1.00  0.00     0.147 C 
BRANCH  17  18
HETATM   18  C12 UNL     1      27.550   6.220  48.189  1.00  0.00    -0.039 A 
HETATM   19  C13 UNL     1      26.426   6.898  48.345  1.00  0.00     0.008 A 
HETATM   20  C14 UNL     1      25.329   6.227  49.031  1.00  0.00    -0.003 A 
HETATM   21  C15 UNL     1      25.628   4.998  49.412  1.00  0.00    -0.026 A 
HETATM   22  C16 UNL     1      26.825   4.133  49.303  1.00  0.00     0.032 A 
HETATM   23  C17 UNL     1      27.920   4.848  48.598  1.00  0.00     0.043 A 
ENDBRANCH  17  18
ENDBRANCH  13  16
BRANCH   1  24
HETATM   24  O1  UNL     1      30.543   9.398  43.822  1.00  0.00    -0.339 OA
HETATM   25  C1  UNL     1      31.278  10.269  42.983  1.00  0.00     0.211 C 
ENDBRANCH   1  24
TORSDOF 3
ENDMDL
MODEL 5
REMARK VINA RESULT:      -6.8      2.991      4.535
REMARK  3 active torsions:
REMARK  status: ('A' for Active; 'I' for Inactive)
REMARK    1  A    between atoms: O1_2  and  C2_3 
REMARK    2  A    between atoms: N1_15  and  N2_16 
REMARK    3  A    between atoms: C11_17  and  C12_18 
ROOT
HETATM    1  C2  UNL     1      19.950   3.629  48.447  1.00  0.00     0.165 C 
HETATM    2  C3  UNL     1      19.572   4.902  48.551  1.00  0.00     0.114 C 
HETATM    3  S1  UNL     1      19.753   6.231  49.725  1.00  0.00    -0.062 SA
HETATM    4  S2  UNL     1      21.583   6.048  50.743  1.00  0.00    -0.052 SA
HETATM    5  C4  UNL     1      22.517   4.583  50.219  1.00  0.00     0.157 A 
HETATM    6  C5  UNL     1      22.917   4.782  48.773  1.00  0.00     0.081 A 
HETATM    7  C6  UNL     1      24.361   4.882  48.553  1.00  0.00     0.001 A 
HETATM    8  C7  UNL     1      25.403   4.835  49.371  1.00  0.00     0.030 A 
HETATM    9 CL1  UNL     1      27.070   4.977  48.904  1.00  0.00    -0.085 Cl
HETATM   10  C8  UNL     1      25.001   4.641  50.780  1.00  0.00     0.029 A 
HETATM   11  C9  UNL     1      23.719   4.538  51.088  1.00  0.00    -0.039 A 
HETATM   12  C10 UNL     1      23.402   4.345  52.548  1.00  0.00     0.047 C 
HETATM   13  N1  UNL     1      21.701   3.373  50.387  1.00  0.00    -0.183 N 
HETATM   14  N3  UNL     1      20.718   2.970  49.448  1.00  0.00    -0.259 N 
HETATM   15  H20 UNL     1      20.517   1.926  49.521  1.00  0.00     0.191 HD
ENDROOT
BRANCH  13  16
HETATM   16  N2  UNL     1      21.812   2.504  51.476  1.00  0.00    -0.167 NA
HETATM   17  C11 UNL     1      21.899   1.227  51.310  1.00  0.00     0.147 C 
BRANCH  17  18
HETATM   18  C12 UNL     1      22.015   0.338  52.492  1.00  0.00    -0.039 A 
HETATM   19  C13 UNL     1      23.247   0.187  52.947  1.00  0.00     0.008 A 
HETATM   20  C14 UNL     1      23.430  -0.674  54.108  1.00  0.00    -0.003 A 
HETATM   21  C15 UNL     1      22.302  -1.198  54.550  1.00  0.00    -0.026 A 
HETATM   22  C16 UNL     1      20.881  -1.114  54.143  1.00  0.00     0.032 A 
HETATM   23  C17 UNL     1      20.732  -0.228  52.959  1.00  0.00     0.043 A 
ENDBRANCH  17  18
ENDBRANCH  13  16
BRANCH   1  24
HETATM   24  O1  UNL     1      19.603   2.859  47.317  1.00  0.00    -0.339 OA
HETATM   25  C1  UNL     1      18.647   3.341  46.391  1.00  0.00     0.211 C 
ENDBRANCH   1  24
TORSDOF 3
ENDMDL
MODEL 6
REMARK VINA RESULT:      -6.7      3.650      6.289
REMARK  3 active torsions:
REMARK  status: ('A' for Active; 'I' for Inactive)
REMARK    1  A    between atoms: O1_2  and  C2_3 
REMARK    2  A    between atoms: N1_15  and  N2_16 
REMARK    3  A    between atoms: C11_17  and  C12_18 
ROOT
HETATM    1  C2  UNL     1      22.900   5.852  50.213  1.00  0.00     0.165 C 
HETATM    2  C3  UNL     1      22.704   5.934  48.898  1.00  0.00     0.114 C 
HETATM    3  S1  UNL     1      22.420   4.810  47.543  1.00  0.00    -0.062 SA
HETATM    4  S2  UNL     1      21.371   3.118  48.218  1.00  0.00    -0.052 SA
HETATM    5  C4  UNL     1      21.037   3.183  50.001  1.00  0.00     0.157 A 
HETATM    6  C5  UNL     1      20.085   4.332  50.252  1.00  0.00     0.081 A 
HETATM    7  C6  UNL     1      18.772   3.930  50.759  1.00  0.00     0.001 A 
HETATM    8  C7  UNL     1      18.239   2.751  51.047  1.00  0.00     0.030 A 
HETATM    9 CL1  UNL     1      16.632   2.480  51.650  1.00  0.00    -0.085 Cl
HETATM   10  C8  UNL     1      19.176   1.636  50.798  1.00  0.00     0.029 A 
HETATM   11  C9  UNL     1      20.390   1.890  50.338  1.00  0.00    -0.039 A 
HETATM   12  C10 UNL     1      21.277   0.693  50.112  1.00  0.00     0.047 C 
HETATM   13  N1  UNL     1      22.290   3.354  50.748  1.00  0.00    -0.183 N 
HETATM   14  N3  UNL     1      22.923   4.612  50.912  1.00  0.00    -0.259 N 
HETATM   15  H20 UNL     1      23.565   4.615  51.764  1.00  0.00     0.191 HD
ENDROOT
BRANCH  13  16
HETATM   16  N2  UNL     1      22.978   2.306  51.367  1.00  0.00    -0.167 NA
HETATM   17  C11 UNL     1      24.267   2.295  51.432  1.00  0.00     0.147 C 
BRANCH  17  18
HETATM   18  C12 UNL     1      24.960   1.165  52.097  1.00  0.00    -0.039 A 
HETATM   19  C13 UNL     1      24.201   0.465  52.922  1.00  0.00     0.008 A 
HETATM   20  C14 UNL     1      24.821  -0.662  53.609  1.00  0.00    -0.003 A 
HETATM   21  C15 UNL     1      26.094  -0.823  53.297  1.00  0.00    -0.026 A 
HETATM   22  C16 UNL     1      27.048  -0.124  52.407  1.00  0.00     0.032 A 
HETATM   23  C17 UNL     1      26.382   1.015  51.724  1.00  0.00     0.043 A 
ENDBRANCH  17  18
ENDBRANCH  13  16
BRANCH   1  24
HETATM   24  O1  UNL     1      23.097   7.012  50.990  1.00  0.00    -0.339 OA
HETATM   25  C1  UNL     1      23.962   8.037  50.538  1.00  0.00     0.211 C 
ENDBRANCH   1  24
TORSDOF 3
ENDMDL
MODEL 7
REMARK VINA RESULT:      -6.7      4.850      8.909
REMARK  3 active torsions:
REMARK  status: ('A' for Active; 'I' for Inactive)
REMARK    1  A    between atoms: O1_2  and  C2_3 
REMARK    2  A    between atoms: N1_15  and  N2_16 
REMARK    3  A    between atoms: C11_17  and  C12_18 
ROOT
HETATM    1  C2  UNL     1      22.969   2.719  49.370  1.00  0.00     0.165 C 
HETATM    2  C3  UNL     1      22.803   2.411  50.656  1.00  0.00     0.114 C 
HETATM    3  S1  UNL     1      23.241   3.109  52.237  1.00  0.00    -0.062 SA
HETATM    4  S2  UNL     1      23.296   5.206  52.108  1.00  0.00    -0.052 SA
HETATM    5  C4  UNL     1      22.925   5.801  50.434  1.00  0.00     0.157 A 
HETATM    6  C5  UNL     1      21.485   5.450  50.127  1.00  0.00     0.081 A 
HETATM    7  C6  UNL     1      20.606   6.607  49.947  1.00  0.00     0.001 A 
HETATM    8  C7  UNL     1      20.814   7.915  49.999  1.00  0.00     0.030 A 
HETATM    9 CL1  UNL     1      19.615   9.147  49.751  1.00  0.00    -0.085 Cl
HETATM   10  C8  UNL     1      22.222   8.247  50.300  1.00  0.00     0.029 A 
HETATM   11  C9  UNL     1      23.101   7.274  50.481  1.00  0.00    -0.039 A 
HETATM   12  C10 UNL     1      24.512   7.705  50.786  1.00  0.00     0.047 C 
HETATM   13  N1  UNL     1      23.843   5.193  49.462  1.00  0.00    -0.183 N 
HETATM   14  N3  UNL     1      23.658   3.887  48.942  1.00  0.00    -0.259 N 
HETATM   15  H20 UNL     1      24.160   3.768  48.009  1.00  0.00     0.191 HD
ENDROOT
BRANCH  13  16
HETATM   16  N2  UNL     1      24.978   5.833  48.957  1.00  0.00    -0.167 NA
HETATM   17  C11 UNL     1      26.125   5.241  48.927  1.00  0.00     0.147 C 
BRANCH  17  18
HETATM   18  C12 UNL     1      27.306   5.954  48.383  1.00  0.00    -0.039 A 
HETATM   19  C13 UNL     1      27.056   7.174  47.942  1.00  0.00     0.008 A 
HETATM   20  C14 UNL     1      28.176   7.930  47.395  1.00  0.00    -0.003 A 
HETATM   21  C15 UNL     1      29.315   7.263  47.418  1.00  0.00    -0.026 A 
HETATM   22  C16 UNL     1      29.727   5.916  47.874  1.00  0.00     0.032 A 
HETATM   23  C17 UNL     1      28.563   5.176  48.427  1.00  0.00     0.043 A 
ENDBRANCH  17  18
ENDBRANCH  13  16
BRANCH   1  24
HETATM   24  O1  UNL     1      22.458   1.885  48.354  1.00  0.00    -0.339 OA
HETATM   25  C1  UNL     1      21.381   1.007  48.623  1.00  0.00     0.211 C 
ENDBRANCH   1  24
TORSDOF 3
ENDMDL
MODEL 8
REMARK VINA RESULT:      -6.6      4.445      8.728
REMARK  3 active torsions:
REMARK  status: ('A' for Active; 'I' for Inactive)
REMARK    1  A    between atoms: O1_2  and  C2_3 
REMARK    2  A    between atoms: N1_15  and  N2_16 
REMARK    3  A    between atoms: C11_17  and  C12_18 
ROOT
HETATM    1  C2  UNL     1      23.413   2.558  51.153  1.00  0.00     0.165 C 
HETATM    2  C3  UNL     1      22.289   2.950  51.751  1.00  0.00     0.114 C 
HETATM    3  S1  UNL     1      21.292   4.426  51.827  1.00  0.00    -0.062 SA
HETATM    4  S2  UNL     1      21.422   5.478  50.012  1.00  0.00    -0.052 SA
HETATM    5  C4  UNL     1      22.530   4.666  48.826  1.00  0.00     0.157 A 
HETATM    6  C5  UNL     1      21.907   3.342  48.442  1.00  0.00     0.081 A 
HETATM    7  C6  UNL     1      21.516   3.244  47.034  1.00  0.00     0.001 A 
HETATM    8  C7  UNL     1      21.597   4.087  46.015  1.00  0.00     0.030 A 
HETATM    9 CL1  UNL     1      21.067   3.774  44.390  1.00  0.00    -0.085 Cl
HETATM   10  C8  UNL     1      22.206   5.377  46.401  1.00  0.00     0.029 A 
HETATM   11  C9  UNL     1      22.595   5.570  47.650  1.00  0.00    -0.039 A 
HETATM   12  C10 UNL     1      23.203   6.915  47.954  1.00  0.00     0.047 C 
HETATM   13  N1  UNL     1      23.861   4.479  49.419  1.00  0.00    -0.183 N 
HETATM   14  N3  UNL     1      24.168   3.411  50.299  1.00  0.00    -0.259 N 
HETATM   15  H20 UNL     1      25.215   3.210  50.315  1.00  0.00     0.191 HD
ENDROOT
BRANCH  13  16
HETATM   16  N2  UNL     1      24.947   5.324  49.177  1.00  0.00    -0.167 NA
HETATM   17  C11 UNL     1      26.117   4.852  48.904  1.00  0.00     0.147 C 
BRANCH  17  18
HETATM   18  C12 UNL     1      27.245   5.782  48.653  1.00  0.00    -0.039 A 
HETATM   19  C13 UNL     1      26.923   7.062  48.705  1.00  0.00     0.008 A 
HETATM   20  C14 UNL     1      27.987   8.030  48.468  1.00  0.00    -0.003 A 
HETATM   21  C15 UNL     1      29.157   7.468  48.226  1.00  0.00    -0.026 A 
HETATM   22  C16 UNL     1      29.648   6.074  48.140  1.00  0.00     0.032 A 
HETATM   23  C17 UNL     1      28.539   5.117  48.388  1.00  0.00     0.043 A 
ENDBRANCH  17  18
ENDBRANCH  13  16
BRANCH   1  24
HETATM   24  O1  UNL     1      23.916   1.254  51.339  1.00  0.00    -0.339 OA
HETATM   25  C1  UNL     1      24.351   0.832  52.619  1.00  0.00     0.211 C 
ENDBRANCH   1  24
TORSDOF 3
ENDMDL
MODEL 9
REMARK VINA RESULT:      -6.6     11.145     14.086
REMARK  3 active torsions:
REMARK  status: ('A' for Active; 'I' for Inactive)
REMARK    1  A    between atoms: O1_2  and  C2_3 
REMARK    2  A    between atoms: N1_15  and  N2_16 
REMARK    3  A    between atoms: C11_17  and  C12_18 
ROOT
HETATM    1  C2  UNL     1      34.370   4.329  47.628  1.00  0.00     0.165 C 
HETATM    2  C3  UNL     1      34.896   5.254  48.429  1.00  0.00     0.114 C 
HETATM    3  S1  UNL     1      34.981   7.034  48.496  1.00  0.00    -0.062 SA
HETATM    4  S2  UNL     1      33.255   7.871  47.639  1.00  0.00    -0.052 SA
HETATM    5  C4  UNL     1      32.117   6.604  47.010  1.00  0.00     0.157 A 
HETATM    6  C5  UNL     1      31.597   5.820  48.195  1.00  0.00     0.081 A 
HETATM    7  C6  UNL     1      30.158   5.957  48.427  1.00  0.00     0.001 A 
HETATM    8  C7  UNL     1      29.206   6.637  47.805  1.00  0.00     0.030 A 
HETATM    9 CL1  UNL     1      27.525   6.669  48.246  1.00  0.00    -0.085 Cl
HETATM   10  C8  UNL     1      29.723   7.400  46.650  1.00  0.00     0.029 A 
HETATM   11  C9  UNL     1      31.011   7.345  46.353  1.00  0.00    -0.039 A 
HETATM   12  C10 UNL     1      31.451   8.156  45.161  1.00  0.00     0.047 C 
HETATM   13  N1  UNL     1      32.807   5.731  46.051  1.00  0.00    -0.183 N 
HETATM   14  N3  UNL     1      33.640   4.656  46.451  1.00  0.00    -0.259 N 
HETATM   15  H20 UNL     1      33.732   3.928  45.677  1.00  0.00     0.191 HD
ENDROOT
BRANCH  13  16
HETATM   16  N2  UNL     1      32.712   5.869  44.664  1.00  0.00    -0.167 NA
HETATM   17  C11 UNL     1      33.198   4.979  43.866  1.00  0.00     0.147 C 
BRANCH  17  18
HETATM   18  C12 UNL     1      33.078   5.162  42.399  1.00  0.00    -0.039 A 
HETATM   19  C13 UNL     1      32.570   6.325  42.030  1.00  0.00     0.008 A 
HETATM   20  C14 UNL     1      32.425   6.569  40.601  1.00  0.00    -0.003 A 
HETATM   21  C15 UNL     1      32.833   5.558  39.857  1.00  0.00    -0.026 A 
HETATM   22  C16 UNL     1      33.411   4.223  40.134  1.00  0.00     0.032 A 
HETATM   23  C17 UNL     1      33.546   4.010  41.598  1.00  0.00     0.043 A 
ENDBRANCH  17  18
ENDBRANCH  13  16
BRANCH   1  24
HETATM   24  O1  UNL     1      34.516   2.956  47.914  1.00  0.00    -0.339 OA
HETATM   25  C1  UNL     1      33.381   2.112  47.960  1.00  0.00     0.211 C 
ENDBRANCH   1  24
TORSDOF 3
ENDMDL
