MODEL 1
REMARK VINA RESULT:      -8.3      0.000      0.000
REMARK  10 active torsions:
REMARK  status: ('A' for Active; 'I' for Inactive)
REMARK    1  A    between atoms: C3_3  and  O1_4 
REMARK    2  A    between atoms: O1_4  and  S1_5 
REMARK    3  A    between atoms: S1_5  and  N1_6 
REMARK    4  A    between atoms: C7_12  and  C8_13 
REMARK    5  A    between atoms: C8_13  and  C9_14 
REMARK    6  A    between atoms: C9_14  and  C10_15 
REMARK    7  A    between atoms: C10_15  and  O4_17 
REMARK    8  A    between atoms: C11_18  and  O5_19 
REMARK    9  A    between atoms: O5_19  and  N3_20 
REMARK   10  A    between atoms: N3_20  and  C12_21 
ROOT
HETATM    1  C1  UNL     1      26.946   2.386  52.046  1.00  0.00     0.049 C 
HETATM    2  C2  UNL     1      25.754   2.366  51.469  1.00  0.00     0.015 C 
HETATM    3  C3  UNL     1      25.651   3.069  50.171  1.00  0.00     0.097 C 
HETATM    4  C4  UNL     1      24.685   3.280  49.287  1.00  0.00     0.041 C 
HETATM    5  C5  UNL     1      23.296   2.834  49.344  1.00  0.00     0.037 C 
HETATM    6  C6  UNL     1      22.437   2.304  50.135  1.00  0.00     0.086 C 
HETATM    7  N2  UNL     1      22.667   1.381  50.975  1.00  0.00    -0.248 NA
HETATM    8  C7  UNL     1      23.464   1.191  52.131  1.00  0.00     0.072 C 
HETATM    9  C11 UNL     1      24.730   1.642  52.224  1.00  0.00     0.132 C 
ENDROOT
BRANCH   9  10
HETATM   10  O5  UNL     1      25.274   1.320  53.459  1.00  0.00    -0.235 OA
BRANCH  10  11
HETATM   11  N3  UNL     1      25.932   0.146  53.737  1.00  0.00    -0.265 N 
HETATM   12  H12 UNL     1      25.254  -0.629  53.960  1.00  0.00     0.194 HD
BRANCH  11  13
HETATM   13  C12 UNL     1      27.254  -0.386  53.827  1.00  0.00     0.029 C 
HETATM   14  C13 UNL     1      27.639  -1.399  53.067  1.00  0.00     0.000 C 
HETATM   15  C14 UNL     1      28.985  -2.030  53.079  1.00  0.00     0.029 C 
HETATM   16  C15 UNL     1      30.060  -1.176  53.652  1.00  0.00     0.004 C 
HETATM   17  C16 UNL     1      29.560   0.232  53.899  1.00  0.00     0.006 C 
HETATM   18  C17 UNL     1      28.296   0.135  54.761  1.00  0.00     0.059 C 
ENDBRANCH  11  13
ENDBRANCH  10  11
ENDBRANCH   9  10
BRANCH   8  19
HETATM   19  C8  UNL     1      23.038   0.488  53.366  1.00  0.00     0.072 C 
BRANCH  19  20
HETATM   20  C9  UNL     1      22.217  -0.742  53.065  1.00  0.00     0.116 C 
BRANCH  20  21
HETATM   21  C10 UNL     1      21.655  -1.398  54.271  1.00  0.00     0.139 C 
HETATM   22  O3  UNL     1      22.101  -2.042  55.283  1.00  0.00    -0.650 OA
BRANCH  21  23
HETATM   23  O4  UNL     1      20.258  -1.236  54.245  1.00  0.00    -0.776 OA
HETATM   24  H11 UNL     1      19.701  -1.946  53.761  1.00  0.00     0.167 HD
ENDBRANCH  21  23
ENDBRANCH  20  21
ENDBRANCH  19  20
ENDBRANCH   8  19
BRANCH   3  25
HETATM   25  O1  UNL     1      26.885   3.637  49.818  1.00  0.00    -0.240 OA
BRANCH  25  26
HETATM   26  S1  UNL     1      26.830   5.129  48.960  1.00  0.00     0.238 S 
HETATM   27  O2  UNL     1      28.174   5.490  48.329  1.00  0.00    -0.210 OA
BRANCH  26  28
HETATM   28  N1  UNL     1      26.413   6.473  50.005  1.00  0.00    -0.228 NA
HETATM   29  H3  UNL     1      25.396   6.337  50.236  1.00  0.00     0.136 HD
HETATM   30  H4  UNL     1      26.423   7.351  49.416  1.00  0.00     0.136 HD
ENDBRANCH  26  28
ENDBRANCH  25  26
ENDBRANCH   3  25
TORSDOF 10
ENDMDL
MODEL 2
REMARK VINA RESULT:      -7.9      1.420      1.451
REMARK  10 active torsions:
REMARK  status: ('A' for Active; 'I' for Inactive)
REMARK    1  A    between atoms: C3_3  and  O1_4 
REMARK    2  A    between atoms: O1_4  and  S1_5 
REMARK    3  A    between atoms: S1_5  and  N1_6 
REMARK    4  A    between atoms: C7_12  and  C8_13 
REMARK    5  A    between atoms: C8_13  and  C9_14 
REMARK    6  A    between atoms: C9_14  and  C10_15 
REMARK    7  A    between atoms: C10_15  and  O4_17 
REMARK    8  A    between atoms: C11_18  and  O5_19 
REMARK    9  A    between atoms: O5_19  and  N3_20 
REMARK   10  A    between atoms: N3_20  and  C12_21 
ROOT
HETATM    1  C1  UNL     1      26.472   2.544  50.577  1.00  0.00     0.049 C 
HETATM    2  C2  UNL     1      25.275   2.936  50.988  1.00  0.00     0.015 C 
HETATM    3  C3  UNL     1      24.899   4.327  50.655  1.00  0.00     0.097 C 
HETATM    4  C4  UNL     1      23.835   5.091  50.862  1.00  0.00     0.041 C 
HETATM    5  C5  UNL     1      22.594   4.746  51.550  1.00  0.00     0.037 C 
HETATM    6  C6  UNL     1      22.068   3.838  52.287  1.00  0.00     0.086 C 
HETATM    7  N2  UNL     1      22.234   2.586  52.161  1.00  0.00    -0.248 NA
HETATM    8  C7  UNL     1      23.303   1.659  52.232  1.00  0.00     0.072 C 
HETATM    9  C11 UNL     1      24.520   1.910  51.711  1.00  0.00     0.132 C 
ENDROOT
BRANCH   9  10
HETATM   10  O5  UNL     1      25.372   0.836  51.920  1.00  0.00    -0.235 OA
BRANCH  10  11
HETATM   11  N3  UNL     1      26.225   0.716  52.991  1.00  0.00    -0.265 N 
HETATM   12  H12 UNL     1      25.906   1.310  53.802  1.00  0.00     0.194 HD
BRANCH  11  13
HETATM   13  C12 UNL     1      27.422   0.043  53.382  1.00  0.00     0.029 C 
HETATM   14  C13 UNL     1      27.737  -1.142  52.883  1.00  0.00     0.000 C 
HETATM   15  C14 UNL     1      28.952  -1.929  53.218  1.00  0.00     0.029 C 
HETATM   16  C15 UNL     1      30.065  -1.127  53.795  1.00  0.00     0.004 C 
HETATM   17  C16 UNL     1      29.768   0.355  53.708  1.00  0.00     0.006 C 
HETATM   18  C17 UNL     1      28.402   0.597  54.362  1.00  0.00     0.059 C 
ENDBRANCH  11  13
ENDBRANCH  10  11
ENDBRANCH   9  10
BRANCH   8  19
HETATM   19  C8  UNL     1      23.240   0.318  52.863  1.00  0.00     0.072 C 
BRANCH  19  20
HETATM   20  C9  UNL     1      21.820  -0.147  53.071  1.00  0.00     0.116 C 
BRANCH  20  21
HETATM   21  C10 UNL     1      21.537  -0.610  54.452  1.00  0.00     0.139 C 
HETATM   22  O3  UNL     1      22.046  -1.434  55.289  1.00  0.00    -0.650 OA
BRANCH  21  23
HETATM   23  O4  UNL     1      20.397   0.072  54.916  1.00  0.00    -0.776 OA
HETATM   24  H11 UNL     1      19.492  -0.167  54.500  1.00  0.00     0.167 HD
ENDBRANCH  21  23
ENDBRANCH  20  21
ENDBRANCH  19  20
ENDBRANCH   8  19
BRANCH   3  25
HETATM   25  O1  UNL     1      25.935   4.964  49.954  1.00  0.00    -0.240 OA
BRANCH  25  26
HETATM   26  S1  UNL     1      25.682   6.615  49.537  1.00  0.00     0.238 S 
HETATM   27  O2  UNL     1      26.361   6.996  48.222  1.00  0.00    -0.210 OA
BRANCH  26  28
HETATM   28  N1  UNL     1      26.333   7.706  50.746  1.00  0.00    -0.228 NA
HETATM   29  H3  UNL     1      27.378   7.599  50.679  1.00  0.00     0.136 HD
HETATM   30  H4  UNL     1      26.100   7.306  51.697  1.00  0.00     0.136 HD
ENDBRANCH  26  28
ENDBRANCH  25  26
ENDBRANCH   3  25
TORSDOF 10
ENDMDL
MODEL 3
REMARK VINA RESULT:      -7.8      2.765      5.895
REMARK  10 active torsions:
REMARK  status: ('A' for Active; 'I' for Inactive)
REMARK    1  A    between atoms: C3_3  and  O1_4 
REMARK    2  A    between atoms: O1_4  and  S1_5 
REMARK    3  A    between atoms: S1_5  and  N1_6 
REMARK    4  A    between atoms: C7_12  and  C8_13 
REMARK    5  A    between atoms: C8_13  and  C9_14 
REMARK    6  A    between atoms: C9_14  and  C10_15 
REMARK    7  A    between atoms: C10_15  and  O4_17 
REMARK    8  A    between atoms: C11_18  and  O5_19 
REMARK    9  A    between atoms: O5_19  and  N3_20 
REMARK   10  A    between atoms: N3_20  and  C12_21 
ROOT
HETATM    1  C1  UNL     1      23.253   1.375  52.849  1.00  0.00     0.049 C 
HETATM    2  C2  UNL     1      23.034   1.734  51.592  1.00  0.00     0.015 C 
HETATM    3  C3  UNL     1      22.028   0.937  50.857  1.00  0.00     0.097 C 
HETATM    4  C4  UNL     1      21.520   0.958  49.632  1.00  0.00     0.041 C 
HETATM    5  C5  UNL     1      21.839   1.871  48.538  1.00  0.00     0.037 C 
HETATM    6  C6  UNL     1      22.676   2.778  48.192  1.00  0.00     0.086 C 
HETATM    7  N2  UNL     1      23.168   3.669  48.950  1.00  0.00    -0.248 NA
HETATM    8  C7  UNL     1      23.981   3.726  50.109  1.00  0.00     0.072 C 
HETATM    9  C11 UNL     1      23.836   2.873  51.142  1.00  0.00     0.132 C 
ENDROOT
BRANCH   9  10
HETATM   10  O5  UNL     1      24.757   3.154  52.140  1.00  0.00    -0.235 OA
BRANCH  10  11
HETATM   11  N3  UNL     1      26.080   2.785  52.104  1.00  0.00    -0.265 N 
HETATM   12  H12 UNL     1      26.682   3.556  51.714  1.00  0.00     0.194 HD
BRANCH  11  13
HETATM   13  C12 UNL     1      26.930   1.683  52.425  1.00  0.00     0.029 C 
HETATM   14  C13 UNL     1      27.996   1.840  53.193  1.00  0.00     0.000 C 
HETATM   15  C14 UNL     1      28.947   0.767  53.588  1.00  0.00     0.029 C 
HETATM   16  C15 UNL     1      28.399  -0.613  53.475  1.00  0.00     0.004 C 
HETATM   17  C16 UNL     1      26.914  -0.584  53.179  1.00  0.00     0.006 C 
HETATM   18  C17 UNL     1      26.701   0.290  51.937  1.00  0.00     0.059 C 
ENDBRANCH  11  13
ENDBRANCH  10  11
ENDBRANCH   9  10
BRANCH   8  19
HETATM   19  C8  UNL     1      25.071   4.703  50.350  1.00  0.00     0.072 C 
BRANCH  19  20
HETATM   20  C9  UNL     1      25.788   5.080  49.078  1.00  0.00     0.116 C 
BRANCH  20  21
HETATM   21  C10 UNL     1      27.141   4.485  48.953  1.00  0.00     0.139 C 
HETATM   22  O3  UNL     1      28.311   4.877  48.613  1.00  0.00    -0.650 OA
BRANCH  21  23
HETATM   23  O4  UNL     1      27.058   3.129  49.320  1.00  0.00    -0.776 OA
HETATM   24  H11 UNL     1      26.128   2.706  49.385  1.00  0.00     0.167 HD
ENDBRANCH  21  23
ENDBRANCH  20  21
ENDBRANCH  19  20
ENDBRANCH   8  19
BRANCH   3  25
HETATM   25  O1  UNL     1      21.506  -0.076  51.677  1.00  0.00    -0.240 OA
BRANCH  25  26
HETATM   26  S1  UNL     1      19.902   0.154  52.260  1.00  0.00     0.238 S 
HETATM   27  O2  UNL     1      19.553   1.631  52.439  1.00  0.00    -0.210 OA
BRANCH  26  28
HETATM   28  N1  UNL     1      19.660  -0.591  53.829  1.00  0.00    -0.228 NA
HETATM   29  H3  UNL     1      20.023  -1.573  53.726  1.00  0.00     0.136 HD
HETATM   30  H4  UNL     1      18.619  -0.720  53.964  1.00  0.00     0.136 HD
ENDBRANCH  26  28
ENDBRANCH  25  26
ENDBRANCH   3  25
TORSDOF 10
ENDMDL
MODEL 4
REMARK VINA RESULT:      -7.8      3.180      6.998
REMARK  10 active torsions:
REMARK  status: ('A' for Active; 'I' for Inactive)
REMARK    1  A    between atoms: C3_3  and  O1_4 
REMARK    2  A    between atoms: O1_4  and  S1_5 
REMARK    3  A    between atoms: S1_5  and  N1_6 
REMARK    4  A    between atoms: C7_12  and  C8_13 
REMARK    5  A    between atoms: C8_13  and  C9_14 
REMARK    6  A    between atoms: C9_14  and  C10_15 
REMARK    7  A    between atoms: C10_15  and  O4_17 
REMARK    8  A    between atoms: C11_18  and  O5_19 
REMARK    9  A    between atoms: O5_19  and  N3_20 
REMARK   10  A    between atoms: N3_20  and  C12_21 
ROOT
HETATM    1  C1  UNL     1      21.736   1.363  51.494  1.00  0.00     0.049 C 
HETATM    2  C2  UNL     1      22.291   0.698  52.495  1.00  0.00     0.015 C 
HETATM    3  C3  UNL     1      21.365   0.201  53.536  1.00  0.00     0.097 C 
HETATM    4  C4  UNL     1      21.494  -0.489  54.661  1.00  0.00     0.041 C 
HETATM    5  C5  UNL     1      22.715  -1.016  55.263  1.00  0.00     0.037 C 
HETATM    6  C6  UNL     1      23.993  -0.962  55.166  1.00  0.00     0.086 C 
HETATM    7  N2  UNL     1      24.658  -0.917  54.087  1.00  0.00    -0.248 NA
HETATM    8  C7  UNL     1      24.797  -0.048  52.977  1.00  0.00     0.072 C 
HETATM    9  C11 UNL     1      23.746   0.566  52.398  1.00  0.00     0.132 C 
ENDROOT
BRANCH   9  10
HETATM   10  O5  UNL     1      24.166   1.355  51.337  1.00  0.00    -0.235 OA
BRANCH  10  11
HETATM   11  N3  UNL     1      24.608   2.650  51.457  1.00  0.00    -0.265 N 
HETATM   12  H12 UNL     1      24.436   3.024  52.427  1.00  0.00     0.194 HD
BRANCH  11  13
HETATM   13  C12 UNL     1      25.234   3.680  50.692  1.00  0.00     0.029 C 
HETATM   14  C13 UNL     1      26.332   3.443  49.991  1.00  0.00     0.000 C 
HETATM   15  C14 UNL     1      27.065   4.437  49.164  1.00  0.00     0.029 C 
HETATM   16  C15 UNL     1      26.256   5.620  48.762  1.00  0.00     0.004 C 
HETATM   17  C16 UNL     1      24.798   5.426  49.121  1.00  0.00     0.006 C 
HETATM   18  C17 UNL     1      24.725   5.081  50.614  1.00  0.00     0.059 C 
ENDBRANCH  11  13
ENDBRANCH  10  11
ENDBRANCH   9  10
BRANCH   8  19
HETATM   19  C8  UNL     1      26.074   0.297  52.307  1.00  0.00     0.072 C 
BRANCH  19  20
HETATM   20  C9  UNL     1      27.179  -0.670  52.654  1.00  0.00     0.116 C 
BRANCH  20  21
HETATM   21  C10 UNL     1      28.167  -0.130  53.620  1.00  0.00     0.139 C 
HETATM   22  O3  UNL     1      29.289   0.485  53.569  1.00  0.00    -0.650 OA
BRANCH  21  23
HETATM   23  O4  UNL     1      27.695  -0.389  54.919  1.00  0.00    -0.776 OA
HETATM   24  H11 UNL     1      27.048  -1.171  55.049  1.00  0.00     0.167 HD
ENDBRANCH  21  23
ENDBRANCH  20  21
ENDBRANCH  19  20
ENDBRANCH   8  19
BRANCH   3  25
HETATM   25  O1  UNL     1      20.043   0.563  53.234  1.00  0.00    -0.240 OA
BRANCH  25  26
HETATM   26  S1  UNL     1      18.983  -0.709  52.764  1.00  0.00     0.238 S 
HETATM   27  O2  UNL     1      18.125  -0.339  51.555  1.00  0.00    -0.210 OA
BRANCH  26  28
HETATM   28  N1  UNL     1      17.857  -1.132  54.040  1.00  0.00    -0.228 NA
HETATM   29  H3  UNL     1      17.392  -0.228  54.308  1.00  0.00     0.136 HD
HETATM   30  H4  UNL     1      18.424  -1.388  54.895  1.00  0.00     0.136 HD
ENDBRANCH  26  28
ENDBRANCH  25  26
ENDBRANCH   3  25
TORSDOF 10
ENDMDL
MODEL 5
REMARK VINA RESULT:      -7.7      2.309      2.874
REMARK  10 active torsions:
REMARK  status: ('A' for Active; 'I' for Inactive)
REMARK    1  A    between atoms: C3_3  and  O1_4 
REMARK    2  A    between atoms: O1_4  and  S1_5 
REMARK    3  A    between atoms: S1_5  and  N1_6 
REMARK    4  A    between atoms: C7_12  and  C8_13 
REMARK    5  A    between atoms: C8_13  and  C9_14 
REMARK    6  A    between atoms: C9_14  and  C10_15 
REMARK    7  A    between atoms: C10_15  and  O4_17 
REMARK    8  A    between atoms: C11_18  and  O5_19 
REMARK    9  A    between atoms: O5_19  and  N3_20 
REMARK   10  A    between atoms: N3_20  and  C12_21 
ROOT
HETATM    1  C1  UNL     1      24.585   3.521  50.156  1.00  0.00     0.049 C 
HETATM    2  C2  UNL     1      23.445   3.316  50.799  1.00  0.00     0.015 C 
HETATM    3  C3  UNL     1      22.423   4.375  50.657  1.00  0.00     0.097 C 
HETATM    4  C4  UNL     1      21.189   4.561  51.108  1.00  0.00     0.041 C 
HETATM    5  C5  UNL     1      20.398   3.683  51.965  1.00  0.00     0.037 C 
HETATM    6  C6  UNL     1      20.494   2.636  52.699  1.00  0.00     0.086 C 
HETATM    7  N2  UNL     1      21.183   1.602  52.439  1.00  0.00    -0.248 NA
HETATM    8  C7  UNL     1      22.547   1.274  52.245  1.00  0.00     0.072 C 
HETATM    9  C11 UNL     1      23.393   2.059  51.547  1.00  0.00     0.132 C 
ENDROOT
BRANCH   9  10
HETATM   10  O5  UNL     1      24.662   1.501  51.514  1.00  0.00    -0.235 OA
BRANCH  10  11
HETATM   11  N3  UNL     1      25.719   1.926  52.281  1.00  0.00    -0.265 N 
HETATM   12  H12 UNL     1      25.596   2.929  52.580  1.00  0.00     0.194 HD
BRANCH  11  13
HETATM   13  C12 UNL     1      26.955   1.455  52.820  1.00  0.00     0.029 C 
HETATM   14  C13 UNL     1      27.809   2.282  53.402  1.00  0.00     0.000 C 
HETATM   15  C14 UNL     1      29.119   1.903  53.993  1.00  0.00     0.029 C 
HETATM   16  C15 UNL     1      29.245   0.460  54.335  1.00  0.00     0.004 C 
HETATM   17  C16 UNL     1      27.915  -0.249  54.191  1.00  0.00     0.006 C 
HETATM   18  C17 UNL     1      27.388   0.027  52.778  1.00  0.00     0.059 C 
ENDBRANCH  11  13
ENDBRANCH  10  11
ENDBRANCH   9  10
BRANCH   8  19
HETATM   19  C8  UNL     1      23.223   0.058  52.759  1.00  0.00     0.072 C 
BRANCH  19  20
HETATM   20  C9  UNL     1      22.238  -1.003  53.184  1.00  0.00     0.116 C 
BRANCH  20  21
HETATM   21  C10 UNL     1      22.028  -1.073  54.651  1.00  0.00     0.139 C 
HETATM   22  O3  UNL     1      22.567  -1.666  55.649  1.00  0.00    -0.650 OA
BRANCH  21  23
HETATM   23  O4  UNL     1      20.935  -0.249  54.976  1.00  0.00    -0.776 OA
HETATM   24  H11 UNL     1      20.866   0.102  55.935  1.00  0.00     0.167 HD
ENDBRANCH  21  23
ENDBRANCH  20  21
ENDBRANCH  19  20
ENDBRANCH   8  19
BRANCH   3  25
HETATM   25  O1  UNL     1      22.901   5.418  49.847  1.00  0.00    -0.240 OA
BRANCH  25  26
HETATM   26  S1  UNL     1      23.153   6.937  50.616  1.00  0.00     0.238 S 
HETATM   27  O2  UNL     1      23.722   7.987  49.663  1.00  0.00    -0.210 OA
BRANCH  26  28
HETATM   28  N1  UNL     1      24.296   6.822  51.941  1.00  0.00    -0.228 NA
HETATM   29  H3  UNL     1      23.993   7.557  52.630  1.00  0.00     0.136 HD
HETATM   30  H4  UNL     1      25.229   7.173  51.590  1.00  0.00     0.136 HD
ENDBRANCH  26  28
ENDBRANCH  25  26
ENDBRANCH   3  25
TORSDOF 10
ENDMDL
MODEL 6
REMARK VINA RESULT:      -7.7      2.945      5.267
REMARK  10 active torsions:
REMARK  status: ('A' for Active; 'I' for Inactive)
REMARK    1  A    between atoms: C3_3  and  O1_4 
REMARK    2  A    between atoms: O1_4  and  S1_5 
REMARK    3  A    between atoms: S1_5  and  N1_6 
REMARK    4  A    between atoms: C7_12  and  C8_13 
REMARK    5  A    between atoms: C8_13  and  C9_14 
REMARK    6  A    between atoms: C9_14  and  C10_15 
REMARK    7  A    between atoms: C10_15  and  O4_17 
REMARK    8  A    between atoms: C11_18  and  O5_19 
REMARK    9  A    between atoms: O5_19  and  N3_20 
REMARK   10  A    between atoms: N3_20  and  C12_21 
ROOT
HETATM    1  C1  UNL     1      23.019   3.722  52.403  1.00  0.00     0.049 C 
HETATM    2  C2  UNL     1      24.016   3.813  51.535  1.00  0.00     0.015 C 
HETATM    3  C3  UNL     1      23.857   4.828  50.472  1.00  0.00     0.097 C 
HETATM    4  C4  UNL     1      24.588   5.239  49.444  1.00  0.00     0.041 C 
HETATM    5  C5  UNL     1      25.900   4.760  49.019  1.00  0.00     0.037 C 
HETATM    6  C6  UNL     1      26.748   3.820  49.229  1.00  0.00     0.086 C 
HETATM    7  N2  UNL     1      27.031   3.309  50.355  1.00  0.00    -0.248 NA
HETATM    8  C7  UNL     1      26.367   2.583  51.374  1.00  0.00     0.072 C 
HETATM    9  C11 UNL     1      25.117   2.881  51.783  1.00  0.00     0.132 C 
ENDROOT
BRANCH   9  10
HETATM   10  O5  UNL     1      24.713   2.015  52.788  1.00  0.00    -0.235 OA
BRANCH  10  11
HETATM   11  N3  UNL     1      24.118   0.795  52.572  1.00  0.00    -0.265 N 
HETATM   12  H12 UNL     1      24.693   0.200  51.919  1.00  0.00     0.194 HD
BRANCH  11  13
HETATM   13  C12 UNL     1      22.959   0.049  52.942  1.00  0.00     0.029 C 
HETATM   14  C13 UNL     1      22.974  -0.771  53.981  1.00  0.00     0.000 C 
HETATM   15  C14 UNL     1      21.830  -1.594  54.454  1.00  0.00     0.029 C 
HETATM   16  C15 UNL     1      20.497  -1.114  53.999  1.00  0.00     0.004 C 
HETATM   17  C16 UNL     1      20.608   0.239  53.326  1.00  0.00     0.006 C 
HETATM   18  C17 UNL     1      21.657   0.122  52.214  1.00  0.00     0.059 C 
ENDBRANCH  11  13
ENDBRANCH  10  11
ENDBRANCH   9  10
BRANCH   8  19
HETATM   19  C8  UNL     1      26.930   1.431  52.119  1.00  0.00     0.072 C 
BRANCH  19  20
HETATM   20  C9  UNL     1      28.025   1.849  53.070  1.00  0.00     0.116 C 
BRANCH  20  21
HETATM   21  C10 UNL     1      27.944   1.200  54.401  1.00  0.00     0.139 C 
HETATM   22  O3  UNL     1      28.761   0.736  55.270  1.00  0.00    -0.650 OA
BRANCH  21  23
HETATM   23  O4  UNL     1      26.586   1.092  54.753  1.00  0.00    -0.776 OA
HETATM   24  H11 UNL     1      26.019   0.391  54.269  1.00  0.00     0.167 HD
ENDBRANCH  21  23
ENDBRANCH  20  21
ENDBRANCH  19  20
ENDBRANCH   8  19
BRANCH   3  25
HETATM   25  O1  UNL     1      22.631   5.499  50.608  1.00  0.00    -0.240 OA
BRANCH  25  26
HETATM   26  S1  UNL     1      22.705   7.209  50.792  1.00  0.00     0.238 S 
HETATM   27  O2  UNL     1      22.673   7.942  49.451  1.00  0.00    -0.210 OA
BRANCH  26  28
HETATM   28  N1  UNL     1      24.183   7.723  51.585  1.00  0.00    -0.228 NA
HETATM   29  H3  UNL     1      24.437   6.932  52.230  1.00  0.00     0.136 HD
HETATM   30  H4  UNL     1      23.935   8.514  52.241  1.00  0.00     0.136 HD
ENDBRANCH  26  28
ENDBRANCH  25  26
ENDBRANCH   3  25
TORSDOF 10
ENDMDL
MODEL 7
REMARK VINA RESULT:      -7.6      2.874      3.952
REMARK  10 active torsions:
REMARK  status: ('A' for Active; 'I' for Inactive)
REMARK    1  A    between atoms: C3_3  and  O1_4 
REMARK    2  A    between atoms: O1_4  and  S1_5 
REMARK    3  A    between atoms: S1_5  and  N1_6 
REMARK    4  A    between atoms: C7_12  and  C8_13 
REMARK    5  A    between atoms: C8_13  and  C9_14 
REMARK    6  A    between atoms: C9_14  and  C10_15 
REMARK    7  A    between atoms: C10_15  and  O4_17 
REMARK    8  A    between atoms: C11_18  and  O5_19 
REMARK    9  A    between atoms: O5_19  and  N3_20 
REMARK   10  A    between atoms: N3_20  and  C12_21 
ROOT
HETATM    1  C1  UNL     1      27.676   4.771  48.911  1.00  0.00     0.049 C 
HETATM    2  C2  UNL     1      26.389   5.068  49.016  1.00  0.00     0.015 C 
HETATM    3  C3  UNL     1      25.984   6.386  48.480  1.00  0.00     0.097 C 
HETATM    4  C4  UNL     1      24.841   7.052  48.379  1.00  0.00     0.041 C 
HETATM    5  C5  UNL     1      23.511   6.634  48.813  1.00  0.00     0.037 C 
HETATM    6  C6  UNL     1      22.910   5.734  49.501  1.00  0.00     0.086 C 
HETATM    7  N2  UNL     1      23.203   4.500  49.532  1.00  0.00    -0.248 NA
HETATM    8  C7  UNL     1      24.302   3.693  49.919  1.00  0.00     0.072 C 
HETATM    9  C11 UNL     1      25.580   4.028  49.652  1.00  0.00     0.132 C 
ENDROOT
BRANCH   9  10
HETATM   10  O5  UNL     1      26.449   3.064  50.141  1.00  0.00    -0.235 OA
BRANCH  10  11
HETATM   11  N3  UNL     1      26.905   3.012  51.436  1.00  0.00    -0.265 N 
HETATM   12  H12 UNL     1      26.847   3.957  51.900  1.00  0.00     0.194 HD
BRANCH  11  13
HETATM   13  C12 UNL     1      27.442   2.089  52.383  1.00  0.00     0.029 C 
HETATM   14  C13 UNL     1      28.418   2.439  53.205  1.00  0.00     0.000 C 
HETATM   15  C14 UNL     1      29.051   1.562  54.226  1.00  0.00     0.029 C 
HETATM   16  C15 UNL     1      28.225   0.391  54.627  1.00  0.00     0.004 C 
HETATM   17  C16 UNL     1      26.829   0.487  54.046  1.00  0.00     0.006 C 
HETATM   18  C17 UNL     1      26.966   0.681  52.532  1.00  0.00     0.059 C 
ENDBRANCH  11  13
ENDBRANCH  10  11
ENDBRANCH   9  10
BRANCH   8  19
HETATM   19  C8  UNL     1      24.210   2.404  50.646  1.00  0.00     0.072 C 
BRANCH  19  20
HETATM   20  C9  UNL     1      23.305   2.491  51.849  1.00  0.00     0.116 C 
BRANCH  20  21
HETATM   21  C10 UNL     1      23.576   3.661  52.720  1.00  0.00     0.139 C 
HETATM   22  O3  UNL     1      23.067   4.818  52.923  1.00  0.00    -0.650 OA
BRANCH  21  23
HETATM   23  O4  UNL     1      24.698   3.364  53.514  1.00  0.00    -0.776 OA
HETATM   24  H11 UNL     1      25.334   2.629  53.191  1.00  0.00     0.167 HD
ENDBRANCH  21  23
ENDBRANCH  20  21
ENDBRANCH  19  20
ENDBRANCH   8  19
BRANCH   3  25
HETATM   25  O1  UNL     1      27.095   7.072  47.963  1.00  0.00    -0.240 OA
BRANCH  25  26
HETATM   26  S1  UNL     1      27.641   8.439  48.855  1.00  0.00     0.238 S 
HETATM   27  O2  UNL     1      29.164   8.486  48.976  1.00  0.00    -0.210 OA
BRANCH  26  28
HETATM   28  N1  UNL     1      27.028   8.439  50.498  1.00  0.00    -0.228 NA
HETATM   29  H3  UNL     1      27.664   9.088  51.028  1.00  0.00     0.136 HD
HETATM   30  H4  UNL     1      27.233   7.489  50.915  1.00  0.00     0.136 HD
ENDBRANCH  26  28
ENDBRANCH  25  26
ENDBRANCH   3  25
TORSDOF 10
ENDMDL
MODEL 8
REMARK VINA RESULT:      -7.5      2.756      3.444
REMARK  10 active torsions:
REMARK  status: ('A' for Active; 'I' for Inactive)
REMARK    1  A    between atoms: C3_3  and  O1_4 
REMARK    2  A    between atoms: O1_4  and  S1_5 
REMARK    3  A    between atoms: S1_5  and  N1_6 
REMARK    4  A    between atoms: C7_12  and  C8_13 
REMARK    5  A    between atoms: C8_13  and  C9_14 
REMARK    6  A    between atoms: C9_14  and  C10_15 
REMARK    7  A    between atoms: C10_15  and  O4_17 
REMARK    8  A    between atoms: C11_18  and  O5_19 
REMARK    9  A    between atoms: O5_19  and  N3_20 
REMARK   10  A    between atoms: N3_20  and  C12_21 
ROOT
HETATM    1  C1  UNL     1      26.896   4.799  49.156  1.00  0.00     0.049 C 
HETATM    2  C2  UNL     1      25.758   5.141  49.741  1.00  0.00     0.015 C 
HETATM    3  C3  UNL     1      25.528   6.592  49.910  1.00  0.00     0.097 C 
HETATM    4  C4  UNL     1      24.557   7.340  50.419  1.00  0.00     0.041 C 
HETATM    5  C5  UNL     1      23.301   6.902  51.023  1.00  0.00     0.037 C 
HETATM    6  C6  UNL     1      22.696   5.853  51.445  1.00  0.00     0.086 C 
HETATM    7  N2  UNL     1      22.724   4.706  50.901  1.00  0.00    -0.248 NA
HETATM    8  C7  UNL     1      23.687   3.713  50.600  1.00  0.00     0.072 C 
HETATM    9  C11 UNL     1      24.913   4.009  50.123  1.00  0.00     0.132 C 
ENDROOT
BRANCH   9  10
HETATM   10  O5  UNL     1      25.649   2.851  49.916  1.00  0.00    -0.235 OA
BRANCH  10  11
HETATM   11  N3  UNL     1      26.678   2.428  50.722  1.00  0.00    -0.265 N 
HETATM   12  H12 UNL     1      27.602   2.817  50.398  1.00  0.00     0.194 HD
BRANCH  11  13
HETATM   13  C12 UNL     1      26.919   1.620  51.874  1.00  0.00     0.029 C 
HETATM   14  C13 UNL     1      26.606   0.334  51.889  1.00  0.00     0.000 C 
HETATM   15  C14 UNL     1      26.812  -0.596  53.030  1.00  0.00     0.029 C 
HETATM   16  C15 UNL     1      27.828  -0.143  54.018  1.00  0.00     0.004 C 
HETATM   17  C16 UNL     1      28.572   1.075  53.511  1.00  0.00     0.006 C 
HETATM   18  C17 UNL     1      27.531   2.136  53.135  1.00  0.00     0.059 C 
ENDBRANCH  11  13
ENDBRANCH  10  11
ENDBRANCH   9  10
BRANCH   8  19
HETATM   19  C8  UNL     1      23.495   2.250  50.753  1.00  0.00     0.072 C 
BRANCH  19  20
HETATM   20  C9  UNL     1      23.178   1.864  52.176  1.00  0.00     0.116 C 
BRANCH  20  21
HETATM   21  C10 UNL     1      21.768   1.456  52.388  1.00  0.00     0.139 C 
HETATM   22  O3  UNL     1      21.119   0.362  52.530  1.00  0.00    -0.650 OA
BRANCH  21  23
HETATM   23  O4  UNL     1      20.980   2.620  52.442  1.00  0.00    -0.776 OA
HETATM   24  H11 UNL     1      20.169   2.680  51.820  1.00  0.00     0.167 HD
ENDBRANCH  21  23
ENDBRANCH  20  21
ENDBRANCH  19  20
ENDBRANCH   8  19
BRANCH   3  25
HETATM   25  O1  UNL     1      26.611   7.327  49.403  1.00  0.00    -0.240 OA
BRANCH  25  26
HETATM   26  S1  UNL     1      26.591   9.025  49.688  1.00  0.00     0.238 S 
HETATM   27  O2  UNL     1      27.122   9.823  48.497  1.00  0.00    -0.210 OA
BRANCH  26  28
HETATM   28  N1  UNL     1      27.594   9.475  51.054  1.00  0.00    -0.228 NA
HETATM   29  H3  UNL     1      27.271  10.438  51.327  1.00  0.00     0.136 HD
HETATM   30  H4  UNL     1      28.575   9.630  50.692  1.00  0.00     0.136 HD
ENDBRANCH  26  28
ENDBRANCH  25  26
ENDBRANCH   3  25
TORSDOF 10
ENDMDL
MODEL 9
REMARK VINA RESULT:      -7.3      3.339      6.993
REMARK  10 active torsions:
REMARK  status: ('A' for Active; 'I' for Inactive)
REMARK    1  A    between atoms: C3_3  and  O1_4 
REMARK    2  A    between atoms: O1_4  and  S1_5 
REMARK    3  A    between atoms: S1_5  and  N1_6 
REMARK    4  A    between atoms: C7_12  and  C8_13 
REMARK    5  A    between atoms: C8_13  and  C9_14 
REMARK    6  A    between atoms: C9_14  and  C10_15 
REMARK    7  A    between atoms: C10_15  and  O4_17 
REMARK    8  A    between atoms: C11_18  and  O5_19 
REMARK    9  A    between atoms: O5_19  and  N3_20 
REMARK   10  A    between atoms: N3_20  and  C12_21 
ROOT
HETATM    1  C1  UNL     1      22.648   2.326  49.922  1.00  0.00     0.049 C 
HETATM    2  C2  UNL     1      22.950   1.552  50.954  1.00  0.00     0.015 C 
HETATM    3  C3  UNL     1      21.842   0.739  51.499  1.00  0.00     0.097 C 
HETATM    4  C4  UNL     1      21.714  -0.141  52.484  1.00  0.00     0.041 C 
HETATM    5  C5  UNL     1      22.737  -0.613  53.413  1.00  0.00     0.037 C 
HETATM    6  C6  UNL     1      23.935  -0.373  53.802  1.00  0.00     0.086 C 
HETATM    7  N2  UNL     1      24.904  -0.025  53.061  1.00  0.00    -0.248 NA
HETATM    8  C7  UNL     1      25.239   1.060  52.214  1.00  0.00     0.072 C 
HETATM    9  C11 UNL     1      24.348   1.635  51.381  1.00  0.00     0.132 C 
ENDROOT
BRANCH   9  10
HETATM   10  O5  UNL     1      24.940   2.669  50.671  1.00  0.00    -0.235 OA
BRANCH  10  11
HETATM   11  N3  UNL     1      25.018   3.969  51.109  1.00  0.00    -0.265 N 
HETATM   12  H12 UNL     1      25.449   4.024  52.070  1.00  0.00     0.194 HD
BRANCH  11  13
HETATM   13  C12 UNL     1      24.705   5.298  50.691  1.00  0.00     0.029 C 
HETATM   14  C13 UNL     1      23.628   5.923  51.142  1.00  0.00     0.000 C 
HETATM   15  C14 UNL     1      23.207   7.300  50.775  1.00  0.00     0.029 C 
HETATM   16  C15 UNL     1      24.299   8.153  50.231  1.00  0.00     0.004 C 
HETATM   17  C16 UNL     1      25.644   7.472  50.379  1.00  0.00     0.006 C 
HETATM   18  C17 UNL     1      25.538   6.085  49.735  1.00  0.00     0.059 C 
ENDBRANCH  11  13
ENDBRANCH  10  11
ENDBRANCH   9  10
BRANCH   8  19
HETATM   19  C8  UNL     1      26.574   1.699  52.117  1.00  0.00     0.072 C 
BRANCH  19  20
HETATM   20  C9  UNL     1      27.131   2.060  53.472  1.00  0.00     0.116 C 
BRANCH  20  21
HETATM   21  C10 UNL     1      28.604   1.917  53.573  1.00  0.00     0.139 C 
HETATM   22  O3  UNL     1      29.433   1.072  54.060  1.00  0.00    -0.650 OA
BRANCH  21  23
HETATM   23  O4  UNL     1      29.196   3.030  52.949  1.00  0.00    -0.776 OA
HETATM   24  H11 UNL     1      28.953   3.219  51.973  1.00  0.00     0.167 HD
ENDBRANCH  21  23
ENDBRANCH  20  21
ENDBRANCH  19  20
ENDBRANCH   8  19
BRANCH   3  25
HETATM   25  O1  UNL     1      20.657   0.977  50.786  1.00  0.00    -0.240 OA
BRANCH  25  26
HETATM   26  S1  UNL     1      19.409   1.819  51.622  1.00  0.00     0.238 S 
HETATM   27  O2  UNL     1      18.462   2.552  50.672  1.00  0.00    -0.210 OA
BRANCH  26  28
HETATM   28  N1  UNL     1      20.051   3.044  52.700  1.00  0.00    -0.228 NA
HETATM   29  H3  UNL     1      20.984   3.308  52.292  1.00  0.00     0.136 HD
HETATM   30  H4  UNL     1      20.299   2.569  53.611  1.00  0.00     0.136 HD
ENDBRANCH  26  28
ENDBRANCH  25  26
ENDBRANCH   3  25
TORSDOF 10
ENDMDL
