MODEL 1
REMARK VINA RESULT:      -9.6      0.000      0.000
REMARK  6 active torsions:
REMARK  status: ('A' for Active; 'I' for Inactive)
REMARK    1  A    between atoms: C2_2  and  C3_3 
REMARK    2  A    between atoms: C3_3  and  O1_4 
REMARK    3  A    between atoms: C6_9  and  N3_10 
REMARK    4  A    between atoms: N3_10  and  C7_11 
REMARK    5  A    between atoms: C16_22  and  N4_23 
REMARK       I    between atoms: N4_23  and  C17_24 
REMARK    6  A    between atoms: C17_24  and  C18_26 
ROOT
HETATM    1  C3  UNL     1      25.480   6.429  49.903  1.00  0.00     0.126 A 
HETATM    2  C4  UNL     1      25.105   5.177  50.606  1.00  0.00     0.086 A 
HETATM    3  N1  UNL     1      24.123   5.415  51.497  1.00  0.00    -0.242 NA
HETATM    4  C5  UNL     1      23.620   4.392  52.251  1.00  0.00     0.235 A 
HETATM    5  N2  UNL     1      24.133   3.137  52.077  1.00  0.00    -0.224 NA
HETATM    6  C6  UNL     1      25.111   2.931  51.179  1.00  0.00     0.141 A 
HETATM    7  C13 UNL     1      25.635   3.944  50.409  1.00  0.00     0.038 A 
HETATM    8  C14 UNL     1      26.682   3.773  49.413  1.00  0.00     0.015 A 
HETATM    9  C15 UNL     1      27.051   4.857  48.754  1.00  0.00     0.003 A 
HETATM   10  C16 UNL     1      26.553   6.252  48.868  1.00  0.00     0.148 A 
ENDROOT
BRANCH  10  11
HETATM   11  N4  UNL     1      27.702   7.114  49.103  1.00  0.00    -0.348 N 
HETATM   12  C17 UNL     1      28.006   7.962  47.998  1.00  0.00     0.252 C 
HETATM   13  O2  UNL     1      27.401   8.024  46.901  1.00  0.00    -0.271 OA
HETATM   14  H15 UNL     1      28.283   7.157  49.962  1.00  0.00     0.163 HD
BRANCH  12  15
HETATM   15  C18 UNL     1      29.135   8.939  47.995  1.00  0.00     0.313 C 
HETATM   16  C19 UNL     1      29.747   9.014  49.376  1.00  0.00     0.046 C 
HETATM   17  C20 UNL     1      30.806  10.043  49.503  1.00  0.00     0.004 C 
HETATM   18  C21 UNL     1      30.693  11.242  48.642  1.00  0.00     0.030 C 
HETATM   19  C22 UNL     1      29.835  11.066  47.415  1.00  0.00     0.273 C 
HETATM   20  N5  UNL     1      28.652  10.266  47.695  1.00  0.00     0.098 N 
HETATM   21  C23 UNL     1      27.970  10.916  48.770  1.00  0.00     0.310 C 
ENDBRANCH  12  15
ENDBRANCH  10  11
BRANCH   1  22
HETATM   22  C2  UNL     1      24.182   6.972  49.324  1.00  0.00     0.042 C 
HETATM   23  C1  UNL     1      24.103   6.838  47.822  1.00  0.00     0.009 C 
ENDBRANCH   1  22
BRANCH   1  24
HETATM   24  O1  UNL     1      25.973   7.310  50.893  1.00  0.00    -0.381 OA
HETATM   25  H6  UNL     1      25.810   6.858  51.758  1.00  0.00     0.211 HD
ENDBRANCH   1  24
BRANCH   6  26
HETATM   26  N3  UNL     1      25.597   1.603  51.018  1.00  0.00    -0.340 N 
HETATM   27  H8  UNL     1      25.297   0.944  50.253  1.00  0.00     0.167 HD
BRANCH  26  28
HETATM   28  C7  UNL     1      26.555   1.097  51.929  1.00  0.00     0.035 A 
HETATM   29  C8  UNL     1      26.647  -0.269  52.126  1.00  0.00     0.032 A 
HETATM   30  C9  UNL     1      27.567  -0.833  52.983  1.00  0.00     0.046 A 
HETATM   31  C10 UNL     1      28.457  -0.031  53.695  1.00  0.00     0.138 A 
HETATM   32  F1  UNL     1      29.357  -0.603  54.534  1.00  0.00    -0.204 F 
HETATM   33  C11 UNL     1      28.357   1.345  53.488  1.00  0.00     0.074 A 
HETATM   34 CL1  UNL     1      29.483   2.335  54.383  1.00  0.00    -0.081 Cl
HETATM   35  C12 UNL     1      27.429   1.877  52.628  1.00  0.00     0.056 A 
ENDBRANCH  26  28
ENDBRANCH   6  26
TORSDOF 6
ENDMDL
MODEL 2
REMARK VINA RESULT:      -9.3      1.981      2.366
REMARK  6 active torsions:
REMARK  status: ('A' for Active; 'I' for Inactive)
REMARK    1  A    between atoms: C2_2  and  C3_3 
REMARK    2  A    between atoms: C3_3  and  O1_4 
REMARK    3  A    between atoms: C6_9  and  N3_10 
REMARK    4  A    between atoms: N3_10  and  C7_11 
REMARK    5  A    between atoms: C16_22  and  N4_23 
REMARK       I    between atoms: N4_23  and  C17_24 
REMARK    6  A    between atoms: C17_24  and  C18_26 
ROOT
HETATM    1  C3  UNL     1      26.218   7.105  49.410  1.00  0.00     0.126 A 
HETATM    2  C4  UNL     1      25.430   6.063  50.114  1.00  0.00     0.086 A 
HETATM    3  N1  UNL     1      24.439   6.629  50.831  1.00  0.00    -0.242 NA
HETATM    4  C5  UNL     1      23.583   5.846  51.553  1.00  0.00     0.235 A 
HETATM    5  N2  UNL     1      23.757   4.491  51.527  1.00  0.00    -0.224 NA
HETATM    6  C6  UNL     1      24.753   3.955  50.802  1.00  0.00     0.141 A 
HETATM    7  C13 UNL     1      25.628   4.723  50.067  1.00  0.00     0.038 A 
HETATM    8  C14 UNL     1      26.714   4.194  49.254  1.00  0.00     0.015 A 
HETATM    9  C15 UNL     1      27.445   5.079  48.601  1.00  0.00     0.003 A 
HETATM   10  C16 UNL     1      27.331   6.560  48.562  1.00  0.00     0.148 A 
ENDROOT
BRANCH  10  11
HETATM   11  N4  UNL     1      28.629   7.113  48.923  1.00  0.00    -0.348 N 
HETATM   12  C17 UNL     1      29.380   7.569  47.799  1.00  0.00     0.252 C 
HETATM   13  O2  UNL     1      29.036   7.535  46.594  1.00  0.00    -0.271 OA
HETATM   14  H15 UNL     1      29.026   7.196  49.877  1.00  0.00     0.163 HD
BRANCH  12  15
HETATM   15  C18 UNL     1      30.738   8.179  47.909  1.00  0.00     0.313 C 
HETATM   16  C19 UNL     1      31.279   8.468  46.526  1.00  0.00     0.046 C 
HETATM   17  C20 UNL     1      32.672   8.973  46.525  1.00  0.00     0.004 C 
HETATM   18  C21 UNL     1      33.558   8.521  47.623  1.00  0.00     0.030 C 
HETATM   19  C22 UNL     1      32.843   8.028  48.855  1.00  0.00     0.273 C 
HETATM   20  N5  UNL     1      31.660   7.251  48.517  1.00  0.00     0.098 N 
HETATM   21  C23 UNL     1      32.102   6.193  47.662  1.00  0.00     0.310 C 
ENDBRANCH  12  15
ENDBRANCH  10  11
BRANCH   1  22
HETATM   22  C2  UNL     1      25.203   7.909  48.611  1.00  0.00     0.042 C 
HETATM   23  C1  UNL     1      25.407   7.801  47.119  1.00  0.00     0.009 C 
ENDBRANCH   1  22
BRANCH   1  24
HETATM   24  O1  UNL     1      26.795   7.915  50.415  1.00  0.00    -0.381 OA
HETATM   25  H6  UNL     1      26.515   8.841  50.205  1.00  0.00     0.211 HD
ENDBRANCH   1  24
BRANCH   6  26
HETATM   26  N3  UNL     1      24.880   2.538  50.789  1.00  0.00    -0.340 N 
HETATM   27  H8  UNL     1      24.572   1.916  49.996  1.00  0.00     0.167 HD
BRANCH  26  28
HETATM   28  C7  UNL     1      25.460   1.880  51.901  1.00  0.00     0.035 A 
HETATM   29  C8  UNL     1      24.685   1.024  52.661  1.00  0.00     0.032 A 
HETATM   30  C9  UNL     1      25.187   0.337  53.745  1.00  0.00     0.046 A 
HETATM   31  C10 UNL     1      26.522   0.483  54.121  1.00  0.00     0.138 A 
HETATM   32  F1  UNL     1      27.000  -0.201  55.190  1.00  0.00    -0.204 F 
HETATM   33  C11 UNL     1      27.294   1.348  53.346  1.00  0.00     0.074 A 
HETATM   34 CL1  UNL     1      28.965   1.516  53.825  1.00  0.00    -0.081 Cl
HETATM   35  C12 UNL     1      26.765   2.019  52.272  1.00  0.00     0.056 A 
ENDBRANCH  26  28
ENDBRANCH   6  26
TORSDOF 6
ENDMDL
MODEL 3
REMARK VINA RESULT:      -8.9      2.359      2.573
REMARK  6 active torsions:
REMARK  status: ('A' for Active; 'I' for Inactive)
REMARK    1  A    between atoms: C2_2  and  C3_3 
REMARK    2  A    between atoms: C3_3  and  O1_4 
REMARK    3  A    between atoms: C6_9  and  N3_10 
REMARK    4  A    between atoms: N3_10  and  C7_11 
REMARK    5  A    between atoms: C16_22  and  N4_23 
REMARK       I    between atoms: N4_23  and  C17_24 
REMARK    6  A    between atoms: C17_24  and  C18_26 
ROOT
HETATM    1  C3  UNL     1      25.331   6.435  49.937  1.00  0.00     0.126 A 
HETATM    2  C4  UNL     1      24.862   5.284  50.748  1.00  0.00     0.086 A 
HETATM    3  N1  UNL     1      23.900   5.675  51.606  1.00  0.00    -0.242 NA
HETATM    4  C5  UNL     1      23.321   4.766  52.446  1.00  0.00     0.235 A 
HETATM    5  N2  UNL     1      23.738   3.466  52.391  1.00  0.00    -0.224 NA
HETATM    6  C6  UNL     1      24.699   3.106  51.524  1.00  0.00     0.141 A 
HETATM    7  C13 UNL     1      25.298   4.002  50.669  1.00  0.00     0.038 A 
HETATM    8  C14 UNL     1      26.331   3.663  49.701  1.00  0.00     0.015 A 
HETATM    9  C15 UNL     1      26.780   4.650  48.949  1.00  0.00     0.003 A 
HETATM   10  C16 UNL     1      26.389   6.083  48.931  1.00  0.00     0.148 A 
ENDROOT
BRANCH  10  11
HETATM   11  N4  UNL     1      27.600   6.875  49.095  1.00  0.00    -0.348 N 
HETATM   12  C17 UNL     1      27.848   7.760  48.005  1.00  0.00     0.252 C 
HETATM   13  O2  UNL     1      27.150   7.905  46.973  1.00  0.00    -0.271 OA
HETATM   14  H15 UNL     1      28.257   6.847  49.897  1.00  0.00     0.163 HD
BRANCH  12  15
HETATM   15  C18 UNL     1      29.023   8.679  47.939  1.00  0.00     0.313 C 
HETATM   16  C19 UNL     1      29.793   8.614  49.239  1.00  0.00     0.046 C 
HETATM   17  C20 UNL     1      30.916   9.577  49.314  1.00  0.00     0.004 C 
HETATM   18  C21 UNL     1      30.774  10.845  48.564  1.00  0.00     0.030 C 
HETATM   19  C22 UNL     1      29.772  10.809  47.438  1.00  0.00     0.273 C 
HETATM   20  N5  UNL     1      28.585  10.046  47.797  1.00  0.00     0.098 N 
HETATM   21  C23 UNL     1      28.069  10.641  48.991  1.00  0.00     0.310 C 
ENDBRANCH  12  15
ENDBRANCH  10  11
BRANCH   1  22
HETATM   22  C2  UNL     1      24.078   7.018  49.301  1.00  0.00     0.042 C 
HETATM   23  C1  UNL     1      23.916   6.628  47.850  1.00  0.00     0.009 C 
ENDBRANCH   1  22
BRANCH   1  24
HETATM   24  O1  UNL     1      25.888   7.363  50.846  1.00  0.00    -0.381 OA
HETATM   25  H6  UNL     1      25.127   7.707  51.377  1.00  0.00     0.211 HD
ENDBRANCH   1  24
BRANCH   6  26
HETATM   26  N3  UNL     1      25.084   1.736  51.489  1.00  0.00    -0.340 N 
HETATM   27  H8  UNL     1      25.712   1.309  50.759  1.00  0.00     0.167 HD
BRANCH  26  28
HETATM   28  C7  UNL     1      24.613   0.854  52.492  1.00  0.00     0.035 A 
HETATM   29  C8  UNL     1      25.490   0.399  53.459  1.00  0.00     0.032 A 
HETATM   30  C9  UNL     1      25.099  -0.446  54.474  1.00  0.00     0.046 A 
HETATM   31  C10 UNL     1      23.777  -0.881  54.565  1.00  0.00     0.138 A 
HETATM   32  F1  UNL     1      23.408  -1.713  55.571  1.00  0.00    -0.204 F 
HETATM   33  C11 UNL     1      22.901  -0.414  53.584  1.00  0.00     0.074 A 
HETATM   34 CL1  UNL     1      21.248  -0.963  53.715  1.00  0.00    -0.081 Cl
HETATM   35  C12 UNL     1      23.322   0.427  52.585  1.00  0.00     0.056 A 
ENDBRANCH  26  28
ENDBRANCH   6  26
TORSDOF 6
ENDMDL
MODEL 4
REMARK VINA RESULT:      -8.7      4.542      8.306
REMARK  6 active torsions:
REMARK  status: ('A' for Active; 'I' for Inactive)
REMARK    1  A    between atoms: C2_2  and  C3_3 
REMARK    2  A    between atoms: C3_3  and  O1_4 
REMARK    3  A    between atoms: C6_9  and  N3_10 
REMARK    4  A    between atoms: N3_10  and  C7_11 
REMARK    5  A    between atoms: C16_22  and  N4_23 
REMARK       I    between atoms: N4_23  and  C17_24 
REMARK    6  A    between atoms: C17_24  and  C18_26 
ROOT
HETATM    1  C3  UNL     1      22.812   3.588  50.039  1.00  0.00     0.126 A 
HETATM    2  C4  UNL     1      24.232   3.364  50.409  1.00  0.00     0.086 A 
HETATM    3  N1  UNL     1      25.031   3.556  49.341  1.00  0.00    -0.242 NA
HETATM    4  C5  UNL     1      26.383   3.408  49.463  1.00  0.00     0.235 A 
HETATM    5  N2  UNL     1      26.896   3.065  50.683  1.00  0.00    -0.224 NA
HETATM    6  C6  UNL     1      26.074   2.882  51.730  1.00  0.00     0.141 A 
HETATM    7  C13 UNL     1      24.709   3.024  51.632  1.00  0.00     0.038 A 
HETATM    8  C14 UNL     1      23.775   2.853  52.735  1.00  0.00     0.015 A 
HETATM    9  C15 UNL     1      22.498   3.046  52.462  1.00  0.00     0.003 A 
HETATM   10  C16 UNL     1      21.849   3.423  51.180  1.00  0.00     0.148 A 
ENDROOT
BRANCH  10  11
HETATM   11  N4  UNL     1      20.818   2.434  50.899  1.00  0.00    -0.348 N 
HETATM   12  C17 UNL     1      19.551   2.763  51.466  1.00  0.00     0.252 C 
HETATM   13  O2  UNL     1      19.268   3.775  52.149  1.00  0.00    -0.271 OA
HETATM   14  H15 UNL     1      20.926   1.560  50.350  1.00  0.00     0.163 HD
BRANCH  12  15
HETATM   15  C18 UNL     1      18.335   1.911  51.316  1.00  0.00     0.313 C 
HETATM   16  C19 UNL     1      18.683   0.657  50.545  1.00  0.00     0.046 C 
HETATM   17  C20 UNL     1      17.514  -0.203  50.247  1.00  0.00     0.004 C 
HETATM   18  C21 UNL     1      16.204   0.468  50.079  1.00  0.00     0.030 C 
HETATM   19  C22 UNL     1      16.104   1.835  50.708  1.00  0.00     0.273 C 
HETATM   20  N5  UNL     1      17.332   2.597  50.538  1.00  0.00     0.098 N 
HETATM   21  C23 UNL     1      17.588   2.643  49.131  1.00  0.00     0.310 C 
ENDBRANCH  12  15
ENDBRANCH  10  11
BRANCH   1  22
HETATM   22  C2  UNL     1      22.770   4.980  49.426  1.00  0.00     0.042 C 
HETATM   23  C1  UNL     1      22.674   6.079  50.459  1.00  0.00     0.009 C 
ENDBRANCH   1  22
BRANCH   1  24
HETATM   24  O1  UNL     1      22.496   2.619  49.060  1.00  0.00    -0.381 OA
HETATM   25  H6  UNL     1      23.278   2.014  49.022  1.00  0.00     0.211 HD
ENDBRANCH   1  24
BRANCH   6  26
HETATM   26  N3  UNL     1      26.658   2.548  52.983  1.00  0.00    -0.340 N 
HETATM   27  H8  UNL     1      26.571   3.129  53.858  1.00  0.00     0.167 HD
BRANCH  26  28
HETATM   28  C7  UNL     1      27.413   1.357  53.106  1.00  0.00     0.035 A 
HETATM   29  C8  UNL     1      28.689   1.415  53.633  1.00  0.00     0.032 A 
HETATM   30  C9  UNL     1      29.474   0.294  53.799  1.00  0.00     0.046 A 
HETATM   31  C10 UNL     1      28.998  -0.964  53.433  1.00  0.00     0.138 A 
HETATM   32  F1  UNL     1      29.783  -2.058  53.602  1.00  0.00    -0.204 F 
HETATM   33  C11 UNL     1      27.708  -1.011  52.903  1.00  0.00     0.074 A 
HETATM   34 CL1  UNL     1      27.125  -2.595  52.455  1.00  0.00    -0.081 Cl
HETATM   35  C12 UNL     1      26.952   0.123  52.750  1.00  0.00     0.056 A 
ENDBRANCH  26  28
ENDBRANCH   6  26
TORSDOF 6
ENDMDL
MODEL 5
REMARK VINA RESULT:      -8.0      4.959      8.359
REMARK  6 active torsions:
REMARK  status: ('A' for Active; 'I' for Inactive)
REMARK    1  A    between atoms: C2_2  and  C3_3 
REMARK    2  A    between atoms: C3_3  and  O1_4 
REMARK    3  A    between atoms: C6_9  and  N3_10 
REMARK    4  A    between atoms: N3_10  and  C7_11 
REMARK    5  A    between atoms: C16_22  and  N4_23 
REMARK       I    between atoms: N4_23  and  C17_24 
REMARK    6  A    between atoms: C17_24  and  C18_26 
ROOT
HETATM    1  C3  UNL     1      24.085   5.191  51.105  1.00  0.00     0.126 A 
HETATM    2  C4  UNL     1      22.719   5.499  50.614  1.00  0.00     0.086 A 
HETATM    3  N1  UNL     1      22.441   6.806  50.789  1.00  0.00    -0.242 NA
HETATM    4  C5  UNL     1      21.233   7.308  50.396  1.00  0.00     0.235 A 
HETATM    5  N2  UNL     1      20.326   6.458  49.827  1.00  0.00    -0.224 NA
HETATM    6  C6  UNL     1      20.632   5.160  49.665  1.00  0.00     0.141 A 
HETATM    7  C13 UNL     1      21.841   4.631  50.053  1.00  0.00     0.038 A 
HETATM    8  C14 UNL     1      22.229   3.238  49.887  1.00  0.00     0.015 A 
HETATM    9  C15 UNL     1      23.439   2.910  50.303  1.00  0.00     0.003 A 
HETATM   10  C16 UNL     1      24.490   3.756  50.924  1.00  0.00     0.148 A 
ENDROOT
BRANCH  10  11
HETATM   11  N4  UNL     1      24.883   3.126  52.177  1.00  0.00    -0.348 N 
HETATM   12  C17 UNL     1      26.241   2.691  52.188  1.00  0.00     0.252 C 
HETATM   13  O2  UNL     1      27.079   2.800  51.261  1.00  0.00    -0.271 OA
HETATM   14  H15 UNL     1      24.287   2.977  53.012  1.00  0.00     0.163 HD
BRANCH  12  15
HETATM   15  C18 UNL     1      26.882   2.020  53.357  1.00  0.00     0.313 C 
HETATM   16  C19 UNL     1      28.379   1.952  53.148  1.00  0.00     0.046 C 
HETATM   17  C20 UNL     1      29.094   1.201  54.205  1.00  0.00     0.004 C 
HETATM   18  C21 UNL     1      28.358   0.105  54.876  1.00  0.00     0.030 C 
HETATM   19  C22 UNL     1      26.856   0.196  54.778  1.00  0.00     0.273 C 
HETATM   20  N5  UNL     1      26.428   0.655  53.465  1.00  0.00     0.098 N 
HETATM   21  C23 UNL     1      26.999  -0.248  52.515  1.00  0.00     0.310 C 
ENDBRANCH  12  15
ENDBRANCH  10  11
BRANCH   1  22
HETATM   22  C2  UNL     1      25.004   6.162  50.379  1.00  0.00     0.042 C 
HETATM   23  C1  UNL     1      25.807   5.507  49.280  1.00  0.00     0.009 C 
ENDBRANCH   1  22
BRANCH   1  24
HETATM   24  O1  UNL     1      24.084   5.470  52.490  1.00  0.00    -0.381 OA
HETATM   25  H6  UNL     1      24.770   4.876  52.884  1.00  0.00     0.211 HD
ENDBRANCH   1  24
BRANCH   6  26
HETATM   26  N3  UNL     1      19.663   4.321  49.048  1.00  0.00    -0.340 N 
HETATM   27  H8  UNL     1      19.577   4.168  48.008  1.00  0.00     0.167 HD
BRANCH  26  28
HETATM   28  C7  UNL     1      18.733   3.620  49.853  1.00  0.00     0.035 A 
HETATM   29  C8  UNL     1      17.767   4.327  50.544  1.00  0.00     0.032 A 
HETATM   30  C9  UNL     1      16.820   3.711  51.333  1.00  0.00     0.046 A 
HETATM   31  C10 UNL     1      16.801   2.323  51.464  1.00  0.00     0.138 A 
HETATM   32  F1  UNL     1      15.861   1.731  52.244  1.00  0.00    -0.204 F 
HETATM   33  C11 UNL     1      17.780   1.619  50.761  1.00  0.00     0.074 A 
HETATM   34 CL1  UNL     1      17.739  -0.119  50.931  1.00  0.00    -0.081 Cl
HETATM   35  C12 UNL     1      18.710   2.262  49.984  1.00  0.00     0.056 A 
ENDBRANCH  26  28
ENDBRANCH   6  26
TORSDOF 6
ENDMDL
MODEL 6
REMARK VINA RESULT:      -8.0      5.615      8.517
REMARK  6 active torsions:
REMARK  status: ('A' for Active; 'I' for Inactive)
REMARK    1  A    between atoms: C2_2  and  C3_3 
REMARK    2  A    between atoms: C3_3  and  O1_4 
REMARK    3  A    between atoms: C6_9  and  N3_10 
REMARK    4  A    between atoms: N3_10  and  C7_11 
REMARK    5  A    between atoms: C16_22  and  N4_23 
REMARK       I    between atoms: N4_23  and  C17_24 
REMARK    6  A    between atoms: C17_24  and  C18_26 
ROOT
HETATM    1  C3  UNL     1      22.921   4.054  51.129  1.00  0.00     0.126 A 
HETATM    2  C4  UNL     1      21.530   3.830  50.663  1.00  0.00     0.086 A 
HETATM    3  N1  UNL     1      20.803   4.957  50.797  1.00  0.00    -0.242 NA
HETATM    4  C5  UNL     1      19.490   4.974  50.417  1.00  0.00     0.235 A 
HETATM    5  N2  UNL     1      18.943   3.832  49.905  1.00  0.00    -0.224 NA
HETATM    6  C6  UNL     1      19.693   2.724  49.782  1.00  0.00     0.141 A 
HETATM    7  C13 UNL     1      21.017   2.682  50.158  1.00  0.00     0.038 A 
HETATM    8  C14 UNL     1      21.878   1.515  50.033  1.00  0.00     0.015 A 
HETATM    9  C15 UNL     1      23.129   1.661  50.428  1.00  0.00     0.003 A 
HETATM   10  C16 UNL     1      23.813   2.854  50.990  1.00  0.00     0.148 A 
ENDROOT
BRANCH  10  11
HETATM   11  N4  UNL     1      24.421   2.463  52.254  1.00  0.00    -0.348 N 
HETATM   12  C17 UNL     1      25.833   2.287  52.170  1.00  0.00     0.252 C 
HETATM   13  O2  UNL     1      26.556   2.432  51.156  1.00  0.00    -0.271 OA
HETATM   14  H15 UNL     1      23.934   2.310  53.157  1.00  0.00     0.163 HD
BRANCH  12  15
HETATM   15  C18 UNL     1      26.685   1.890  53.331  1.00  0.00     0.313 C 
HETATM   16  C19 UNL     1      28.140   2.141  53.004  1.00  0.00     0.046 C 
HETATM   17  C20 UNL     1      29.075   1.673  54.053  1.00  0.00     0.004 C 
HETATM   18  C21 UNL     1      28.656   0.508  54.865  1.00  0.00     0.030 C 
HETATM   19  C22 UNL     1      27.170   0.249  54.886  1.00  0.00     0.273 C 
HETATM   20  N5  UNL     1      26.566   0.474  53.581  1.00  0.00     0.098 N 
HETATM   21  C23 UNL     1      27.270  -0.362  52.660  1.00  0.00     0.310 C 
ENDBRANCH  12  15
ENDBRANCH  10  11
BRANCH   1  22
HETATM   22  C2  UNL     1      23.421   5.258  50.343  1.00  0.00     0.042 C 
HETATM   23  C1  UNL     1      24.283   4.877  49.163  1.00  0.00     0.009 C 
ENDBRANCH   1  22
BRANCH   1  24
HETATM   24  O1  UNL     1      22.835   4.375  52.502  1.00  0.00    -0.381 OA
HETATM   25  H6  UNL     1      22.330   5.225  52.547  1.00  0.00     0.211 HD
ENDBRANCH   1  24
BRANCH   6  26
HETATM   26  N3  UNL     1      19.084   1.567  49.222  1.00  0.00    -0.340 N 
HETATM   27  H8  UNL     1      19.237   1.226  48.237  1.00  0.00     0.167 HD
BRANCH  26  28
HETATM   28  C7  UNL     1      18.208   0.787  50.015  1.00  0.00     0.035 A 
HETATM   29  C8  UNL     1      16.907   0.587  49.590  1.00  0.00     0.032 A 
HETATM   30  C9  UNL     1      16.005  -0.174  50.301  1.00  0.00     0.046 A 
HETATM   31  C10 UNL     1      16.378  -0.782  51.499  1.00  0.00     0.138 A 
HETATM   32  F1  UNL     1      15.478  -1.528  52.186  1.00  0.00    -0.204 F 
HETATM   33  C11 UNL     1      17.693  -0.574  51.918  1.00  0.00     0.074 A 
HETATM   34 CL1  UNL     1      18.147  -1.347  53.416  1.00  0.00    -0.081 Cl
HETATM   35  C12 UNL     1      18.568   0.190  51.187  1.00  0.00     0.056 A 
ENDBRANCH  26  28
ENDBRANCH   6  26
TORSDOF 6
ENDMDL
MODEL 7
REMARK VINA RESULT:      -7.9      4.407      6.576
REMARK  6 active torsions:
REMARK  status: ('A' for Active; 'I' for Inactive)
REMARK    1  A    between atoms: C2_2  and  C3_3 
REMARK    2  A    between atoms: C3_3  and  O1_4 
REMARK    3  A    between atoms: C6_9  and  N3_10 
REMARK    4  A    between atoms: N3_10  and  C7_11 
REMARK    5  A    between atoms: C16_22  and  N4_23 
REMARK       I    between atoms: N4_23  and  C17_24 
REMARK    6  A    between atoms: C17_24  and  C18_26 
ROOT
HETATM    1  C3  UNL     1      30.300   8.809  48.670  1.00  0.00     0.126 A 
HETATM    2  C4  UNL     1      28.850   8.659  48.947  1.00  0.00     0.086 A 
HETATM    3  N1  UNL     1      28.498   9.398  50.018  1.00  0.00    -0.242 NA
HETATM    4  C5  UNL     1      27.199   9.411  50.443  1.00  0.00     0.235 A 
HETATM    5  N2  UNL     1      26.280   8.665  49.761  1.00  0.00    -0.224 NA
HETATM    6  C6  UNL     1      26.661   7.940  48.696  1.00  0.00     0.141 A 
HETATM    7  C13 UNL     1      27.962   7.909  48.249  1.00  0.00     0.038 A 
HETATM    8  C14 UNL     1      28.425   7.154  47.094  1.00  0.00     0.015 A 
HETATM    9  C15 UNL     1      29.708   7.257  46.799  1.00  0.00     0.003 A 
HETATM   10  C16 UNL     1      30.777   8.040  47.472  1.00  0.00     0.148 A 
ENDROOT
BRANCH  10  11
HETATM   11  N4  UNL     1      31.861   7.123  47.794  1.00  0.00    -0.348 N 
HETATM   12  C17 UNL     1      32.551   6.639  46.644  1.00  0.00     0.252 C 
HETATM   13  O2  UNL     1      32.315   6.920  45.445  1.00  0.00    -0.271 OA
HETATM   14  H15 UNL     1      32.153   6.813  48.740  1.00  0.00     0.163 HD
BRANCH  12  15
HETATM   15  C18 UNL     1      33.702   5.690  46.712  1.00  0.00     0.313 C 
HETATM   16  C19 UNL     1      33.897   5.030  45.365  1.00  0.00     0.046 C 
HETATM   17  C20 UNL     1      34.948   3.985  45.361  1.00  0.00     0.004 C 
HETATM   18  C21 UNL     1      35.174   3.246  46.624  1.00  0.00     0.030 C 
HETATM   19  C22 UNL     1      34.693   3.949  47.868  1.00  0.00     0.273 C 
HETATM   20  N5  UNL     1      33.424   4.627  47.646  1.00  0.00     0.098 N 
HETATM   21  C23 UNL     1      32.512   3.632  47.174  1.00  0.00     0.310 C 
ENDBRANCH  12  15
ENDBRANCH  10  11
BRANCH   1  22
HETATM   22  C2  UNL     1      30.534  10.308  48.543  1.00  0.00     0.042 C 
HETATM   23  C1  UNL     1      30.244  10.836  47.158  1.00  0.00     0.009 C 
ENDBRANCH   1  22
BRANCH   1  24
HETATM   24  O1  UNL     1      30.977   8.309  49.806  1.00  0.00    -0.381 OA
HETATM   25  H6  UNL     1      30.491   8.671  50.588  1.00  0.00     0.211 HD
ENDBRANCH   1  24
BRANCH   6  26
HETATM   26  N3  UNL     1      25.663   7.197  48.005  1.00  0.00    -0.340 N 
HETATM   27  H8  UNL     1      25.230   7.484  47.088  1.00  0.00     0.167 HD
BRANCH  26  28
HETATM   28  C7  UNL     1      25.196   5.979  48.554  1.00  0.00     0.035 A 
HETATM   29  C8  UNL     1      26.107   5.075  49.068  1.00  0.00     0.032 A 
HETATM   30  C9  UNL     1      25.723   3.878  49.634  1.00  0.00     0.046 A 
HETATM   31  C10 UNL     1      24.376   3.529  49.710  1.00  0.00     0.138 A 
HETATM   32  F1  UNL     1      24.015   2.347  50.270  1.00  0.00    -0.204 F 
HETATM   33  C11 UNL     1      23.465   4.450  49.189  1.00  0.00     0.074 A 
HETATM   34 CL1  UNL     1      21.781   4.001  49.298  1.00  0.00    -0.081 Cl
HETATM   35  C12 UNL     1      23.878   5.634  48.632  1.00  0.00     0.056 A 
ENDBRANCH  26  28
ENDBRANCH   6  26
TORSDOF 6
ENDMDL
MODEL 8
REMARK VINA RESULT:      -7.8      4.131      7.265
REMARK  6 active torsions:
REMARK  status: ('A' for Active; 'I' for Inactive)
REMARK    1  A    between atoms: C2_2  and  C3_3 
REMARK    2  A    between atoms: C3_3  and  O1_4 
REMARK    3  A    between atoms: C6_9  and  N3_10 
REMARK    4  A    between atoms: N3_10  and  C7_11 
REMARK    5  A    between atoms: C16_22  and  N4_23 
REMARK       I    between atoms: N4_23  and  C17_24 
REMARK    6  A    between atoms: C17_24  and  C18_26 
ROOT
HETATM    1  C3  UNL     1      23.103   4.666  49.900  1.00  0.00     0.126 A 
HETATM    2  C4  UNL     1      24.371   4.023  50.327  1.00  0.00     0.086 A 
HETATM    3  N1  UNL     1      25.287   4.091  49.341  1.00  0.00    -0.242 NA
HETATM    4  C5  UNL     1      26.534   3.564  49.528  1.00  0.00     0.235 A 
HETATM    5  N2  UNL     1      26.822   2.975  50.727  1.00  0.00    -0.224 NA
HETATM    6  C6  UNL     1      25.888   2.924  51.692  1.00  0.00     0.141 A 
HETATM    7  C13 UNL     1      24.625   3.446  51.527  1.00  0.00     0.038 A 
HETATM    8  C14 UNL     1      23.583   3.431  52.543  1.00  0.00     0.015 A 
HETATM    9  C15 UNL     1      22.435   3.996  52.216  1.00  0.00     0.003 A 
HETATM   10  C16 UNL     1      22.030   4.661  50.951  1.00  0.00     0.148 A 
ENDROOT
BRANCH  10  11
HETATM   11  N4  UNL     1      20.802   4.028  50.490  1.00  0.00    -0.348 N 
HETATM   12  C17 UNL     1      19.812   4.961  50.064  1.00  0.00     0.252 C 
HETATM   13  O2  UNL     1      19.905   6.211  50.053  1.00  0.00    -0.271 OA
HETATM   14  H15 UNL     1      20.604   3.010  50.451  1.00  0.00     0.163 HD
BRANCH  12  15
HETATM   15  C18 UNL     1      18.471   4.560  49.545  1.00  0.00     0.313 C 
HETATM   16  C19 UNL     1      18.385   3.052  49.466  1.00  0.00     0.046 C 
HETATM   17  C20 UNL     1      17.129   2.558  48.855  1.00  0.00     0.004 C 
HETATM   18  C21 UNL     1      16.482   3.423  47.842  1.00  0.00     0.030 C 
HETATM   19  C22 UNL     1      16.870   4.879  47.907  1.00  0.00     0.273 C 
HETATM   20  N5  UNL     1      18.286   5.046  48.199  1.00  0.00     0.098 N 
HETATM   21  C23 UNL     1      18.995   4.319  47.193  1.00  0.00     0.310 C 
ENDBRANCH  12  15
ENDBRANCH  10  11
BRANCH   1  22
HETATM   22  C2  UNL     1      23.492   6.069  49.456  1.00  0.00     0.042 C 
HETATM   23  C1  UNL     1      23.468   7.073  50.584  1.00  0.00     0.009 C 
ENDBRANCH   1  22
BRANCH   1  24
HETATM   24  O1  UNL     1      22.632   3.923  48.794  1.00  0.00    -0.381 OA
HETATM   25  H6  UNL     1      21.739   3.588  49.058  1.00  0.00     0.211 HD
ENDBRANCH   1  24
BRANCH   6  26
HETATM   26  N3  UNL     1      26.243   2.320  52.930  1.00  0.00    -0.340 N 
HETATM   27  H8  UNL     1      26.141   2.781  53.872  1.00  0.00     0.167 HD
BRANCH  26  28
HETATM   28  C7  UNL     1      26.770   1.006  52.939  1.00  0.00     0.035 A 
HETATM   29  C8  UNL     1      25.974  -0.045  52.522  1.00  0.00     0.032 A 
HETATM   30  C9  UNL     1      26.425  -1.347  52.488  1.00  0.00     0.046 A 
HETATM   31  C10 UNL     1      27.727  -1.657  52.879  1.00  0.00     0.138 A 
HETATM   32  F1  UNL     1      28.155  -2.944  52.839  1.00  0.00    -0.204 F 
HETATM   33  C11 UNL     1      28.521  -0.588  53.297  1.00  0.00     0.074 A 
HETATM   34 CL1  UNL     1      30.150  -0.992  53.778  1.00  0.00    -0.081 Cl
HETATM   35  C12 UNL     1      28.042   0.698  53.321  1.00  0.00     0.056 A 
ENDBRANCH  26  28
ENDBRANCH   6  26
TORSDOF 6
ENDMDL
MODEL 9
REMARK VINA RESULT:      -7.7      4.636      5.765
REMARK  6 active torsions:
REMARK  status: ('A' for Active; 'I' for Inactive)
REMARK    1  A    between atoms: C2_2  and  C3_3 
REMARK    2  A    between atoms: C3_3  and  O1_4 
REMARK    3  A    between atoms: C6_9  and  N3_10 
REMARK    4  A    between atoms: N3_10  and  C7_11 
REMARK    5  A    between atoms: C16_22  and  N4_23 
REMARK       I    between atoms: N4_23  and  C17_24 
REMARK    6  A    between atoms: C17_24  and  C18_26 
ROOT
HETATM    1  C3  UNL     1      22.591   2.917  49.847  1.00  0.00     0.126 A 
HETATM    2  C4  UNL     1      23.342   2.518  51.063  1.00  0.00     0.086 A 
HETATM    3  N1  UNL     1      22.552   1.804  51.890  1.00  0.00    -0.242 NA
HETATM    4  C5  UNL     1      23.049   1.329  53.070  1.00  0.00     0.235 A 
HETATM    5  N2  UNL     1      24.352   1.593  53.385  1.00  0.00    -0.224 NA
HETATM    6  C6  UNL     1      25.116   2.306  52.540  1.00  0.00     0.141 A 
HETATM    7  C13 UNL     1      24.638   2.796  51.346  1.00  0.00     0.038 A 
HETATM    8  C14 UNL     1      25.425   3.560  50.389  1.00  0.00     0.015 A 
HETATM    9  C15 UNL     1      24.806   3.936  49.285  1.00  0.00     0.003 A 
HETATM   10  C16 UNL     1      23.405   3.695  48.853  1.00  0.00     0.148 A 
ENDROOT
BRANCH  10  11
HETATM   11  N4  UNL     1      22.811   4.987  48.537  1.00  0.00    -0.348 N 
HETATM   12  C17 UNL     1      22.217   5.032  47.241  1.00  0.00     0.252 C 
HETATM   13  O2  UNL     1      22.167   4.105  46.398  1.00  0.00    -0.271 OA
HETATM   14  H15 UNL     1      22.787   5.827  49.145  1.00  0.00     0.163 HD
BRANCH  12  15
HETATM   15  C18 UNL     1      21.541   6.241  46.686  1.00  0.00     0.313 C 
HETATM   16  C19 UNL     1      21.705   7.401  47.643  1.00  0.00     0.046 C 
HETATM   17  C20 UNL     1      20.970   8.620  47.233  1.00  0.00     0.004 C 
HETATM   18  C21 UNL     1      19.725   8.432  46.454  1.00  0.00     0.030 C 
HETATM   19  C22 UNL     1      19.611   7.104  45.749  1.00  0.00     0.273 C 
HETATM   20  N5  UNL     1      20.121   6.014  46.567  1.00  0.00     0.098 N 
HETATM   21  C23 UNL     1      19.397   6.061  47.799  1.00  0.00     0.310 C 
ENDBRANCH  12  15
ENDBRANCH  10  11
BRANCH   1  22
HETATM   22  C2  UNL     1      22.036   1.621  49.272  1.00  0.00     0.042 C 
HETATM   23  C1  UNL     1      20.693   1.799  48.603  1.00  0.00     0.009 C 
ENDBRANCH   1  22
BRANCH   1  24
HETATM   24  O1  UNL     1      21.532   3.744  50.285  1.00  0.00    -0.381 OA
HETATM   25  H6  UNL     1      21.956   4.590  50.574  1.00  0.00     0.211 HD
ENDBRANCH   1  24
BRANCH   6  26
HETATM   26  N3  UNL     1      26.472   2.535  52.902  1.00  0.00    -0.340 N 
HETATM   27  H8  UNL     1      26.901   3.487  53.047  1.00  0.00     0.167 HD
BRANCH  26  28
HETATM   28  C7  UNL     1      27.339   1.432  53.095  1.00  0.00     0.035 A 
HETATM   29  C8  UNL     1      28.585   1.640  53.656  1.00  0.00     0.032 A 
HETATM   30  C9  UNL     1      29.472   0.612  53.890  1.00  0.00     0.046 A 
HETATM   31  C10 UNL     1      29.138  -0.701  53.563  1.00  0.00     0.138 A 
HETATM   32  F1  UNL     1      30.023  -1.702  53.800  1.00  0.00    -0.204 F 
HETATM   33  C11 UNL     1      27.878  -0.899  52.998  1.00  0.00     0.074 A 
HETATM   34 CL1  UNL     1      27.472  -2.550  52.599  1.00  0.00    -0.081 Cl
HETATM   35  C12 UNL     1      27.016   0.146  52.777  1.00  0.00     0.056 A 
ENDBRANCH  26  28
ENDBRANCH   6  26
TORSDOF 6
ENDMDL
