MODEL 1
REMARK VINA RESULT:      -8.6      0.000      0.000
REMARK  7 active torsions:
REMARK  status: ('A' for Active; 'I' for Inactive)
REMARK    1  A    between atoms: O1_2  and  C2_3 
REMARK    2  A    between atoms: C3_4  and  N1_5 
REMARK       I    between atoms: N1_5  and  C4_6 
REMARK       I    between atoms: C4_6  and  N2_8 
REMARK    3  A    between atoms: N2_8  and  C5_9 
REMARK    4  A    between atoms: C8_12  and  O3_13 
REMARK    5  A    between atoms: O3_13  and  C9_14 
REMARK    6  A    between atoms: C13_20  and  O4_21 
REMARK    7  A    between atoms: C15_23  and  O5_24 
ROOT
HETATM    1  C5  UNL     1      24.796   5.166  49.464  1.00  0.00     0.036 A 
HETATM    2  C6  UNL     1      24.426   3.859  49.226  1.00  0.00     0.032 A 
HETATM    3  C7  UNL     1      23.746   3.127  50.173  1.00  0.00     0.039 A 
HETATM    4  C8  UNL     1      23.424   3.698  51.387  1.00  0.00     0.078 A 
HETATM    5  C19 UNL     1      23.810   5.000  51.585  1.00  0.00     0.039 A 
HETATM    6  C20 UNL     1      24.489   5.786  50.682  1.00  0.00     0.032 A 
ENDROOT
BRANCH   4   7
HETATM    7  O3  UNL     1      22.754   3.107  52.433  1.00  0.00    -0.291 OA
BRANCH   7   8
HETATM    8  C9  UNL     1      22.908   1.752  52.670  1.00  0.00     0.183 A 
HETATM    9  N3  UNL     1      21.901   0.882  52.419  1.00  0.00    -0.217 NA
HETATM   10  C10 UNL     1      22.075  -0.442  52.660  1.00  0.00     0.236 A 
HETATM   11  N4  UNL     1      23.226  -0.949  53.148  1.00  0.00    -0.241 NA
HETATM   12  C11 UNL     1      24.274  -0.123  53.422  1.00  0.00     0.075 A 
HETATM   13  C12 UNL     1      25.444  -0.651  53.921  1.00  0.00     0.072 A 
HETATM   14  C18 UNL     1      24.070   1.212  53.168  1.00  0.00     0.049 A 
HETATM   15  C13 UNL     1      26.509   0.215  54.196  1.00  0.00     0.103 A 
HETATM   16  C15 UNL     1      26.349   1.564  53.956  1.00  0.00     0.102 A 
HETATM   17  C17 UNL     1      25.144   2.028  53.453  1.00  0.00     0.057 A 
BRANCH  15  18
HETATM   18  O4  UNL     1      27.679  -0.338  54.698  1.00  0.00    -0.353 OA
HETATM   19  C14 UNL     1      28.567  -0.953  53.794  1.00  0.00     0.210 C 
ENDBRANCH  15  18
BRANCH  16  20
HETATM   20  O5  UNL     1      27.451   2.323  54.259  1.00  0.00    -0.353 OA
HETATM   21  C16 UNL     1      28.508   2.539  53.371  1.00  0.00     0.210 C 
ENDBRANCH  16  20
ENDBRANCH   7   8
ENDBRANCH   4   7
BRANCH   1  22
HETATM   22  N2  UNL     1      25.507   5.955  48.488  1.00  0.00    -0.309 N 
HETATM   23  C4  UNL     1      26.905   5.796  48.679  1.00  0.00     0.325 C 
HETATM   24  N1  UNL     1      27.909   6.421  47.903  1.00  0.00    -0.306 N 
HETATM   25  O2  UNL     1      27.243   5.034  49.616  1.00  0.00    -0.247 OA
HETATM   26  H4  UNL     1      27.497   7.023  47.163  1.00  0.00     0.171 HD
HETATM   27  H5  UNL     1      25.196   6.585  47.712  1.00  0.00     0.170 HD
BRANCH  24  28
HETATM   28  C3  UNL     1      29.308   6.303  48.041  1.00  0.00     0.069 A 
HETATM   29  C2  UNL     1      29.967   7.330  48.541  1.00  0.00     0.096 A 
HETATM   30  C23 UNL     1      31.406   7.468  48.787  1.00  0.00     0.241 A 
HETATM   31  O6  UNL     1      32.105   6.308  48.413  1.00  0.00    -0.356 OA
HETATM   32  C22 UNL     1      31.452   5.232  47.894  1.00  0.00     0.137 A 
HETATM   33  C21 UNL     1      30.146   5.181  47.701  1.00  0.00     0.056 A 
BRANCH  29  34
HETATM   34  O1  UNL     1      29.302   8.497  48.922  1.00  0.00    -0.356 OA
HETATM   35  C1  UNL     1      30.045   9.601  49.405  1.00  0.00     0.209 C 
ENDBRANCH  29  34
ENDBRANCH  24  28
ENDBRANCH   1  22
TORSDOF 7
ENDMDL
MODEL 2
REMARK VINA RESULT:      -8.4      2.279      8.662
REMARK  7 active torsions:
REMARK  status: ('A' for Active; 'I' for Inactive)
REMARK    1  A    between atoms: O1_2  and  C2_3 
REMARK    2  A    between atoms: C3_4  and  N1_5 
REMARK       I    between atoms: N1_5  and  C4_6 
REMARK       I    between atoms: C4_6  and  N2_8 
REMARK    3  A    between atoms: N2_8  and  C5_9 
REMARK    4  A    between atoms: C8_12  and  O3_13 
REMARK    5  A    between atoms: O3_13  and  C9_14 
REMARK    6  A    between atoms: C13_20  and  O4_21 
REMARK    7  A    between atoms: C15_23  and  O5_24 
ROOT
HETATM    1  C5  UNL     1      25.739   4.353  50.175  1.00  0.00     0.036 A 
HETATM    2  C6  UNL     1      25.417   5.694  50.184  1.00  0.00     0.032 A 
HETATM    3  C7  UNL     1      26.102   6.597  49.403  1.00  0.00     0.039 A 
HETATM    4  C8  UNL     1      27.133   6.166  48.592  1.00  0.00     0.078 A 
HETATM    5  C19 UNL     1      27.422   4.825  48.612  1.00  0.00     0.039 A 
HETATM    6  C20 UNL     1      26.776   3.872  49.368  1.00  0.00     0.032 A 
ENDROOT
BRANCH   4   7
HETATM    7  O3  UNL     1      27.912   6.934  47.758  1.00  0.00    -0.291 OA
BRANCH   7   8
HETATM    8  C9  UNL     1      28.906   7.736  48.291  1.00  0.00     0.183 A 
HETATM    9  N3  UNL     1      28.642   9.009  48.673  1.00  0.00    -0.217 NA
HETATM   10  C10 UNL     1      29.633   9.777  49.192  1.00  0.00     0.236 A 
HETATM   11  N4  UNL     1      30.895   9.330  49.353  1.00  0.00    -0.241 NA
HETATM   12  C11 UNL     1      31.221   8.059  48.986  1.00  0.00     0.075 A 
HETATM   13  C12 UNL     1      32.513   7.612  49.154  1.00  0.00     0.072 A 
HETATM   14  C18 UNL     1      30.199   7.303  48.463  1.00  0.00     0.049 A 
HETATM   15  C13 UNL     1      32.827   6.303  48.770  1.00  0.00     0.103 A 
HETATM   16  C15 UNL     1      31.832   5.508  48.240  1.00  0.00     0.102 A 
HETATM   17  C17 UNL     1      30.553   6.021  48.100  1.00  0.00     0.057 A 
BRANCH  15  18
HETATM   18  O4  UNL     1      34.135   5.873  48.947  1.00  0.00    -0.353 OA
HETATM   19  C14 UNL     1      35.177   6.733  48.551  1.00  0.00     0.210 C 
ENDBRANCH  15  18
BRANCH  16  20
HETATM   20  O5  UNL     1      32.244   4.245  47.898  1.00  0.00    -0.353 OA
HETATM   21  C16 UNL     1      31.980   3.654  46.661  1.00  0.00     0.210 C 
ENDBRANCH  16  20
ENDBRANCH   7   8
ENDBRANCH   4   7
BRANCH   1  22
HETATM   22  N2  UNL     1      25.035   3.387  50.983  1.00  0.00    -0.309 N 
HETATM   23  C4  UNL     1      25.935   2.368  51.393  1.00  0.00     0.325 C 
HETATM   24  N1  UNL     1      25.594   1.256  52.198  1.00  0.00    -0.306 N 
HETATM   25  O2  UNL     1      27.117   2.494  50.995  1.00  0.00    -0.247 OA
HETATM   26  H4  UNL     1      24.587   1.271  52.459  1.00  0.00     0.171 HD
HETATM   27  H5  UNL     1      24.041   3.308  51.302  1.00  0.00     0.170 HD
BRANCH  24  28
HETATM   28  C3  UNL     1      26.437   0.216  52.639  1.00  0.00     0.069 A 
HETATM   29  C2  UNL     1      27.354   0.505  53.540  1.00  0.00     0.096 A 
HETATM   30  C23 UNL     1      28.347  -0.379  54.161  1.00  0.00     0.241 A 
HETATM   31  O6  UNL     1      28.239  -1.693  53.676  1.00  0.00    -0.356 OA
HETATM   32  C22 UNL     1      27.301  -2.023  52.745  1.00  0.00     0.137 A 
HETATM   33  C21 UNL     1      26.437  -1.167  52.230  1.00  0.00     0.056 A 
BRANCH  29  34
HETATM   34  O1  UNL     1      27.488   1.801  54.042  1.00  0.00    -0.356 OA
HETATM   35  C1  UNL     1      28.719   2.485  53.899  1.00  0.00     0.209 C 
ENDBRANCH  29  34
ENDBRANCH  24  28
ENDBRANCH   1  22
TORSDOF 7
ENDMDL
MODEL 3
REMARK VINA RESULT:      -8.4      2.081      3.562
REMARK  7 active torsions:
REMARK  status: ('A' for Active; 'I' for Inactive)
REMARK    1  A    between atoms: O1_2  and  C2_3 
REMARK    2  A    between atoms: C3_4  and  N1_5 
REMARK       I    between atoms: N1_5  and  C4_6 
REMARK       I    between atoms: C4_6  and  N2_8 
REMARK    3  A    between atoms: N2_8  and  C5_9 
REMARK    4  A    between atoms: C8_12  and  O3_13 
REMARK    5  A    between atoms: O3_13  and  C9_14 
REMARK    6  A    between atoms: C13_20  and  O4_21 
REMARK    7  A    between atoms: C15_23  and  O5_24 
ROOT
HETATM    1  C5  UNL     1      27.918   6.257  48.271  1.00  0.00     0.036 A 
HETATM    2  C6  UNL     1      27.636   4.923  48.476  1.00  0.00     0.032 A 
HETATM    3  C7  UNL     1      26.579   4.531  49.265  1.00  0.00     0.039 A 
HETATM    4  C8  UNL     1      25.778   5.480  49.869  1.00  0.00     0.078 A 
HETATM    5  C19 UNL     1      26.092   6.796  49.640  1.00  0.00     0.039 A 
HETATM    6  C20 UNL     1      27.132   7.254  48.863  1.00  0.00     0.032 A 
ENDROOT
BRANCH   4   7
HETATM    7  O3  UNL     1      24.691   5.256  50.682  1.00  0.00    -0.291 OA
BRANCH   7   8
HETATM    8  C9  UNL     1      24.045   4.033  50.645  1.00  0.00     0.183 A 
HETATM    9  N3  UNL     1      23.007   3.819  49.802  1.00  0.00    -0.217 NA
HETATM   10  C10 UNL     1      22.389   2.611  49.783  1.00  0.00     0.236 A 
HETATM   11  N4  UNL     1      22.763   1.588  50.579  1.00  0.00    -0.241 NA
HETATM   12  C11 UNL     1      23.801   1.743  51.448  1.00  0.00     0.075 A 
HETATM   13  C12 UNL     1      24.174   0.692  52.257  1.00  0.00     0.072 A 
HETATM   14  C18 UNL     1      24.407   2.976  51.446  1.00  0.00     0.049 A 
HETATM   15  C13 UNL     1      25.242   0.873  53.143  1.00  0.00     0.103 A 
HETATM   16  C15 UNL     1      25.881   2.095  53.175  1.00  0.00     0.102 A 
HETATM   17  C17 UNL     1      25.454   3.109  52.334  1.00  0.00     0.057 A 
BRANCH  15  18
HETATM   18  O4  UNL     1      25.601  -0.198  53.949  1.00  0.00    -0.353 OA
HETATM   19  C14 UNL     1      26.405  -1.211  53.391  1.00  0.00     0.210 C 
ENDBRANCH  15  18
BRANCH  16  20
HETATM   20  O5  UNL     1      26.913   2.166  54.077  1.00  0.00    -0.353 OA
HETATM   21  C16 UNL     1      28.258   2.247  53.709  1.00  0.00     0.210 C 
ENDBRANCH  16  20
ENDBRANCH   7   8
ENDBRANCH   4   7
BRANCH   1  22
HETATM   22  N2  UNL     1      29.019   6.694  47.449  1.00  0.00    -0.309 N 
HETATM   23  C4  UNL     1      30.226   6.119  47.928  1.00  0.00     0.325 C 
HETATM   24  N1  UNL     1      31.507   6.326  47.365  1.00  0.00    -0.306 N 
HETATM   25  O2  UNL     1      30.112   5.374  48.931  1.00  0.00    -0.247 OA
HETATM   26  H4  UNL     1      31.462   6.961  46.543  1.00  0.00     0.171 HD
HETATM   27  H5  UNL     1      29.084   7.320  46.612  1.00  0.00     0.170 HD
BRANCH  24  28
HETATM   28  C3  UNL     1      32.737   5.786  47.792  1.00  0.00     0.069 A 
HETATM   29  C2  UNL     1      33.072   4.589  47.351  1.00  0.00     0.096 A 
HETATM   30  C23 UNL     1      34.279   3.807  47.636  1.00  0.00     0.241 A 
HETATM   31  O6  UNL     1      35.145   4.496  48.502  1.00  0.00    -0.356 OA
HETATM   32  C22 UNL     1      34.827   5.733  48.974  1.00  0.00     0.137 A 
HETATM   33  C21 UNL     1      33.715   6.378  48.671  1.00  0.00     0.056 A 
BRANCH  29  34
HETATM   34  O1  UNL     1      32.234   3.878  46.490  1.00  0.00    -0.356 OA
HETATM   35  C1  UNL     1      32.158   2.467  46.591  1.00  0.00     0.209 C 
ENDBRANCH  29  34
ENDBRANCH  24  28
ENDBRANCH   1  22
TORSDOF 7
ENDMDL
MODEL 4
REMARK VINA RESULT:      -8.3      2.039      9.124
REMARK  7 active torsions:
REMARK  status: ('A' for Active; 'I' for Inactive)
REMARK    1  A    between atoms: O1_2  and  C2_3 
REMARK    2  A    between atoms: C3_4  and  N1_5 
REMARK       I    between atoms: N1_5  and  C4_6 
REMARK       I    between atoms: C4_6  and  N2_8 
REMARK    3  A    between atoms: N2_8  and  C5_9 
REMARK    4  A    between atoms: C8_12  and  O3_13 
REMARK    5  A    between atoms: O3_13  and  C9_14 
REMARK    6  A    between atoms: C13_20  and  O4_21 
REMARK    7  A    between atoms: C15_23  and  O5_24 
ROOT
HETATM    1  C5  UNL     1      25.372   4.681  50.027  1.00  0.00     0.036 A 
HETATM    2  C6  UNL     1      25.322   6.055  49.939  1.00  0.00     0.032 A 
HETATM    3  C7  UNL     1      26.247   6.756  49.197  1.00  0.00     0.039 A 
HETATM    4  C8  UNL     1      27.247   6.083  48.526  1.00  0.00     0.078 A 
HETATM    5  C19 UNL     1      27.262   4.715  48.640  1.00  0.00     0.039 A 
HETATM    6  C20 UNL     1      26.369   3.956  49.362  1.00  0.00     0.032 A 
ENDROOT
BRANCH   4   7
HETATM    7  O3  UNL     1      28.241   6.630  47.749  1.00  0.00    -0.291 OA
BRANCH   7   8
HETATM    8  C9  UNL     1      29.240   7.383  48.339  1.00  0.00     0.183 A 
HETATM    9  N3  UNL     1      28.989   8.630  48.804  1.00  0.00    -0.217 NA
HETATM   10  C10 UNL     1      29.985   9.350  49.379  1.00  0.00     0.236 A 
HETATM   11  N4  UNL     1      31.241   8.878  49.517  1.00  0.00    -0.241 NA
HETATM   12  C11 UNL     1      31.555   7.630  49.069  1.00  0.00     0.075 A 
HETATM   13  C12 UNL     1      32.840   7.158  49.214  1.00  0.00     0.072 A 
HETATM   14  C18 UNL     1      30.528   6.924  48.490  1.00  0.00     0.049 A 
HETATM   15  C13 UNL     1      33.141   5.874  48.746  1.00  0.00     0.103 A 
HETATM   16  C15 UNL     1      32.141   5.128  48.158  1.00  0.00     0.102 A 
HETATM   17  C17 UNL     1      30.869   5.665  48.044  1.00  0.00     0.057 A 
BRANCH  15  18
HETATM   18  O4  UNL     1      34.443   5.418  48.901  1.00  0.00    -0.353 OA
HETATM   19  C14 UNL     1      35.497   6.330  48.697  1.00  0.00     0.210 C 
ENDBRANCH  15  18
BRANCH  16  20
HETATM   20  O5  UNL     1      32.541   3.885  47.735  1.00  0.00    -0.353 OA
HETATM   21  C16 UNL     1      32.648   3.524  46.390  1.00  0.00     0.210 C 
ENDBRANCH  16  20
ENDBRANCH   7   8
ENDBRANCH   4   7
BRANCH   1  22
HETATM   22  N2  UNL     1      24.415   3.923  50.796  1.00  0.00    -0.309 N 
HETATM   23  C4  UNL     1      25.102   3.019  51.648  1.00  0.00     0.325 C 
HETATM   24  N1  UNL     1      24.484   2.116  52.546  1.00  0.00    -0.306 N 
HETATM   25  O2  UNL     1      26.353   3.046  51.575  1.00  0.00    -0.247 OA
HETATM   26  H4  UNL     1      23.448   2.194  52.508  1.00  0.00     0.171 HD
HETATM   27  H5  UNL     1      23.368   3.922  50.836  1.00  0.00     0.170 HD
BRANCH  24  28
HETATM   28  C3  UNL     1      25.107   1.198  53.415  1.00  0.00     0.069 A 
HETATM   29  C2  UNL     1      24.492   0.055  53.649  1.00  0.00     0.096 A 
HETATM   30  C23 UNL     1      24.915  -1.060  54.501  1.00  0.00     0.241 A 
HETATM   31  O6  UNL     1      26.152  -0.799  55.114  1.00  0.00    -0.356 OA
HETATM   32  C22 UNL     1      26.812   0.372  54.891  1.00  0.00     0.137 A 
HETATM   33  C21 UNL     1      26.365   1.335  54.106  1.00  0.00     0.056 A 
BRANCH  29  34
HETATM   34  O1  UNL     1      23.262  -0.236  53.056  1.00  0.00    -0.356 OA
HETATM   35  C1  UNL     1      22.313  -1.018  53.758  1.00  0.00     0.209 C 
ENDBRANCH  29  34
ENDBRANCH  24  28
ENDBRANCH   1  22
TORSDOF 7
ENDMDL
MODEL 5
REMARK VINA RESULT:      -8.2      2.332      3.036
REMARK  7 active torsions:
REMARK  status: ('A' for Active; 'I' for Inactive)
REMARK    1  A    between atoms: O1_2  and  C2_3 
REMARK    2  A    between atoms: C3_4  and  N1_5 
REMARK       I    between atoms: N1_5  and  C4_6 
REMARK       I    between atoms: C4_6  and  N2_8 
REMARK    3  A    between atoms: N2_8  and  C5_9 
REMARK    4  A    between atoms: C8_12  and  O3_13 
REMARK    5  A    between atoms: O3_13  and  C9_14 
REMARK    6  A    between atoms: C13_20  and  O4_21 
REMARK    7  A    between atoms: C15_23  and  O5_24 
ROOT
HETATM    1  C5  UNL     1      25.050   6.847  49.222  1.00  0.00     0.036 A 
HETATM    2  C6  UNL     1      25.422   5.523  49.320  1.00  0.00     0.032 A 
HETATM    3  C7  UNL     1      24.974   4.731  50.353  1.00  0.00     0.039 A 
HETATM    4  C8  UNL     1      24.138   5.261  51.316  1.00  0.00     0.078 A 
HETATM    5  C19 UNL     1      23.792   6.582  51.182  1.00  0.00     0.039 A 
HETATM    6  C20 UNL     1      24.204   7.425  50.175  1.00  0.00     0.032 A 
ENDROOT
BRANCH   4   7
HETATM    7  O3  UNL     1      23.606   4.610  52.405  1.00  0.00    -0.291 OA
BRANCH   7   8
HETATM    8  C9  UNL     1      23.255   3.275  52.304  1.00  0.00     0.183 A 
HETATM    9  N3  UNL     1      22.065   2.907  51.771  1.00  0.00    -0.217 NA
HETATM   10  C10 UNL     1      21.742   1.592  51.682  1.00  0.00     0.236 A 
HETATM   11  N4  UNL     1      22.563   0.609  52.107  1.00  0.00    -0.241 NA
HETATM   12  C11 UNL     1      23.772   0.917  52.653  1.00  0.00     0.075 A 
HETATM   13  C12 UNL     1      24.602  -0.093  53.085  1.00  0.00     0.072 A 
HETATM   14  C18 UNL     1      24.073   2.256  52.731  1.00  0.00     0.049 A 
HETATM   15  C13 UNL     1      25.840   0.245  53.644  1.00  0.00     0.103 A 
HETATM   16  C15 UNL     1      26.184   1.577  53.741  1.00  0.00     0.102 A 
HETATM   17  C17 UNL     1      25.301   2.544  53.287  1.00  0.00     0.057 A 
BRANCH  15  18
HETATM   18  O4  UNL     1      26.660  -0.789  54.073  1.00  0.00    -0.353 OA
HETATM   19  C14 UNL     1      27.368  -1.524  53.102  1.00  0.00     0.210 C 
ENDBRANCH  15  18
BRANCH  16  20
HETATM   20  O5  UNL     1      27.416   1.800  54.302  1.00  0.00    -0.353 OA
HETATM   21  C16 UNL     1      28.493   2.356  53.608  1.00  0.00     0.210 C 
ENDBRANCH  16  20
ENDBRANCH   7   8
ENDBRANCH   4   7
BRANCH   1  22
HETATM   22  N2  UNL     1      25.506   7.696  48.148  1.00  0.00    -0.309 N 
HETATM   23  C4  UNL     1      26.545   8.540  48.621  1.00  0.00     0.325 C 
HETATM   24  N1  UNL     1      27.229   9.504  47.843  1.00  0.00    -0.306 N 
HETATM   25  O2  UNL     1      26.858   8.395  49.827  1.00  0.00    -0.247 OA
HETATM   26  H4  UNL     1      26.875   9.523  46.866  1.00  0.00     0.171 HD
HETATM   27  H5  UNL     1      25.224   7.796  47.145  1.00  0.00     0.170 HD
BRANCH  24  28
HETATM   28  C3  UNL     1      28.266  10.368  48.251  1.00  0.00     0.069 A 
HETATM   29  C2  UNL     1      27.941  11.591  48.618  1.00  0.00     0.096 A 
HETATM   30  C23 UNL     1      28.813  12.676  49.080  1.00  0.00     0.241 A 
HETATM   31  O6  UNL     1      30.160  12.277  49.107  1.00  0.00    -0.356 OA
HETATM   32  C22 UNL     1      30.526  11.020  48.734  1.00  0.00     0.137 A 
HETATM   33  C21 UNL     1      29.679  10.092  48.327  1.00  0.00     0.056 A 
BRANCH  29  34
HETATM   34  O1  UNL     1      26.612  12.020  48.603  1.00  0.00    -0.356 OA
HETATM   35  C1  UNL     1      26.265  13.205  47.910  1.00  0.00     0.209 C 
ENDBRANCH  29  34
ENDBRANCH  24  28
ENDBRANCH   1  22
TORSDOF 7
ENDMDL
MODEL 6
REMARK VINA RESULT:      -7.9      5.965     11.147
REMARK  7 active torsions:
REMARK  status: ('A' for Active; 'I' for Inactive)
REMARK    1  A    between atoms: O1_2  and  C2_3 
REMARK    2  A    between atoms: C3_4  and  N1_5 
REMARK       I    between atoms: N1_5  and  C4_6 
REMARK       I    between atoms: C4_6  and  N2_8 
REMARK    3  A    between atoms: N2_8  and  C5_9 
REMARK    4  A    between atoms: C8_12  and  O3_13 
REMARK    5  A    between atoms: O3_13  and  C9_14 
REMARK    6  A    between atoms: C13_20  and  O4_21 
REMARK    7  A    between atoms: C15_23  and  O5_24 
ROOT
HETATM    1  C5  UNL     1      17.441   0.300  51.055  1.00  0.00     0.036 A 
HETATM    2  C6  UNL     1      18.096  -0.184  52.168  1.00  0.00     0.032 A 
HETATM    3  C7  UNL     1      19.466  -0.101  52.281  1.00  0.00     0.039 A 
HETATM    4  C8  UNL     1      20.209   0.472  51.269  1.00  0.00     0.078 A 
HETATM    5  C19 UNL     1      19.520   0.941  50.179  1.00  0.00     0.039 A 
HETATM    6  C20 UNL     1      18.155   0.890  50.005  1.00  0.00     0.032 A 
ENDROOT
BRANCH   4   7
HETATM    7  O3  UNL     1      21.575   0.630  51.227  1.00  0.00    -0.291 OA
BRANCH   7   8
HETATM    8  C9  UNL     1      22.146   1.804  51.684  1.00  0.00     0.183 A 
HETATM    9  N3  UNL     1      21.532   2.997  51.493  1.00  0.00    -0.217 NA
HETATM   10  C10 UNL     1      22.111   4.135  51.950  1.00  0.00     0.236 A 
HETATM   11  N4  UNL     1      23.293   4.143  52.601  1.00  0.00    -0.241 NA
HETATM   12  C11 UNL     1      23.958   2.975  52.823  1.00  0.00     0.075 A 
HETATM   13  C12 UNL     1      25.163   2.993  53.488  1.00  0.00     0.072 A 
HETATM   14  C18 UNL     1      23.349   1.837  52.349  1.00  0.00     0.049 A 
HETATM   15  C13 UNL     1      25.830   1.782  53.705  1.00  0.00     0.103 A 
HETATM   16  C15 UNL     1      25.255   0.614  53.247  1.00  0.00     0.102 A 
HETATM   17  C17 UNL     1      24.039   0.668  52.585  1.00  0.00     0.057 A 
BRANCH  15  18
HETATM   18  O4  UNL     1      27.044   1.823  54.377  1.00  0.00    -0.353 OA
HETATM   19  C14 UNL     1      28.191   2.210  53.656  1.00  0.00     0.210 C 
ENDBRANCH  15  18
BRANCH  16  20
HETATM   20  O5  UNL     1      25.989  -0.515  53.512  1.00  0.00    -0.353 OA
HETATM   21  C16 UNL     1      26.754  -1.182  52.552  1.00  0.00     0.210 C 
ENDBRANCH  16  20
ENDBRANCH   7   8
ENDBRANCH   4   7
BRANCH   1  22
HETATM   22  N2  UNL     1      16.008   0.227  50.913  1.00  0.00    -0.309 N 
HETATM   23  C4  UNL     1      15.403   1.265  51.669  1.00  0.00     0.325 C 
HETATM   24  N1  UNL     1      14.011   1.500  51.765  1.00  0.00    -0.306 N 
HETATM   25  O2  UNL     1      16.193   2.016  52.291  1.00  0.00    -0.247 OA
HETATM   26  H4  UNL     1      13.471   0.809  51.205  1.00  0.00     0.171 HD
HETATM   27  H5  UNL     1      15.372  -0.415  50.384  1.00  0.00     0.170 HD
BRANCH  24  28
HETATM   28  C3  UNL     1      13.352   2.510  52.495  1.00  0.00     0.069 A 
HETATM   29  C2  UNL     1      12.851   2.193  53.672  1.00  0.00     0.096 A 
HETATM   30  C23 UNL     1      12.127   3.041  54.624  1.00  0.00     0.241 A 
HETATM   31  O6  UNL     1      11.991   4.354  54.141  1.00  0.00    -0.356 OA
HETATM   32  C22 UNL     1      12.498   4.712  52.929  1.00  0.00     0.137 A 
HETATM   33  C21 UNL     1      13.142   3.887  52.123  1.00  0.00     0.056 A 
BRANCH  29  34
HETATM   34  O1  UNL     1      12.969   0.897  54.181  1.00  0.00    -0.356 OA
HETATM   35  C1  UNL     1      11.803   0.143  54.457  1.00  0.00     0.209 C 
ENDBRANCH  29  34
ENDBRANCH  24  28
ENDBRANCH   1  22
TORSDOF 7
ENDMDL
MODEL 7
REMARK VINA RESULT:      -7.8      4.829     10.159
REMARK  7 active torsions:
REMARK  status: ('A' for Active; 'I' for Inactive)
REMARK    1  A    between atoms: O1_2  and  C2_3 
REMARK    2  A    between atoms: C3_4  and  N1_5 
REMARK       I    between atoms: N1_5  and  C4_6 
REMARK       I    between atoms: C4_6  and  N2_8 
REMARK    3  A    between atoms: N2_8  and  C5_9 
REMARK    4  A    between atoms: C8_12  and  O3_13 
REMARK    5  A    between atoms: O3_13  and  C9_14 
REMARK    6  A    between atoms: C13_20  and  O4_21 
REMARK    7  A    between atoms: C15_23  and  O5_24 
ROOT
HETATM    1  C5  UNL     1      19.800   1.312  50.374  1.00  0.00     0.036 A 
HETATM    2  C6  UNL     1      20.943   0.541  50.381  1.00  0.00     0.032 A 
HETATM    3  C7  UNL     1      22.062   0.933  51.079  1.00  0.00     0.039 A 
HETATM    4  C8  UNL     1      22.055   2.118  51.788  1.00  0.00     0.078 A 
HETATM    5  C19 UNL     1      20.899   2.856  51.755  1.00  0.00     0.039 A 
HETATM    6  C20 UNL     1      19.747   2.521  51.079  1.00  0.00     0.032 A 
ENDROOT
BRANCH   4   7
HETATM    7  O3  UNL     1      23.083   2.649  52.531  1.00  0.00    -0.291 OA
BRANCH   7   8
HETATM    8  C9  UNL     1      24.377   2.613  52.040  1.00  0.00     0.183 A 
HETATM    9  N3  UNL     1      24.783   3.484  51.085  1.00  0.00    -0.217 NA
HETATM   10  C10 UNL     1      26.056   3.429  50.618  1.00  0.00     0.236 A 
HETATM   11  N4  UNL     1      26.959   2.533  51.066  1.00  0.00    -0.241 NA
HETATM   12  C11 UNL     1      26.609   1.631  52.025  1.00  0.00     0.075 A 
HETATM   13  C12 UNL     1      27.538   0.720  52.475  1.00  0.00     0.072 A 
HETATM   14  C18 UNL     1      25.314   1.709  52.479  1.00  0.00     0.049 A 
HETATM   15  C13 UNL     1      27.158  -0.198  53.461  1.00  0.00     0.103 A 
HETATM   16  C15 UNL     1      25.867  -0.157  53.946  1.00  0.00     0.102 A 
HETATM   17  C17 UNL     1      24.983   0.787  53.449  1.00  0.00     0.057 A 
BRANCH  15  18
HETATM   18  O4  UNL     1      28.110  -1.108  53.899  1.00  0.00    -0.353 OA
HETATM   19  C14 UNL     1      29.462  -0.712  53.894  1.00  0.00     0.210 C 
ENDBRANCH  15  18
BRANCH  16  20
HETATM   20  O5  UNL     1      25.598  -1.097  54.908  1.00  0.00    -0.353 OA
HETATM   21  C16 UNL     1      24.359  -1.226  55.539  1.00  0.00     0.210 C 
ENDBRANCH  16  20
ENDBRANCH   7   8
ENDBRANCH   4   7
BRANCH   1  22
HETATM   22  N2  UNL     1      18.613   0.923  49.651  1.00  0.00    -0.309 N 
HETATM   23  C4  UNL     1      17.689   0.324  50.547  1.00  0.00     0.325 C 
HETATM   24  N1  UNL     1      16.415  -0.178  50.189  1.00  0.00    -0.306 N 
HETATM   25  O2  UNL     1      18.060   0.249  51.743  1.00  0.00    -0.247 OA
HETATM   26  H4  UNL     1      16.232  -0.055  49.173  1.00  0.00     0.171 HD
HETATM   27  H5  UNL     1      18.329   0.999  48.646  1.00  0.00     0.170 HD
BRANCH  24  28
HETATM   28  C3  UNL     1      15.455  -0.780  51.027  1.00  0.00     0.069 A 
HETATM   29  C2  UNL     1      14.426  -0.050  51.411  1.00  0.00     0.096 A 
HETATM   30  C23 UNL     1      13.300  -0.427  52.271  1.00  0.00     0.241 A 
HETATM   31  O6  UNL     1      13.405  -1.760  52.701  1.00  0.00    -0.356 OA
HETATM   32  C22 UNL     1      14.455  -2.539  52.321  1.00  0.00     0.137 A 
HETATM   33  C21 UNL     1      15.438  -2.127  51.540  1.00  0.00     0.056 A 
BRANCH  29  34
HETATM   34  O1  UNL     1      14.292   1.278  51.002  1.00  0.00    -0.356 OA
HETATM   35  C1  UNL     1      14.414   2.321  51.952  1.00  0.00     0.209 C 
ENDBRANCH  29  34
ENDBRANCH  24  28
ENDBRANCH   1  22
TORSDOF 7
ENDMDL
MODEL 8
REMARK VINA RESULT:      -7.8      3.631      9.331
REMARK  7 active torsions:
REMARK  status: ('A' for Active; 'I' for Inactive)
REMARK    1  A    between atoms: O1_2  and  C2_3 
REMARK    2  A    between atoms: C3_4  and  N1_5 
REMARK       I    between atoms: N1_5  and  C4_6 
REMARK       I    between atoms: C4_6  and  N2_8 
REMARK    3  A    between atoms: N2_8  and  C5_9 
REMARK    4  A    between atoms: C8_12  and  O3_13 
REMARK    5  A    between atoms: O3_13  and  C9_14 
REMARK    6  A    between atoms: C13_20  and  O4_21 
REMARK    7  A    between atoms: C15_23  and  O5_24 
ROOT
HETATM    1  C5  UNL     1      25.688   4.887  50.241  1.00  0.00     0.036 A 
HETATM    2  C6  UNL     1      25.579   6.236  49.980  1.00  0.00     0.032 A 
HETATM    3  C7  UNL     1      26.414   6.857  49.078  1.00  0.00     0.039 A 
HETATM    4  C8  UNL     1      27.382   6.128  48.418  1.00  0.00     0.078 A 
HETATM    5  C19 UNL     1      27.457   4.788  48.706  1.00  0.00     0.039 A 
HETATM    6  C20 UNL     1      26.655   4.108  49.594  1.00  0.00     0.032 A 
ENDROOT
BRANCH   4   7
HETATM    7  O3  UNL     1      28.289   6.594  47.494  1.00  0.00    -0.291 OA
BRANCH   7   8
HETATM    8  C9  UNL     1      29.330   7.408  47.904  1.00  0.00     0.183 A 
HETATM    9  N3  UNL     1      29.142   8.735  48.094  1.00  0.00    -0.217 NA
HETATM   10  C10 UNL     1      30.178   9.514  48.496  1.00  0.00     0.236 A 
HETATM   11  N4  UNL     1      31.415   9.024  48.721  1.00  0.00    -0.241 NA
HETATM   12  C11 UNL     1      31.665   7.697  48.546  1.00  0.00     0.075 A 
HETATM   13  C12 UNL     1      32.931   7.206  48.778  1.00  0.00     0.072 A 
HETATM   14  C18 UNL     1      30.599   6.932  48.139  1.00  0.00     0.049 A 
HETATM   15  C13 UNL     1      33.168   5.840  48.592  1.00  0.00     0.103 A 
HETATM   16  C15 UNL     1      32.125   5.033  48.184  1.00  0.00     0.102 A 
HETATM   17  C17 UNL     1      30.876   5.592  47.969  1.00  0.00     0.057 A 
BRANCH  15  18
HETATM   18  O4  UNL     1      34.451   5.367  48.831  1.00  0.00    -0.353 OA
HETATM   19  C14 UNL     1      35.517   6.286  48.791  1.00  0.00     0.210 C 
ENDBRANCH  15  18
BRANCH  16  20
HETATM   20  O5  UNL     1      32.463   3.712  48.032  1.00  0.00    -0.353 OA
HETATM   21  C16 UNL     1      32.414   3.037  46.810  1.00  0.00     0.210 C 
ENDBRANCH  16  20
ENDBRANCH   7   8
ENDBRANCH   4   7
BRANCH   1  22
HETATM   22  N2  UNL     1      24.825   4.212  51.180  1.00  0.00    -0.309 N 
HETATM   23  C4  UNL     1      23.622   3.832  50.529  1.00  0.00     0.325 C 
HETATM   24  N1  UNL     1      22.544   3.150  51.141  1.00  0.00    -0.306 N 
HETATM   25  O2  UNL     1      23.539   4.140  49.316  1.00  0.00    -0.247 OA
HETATM   26  H4  UNL     1      22.740   2.956  52.144  1.00  0.00     0.171 HD
HETATM   27  H5  UNL     1      24.922   3.967  52.194  1.00  0.00     0.170 HD
BRANCH  24  28
HETATM   28  C3  UNL     1      21.329   2.746  50.552  1.00  0.00     0.069 A 
HETATM   29  C2  UNL     1      20.349   3.625  50.494  1.00  0.00     0.096 A 
HETATM   30  C23 UNL     1      19.000   3.466  49.940  1.00  0.00     0.241 A 
HETATM   31  O6  UNL     1      18.807   2.174  49.421  1.00  0.00    -0.356 OA
HETATM   32  C22 UNL     1      19.801   1.244  49.467  1.00  0.00     0.137 A 
HETATM   33  C21 UNL     1      20.996   1.463  49.984  1.00  0.00     0.056 A 
BRANCH  29  34
HETATM   34  O1  UNL     1      20.508   4.917  51.000  1.00  0.00    -0.356 OA
HETATM   35  C1  UNL     1      20.517   6.021  50.115  1.00  0.00     0.209 C 
ENDBRANCH  29  34
ENDBRANCH  24  28
ENDBRANCH   1  22
TORSDOF 7
ENDMDL
MODEL 9
REMARK VINA RESULT:      -7.7      5.446      9.852
REMARK  7 active torsions:
REMARK  status: ('A' for Active; 'I' for Inactive)
REMARK    1  A    between atoms: O1_2  and  C2_3 
REMARK    2  A    between atoms: C3_4  and  N1_5 
REMARK       I    between atoms: N1_5  and  C4_6 
REMARK       I    between atoms: C4_6  and  N2_8 
REMARK    3  A    between atoms: N2_8  and  C5_9 
REMARK    4  A    between atoms: C8_12  and  O3_13 
REMARK    5  A    between atoms: O3_13  and  C9_14 
REMARK    6  A    between atoms: C13_20  and  O4_21 
REMARK    7  A    between atoms: C15_23  and  O5_24 
ROOT
HETATM    1  C5  UNL     1      19.464   2.618  50.974  1.00  0.00     0.036 A 
HETATM    2  C6  UNL     1      20.195   3.547  50.264  1.00  0.00     0.032 A 
HETATM    3  C7  UNL     1      21.431   3.966  50.701  1.00  0.00     0.039 A 
HETATM    4  C8  UNL     1      21.959   3.457  51.871  1.00  0.00     0.078 A 
HETATM    5  C19 UNL     1      21.200   2.535  52.547  1.00  0.00     0.039 A 
HETATM    6  C20 UNL     1      19.960   2.075  52.165  1.00  0.00     0.032 A 
ENDROOT
BRANCH   4   7
HETATM    7  O3  UNL     1      23.171   3.769  52.441  1.00  0.00    -0.291 OA
BRANCH   7   8
HETATM    8  C9  UNL     1      24.343   3.338  51.845  1.00  0.00     0.183 A 
HETATM    9  N3  UNL     1      24.929   4.060  50.861  1.00  0.00    -0.217 NA
HETATM   10  C10 UNL     1      26.078   3.618  50.290  1.00  0.00     0.236 A 
HETATM   11  N4  UNL     1      26.682   2.469  50.661  1.00  0.00    -0.241 NA
HETATM   12  C11 UNL     1      26.139   1.700  51.645  1.00  0.00     0.075 A 
HETATM   13  C12 UNL     1      26.763   0.529  52.016  1.00  0.00     0.072 A 
HETATM   14  C18 UNL     1      24.976   2.171  52.205  1.00  0.00     0.049 A 
HETATM   15  C13 UNL     1      26.188  -0.247  53.029  1.00  0.00     0.103 A 
HETATM   16  C15 UNL     1      25.020   0.188  53.619  1.00  0.00     0.102 A 
HETATM   17  C17 UNL     1      24.446   1.376  53.198  1.00  0.00     0.057 A 
BRANCH  15  18
HETATM   18  O4  UNL     1      26.833  -1.424  53.386  1.00  0.00    -0.353 OA
HETATM   19  C14 UNL     1      27.046  -2.396  52.389  1.00  0.00     0.210 C 
ENDBRANCH  15  18
BRANCH  16  20
HETATM   20  O5  UNL     1      24.542  -0.645  54.600  1.00  0.00    -0.353 OA
HETATM   21  C16 UNL     1      23.200  -1.017  54.712  1.00  0.00     0.210 C 
ENDBRANCH  16  20
ENDBRANCH   7   8
ENDBRANCH   4   7
BRANCH   1  22
HETATM   22  N2  UNL     1      18.167   2.162  50.537  1.00  0.00    -0.309 N 
HETATM   23  C4  UNL     1      17.155   2.895  51.212  1.00  0.00     0.325 C 
HETATM   24  N1  UNL     1      15.763   2.716  51.033  1.00  0.00    -0.306 N 
HETATM   25  O2  UNL     1      17.560   3.760  52.024  1.00  0.00    -0.247 OA
HETATM   26  H4  UNL     1      15.563   1.971  50.335  1.00  0.00     0.171 HD
HETATM   27  H5  UNL     1      17.857   1.433  49.852  1.00  0.00     0.170 HD
BRANCH  24  28
HETATM   28  C3  UNL     1      14.713   3.409  51.669  1.00  0.00     0.069 A 
HETATM   29  C2  UNL     1      13.829   4.024  50.907  1.00  0.00     0.096 A 
HETATM   30  C23 UNL     1      12.655   4.806  51.307  1.00  0.00     0.241 A 
HETATM   31  O6  UNL     1      12.524   4.858  52.705  1.00  0.00    -0.356 OA
HETATM   32  C22 UNL     1      13.420   4.233  53.518  1.00  0.00     0.137 A 
HETATM   33  C21 UNL     1      14.459   3.544  53.082  1.00  0.00     0.056 A 
BRANCH  29  34
HETATM   34  O1  UNL     1      13.930   3.991  49.515  1.00  0.00    -0.356 OA
HETATM   35  C1  UNL     1      14.267   5.172  48.809  1.00  0.00     0.209 C 
ENDBRANCH  29  34
ENDBRANCH  24  28
ENDBRANCH   1  22
TORSDOF 7
ENDMDL
