MODEL 1
REMARK VINA RESULT:      -7.1      0.000      0.000
REMARK  2 active torsions:
REMARK  status: ('A' for Active; 'I' for Inactive)
REMARK    1  A    between atoms: N1_2  and  C2_3 
REMARK    2  A    between atoms: C12_15  and  C13_16 
ROOT
HETATM    1  C2  UNL     1      22.242   1.725  50.984  1.00  0.00     0.062 C 
HETATM    2  C3  UNL     1      21.245   0.558  50.878  1.00  0.00     0.053 C 
HETATM    3  C4  UNL     1      20.015   0.938  50.139  1.00  0.00     0.119 C 
HETATM    4  N2  UNL     1      20.316   1.620  48.950  1.00  0.00    -0.414 N 
HETATM    5  C5  UNL     1      19.531   2.721  48.567  1.00  0.00     0.143 C 
HETATM    6  C6  UNL     1      21.668   1.585  48.509  1.00  0.00     0.151 C 
HETATM    7  C7  UNL     1      22.688   1.918  49.539  1.00  0.00     0.173 C 
HETATM    8  O1  UNL     1      23.123   3.269  49.255  1.00  0.00    -0.352 OA
HETATM    9  C8  UNL     1      24.418   3.855  49.452  1.00  0.00     0.160 C 
HETATM   10  C9  UNL     1      25.038   3.736  50.649  1.00  0.00     0.031 C 
HETATM   11  C10 UNL     1      24.424   3.608  52.074  1.00  0.00     0.094 C 
HETATM   12  C11 UNL     1      24.492   2.072  51.987  1.00  0.00    -0.060 C 
HETATM   13  C12 UNL     1      25.769   1.731  51.990  1.00  0.00    -0.037 C 
HETATM   14  C15 UNL     1      26.902   2.690  51.825  1.00  0.00     0.158 C 
HETATM   15  N3  UNL     1      26.492   3.579  50.683  1.00  0.00    -0.387 N 
HETATM   16  C16 UNL     1      23.380   1.170  51.812  1.00  0.00     0.042 C 
HETATM   17  C17 UNL     1      23.002   0.520  53.090  1.00  0.00     0.017 C 
HETATM   18  H22 UNL     1      26.775   4.173  49.828  1.00  0.00     0.159 HD
ENDROOT
BRANCH   1  19
HETATM   19  N1  UNL     1      21.576   2.851  51.410  1.00  0.00    -0.414 N 
HETATM   20  C1  UNL     1      20.731   2.909  52.517  1.00  0.00     0.141 C 
HETATM   21  H4  UNL     1      21.562   3.694  50.793  1.00  0.00     0.153 HD
ENDBRANCH   1  19
BRANCH  13  22
HETATM   22  C13 UNL     1      25.810   0.285  52.156  1.00  0.00     0.016 C 
HETATM   23  C14 UNL     1      26.820  -0.537  52.366  1.00  0.00     0.056 C 
HETATM   24 BR1  UNL     1      27.355  -2.340  52.630  1.00  0.00    -0.064 Br
ENDBRANCH  13  22
TORSDOF 2
ENDMDL
MODEL 2
REMARK VINA RESULT:      -6.6      2.200      4.116
REMARK  2 active torsions:
REMARK  status: ('A' for Active; 'I' for Inactive)
REMARK    1  A    between atoms: N1_2  and  C2_3 
REMARK    2  A    between atoms: C12_15  and  C13_16 
ROOT
HETATM    1  C2  UNL     1      23.219   3.462  50.984  1.00  0.00     0.062 C 
HETATM    2  C3  UNL     1      24.186   4.626  50.710  1.00  0.00     0.053 C 
HETATM    3  C4  UNL     1      23.509   5.775  50.057  1.00  0.00     0.119 C 
HETATM    4  N2  UNL     1      22.302   6.094  50.698  1.00  0.00    -0.414 N 
HETATM    5  C5  UNL     1      21.182   6.446  49.926  1.00  0.00     0.143 C 
HETATM    6  C6  UNL     1      22.069   5.505  51.972  1.00  0.00     0.151 C 
HETATM    7  C7  UNL     1      22.294   4.037  52.051  1.00  0.00     0.173 C 
HETATM    8  O1  UNL     1      20.982   3.427  52.052  1.00  0.00    -0.352 OA
HETATM    9  C8  UNL     1      20.551   2.225  52.708  1.00  0.00     0.160 C 
HETATM   10  C9  UNL     1      21.258   1.082  52.554  1.00  0.00     0.031 C 
HETATM   11  C10 UNL     1      22.122   0.606  51.350  1.00  0.00     0.094 C 
HETATM   12  C11 UNL     1      23.387   1.196  51.998  1.00  0.00    -0.060 C 
HETATM   13  C12 UNL     1      23.649   0.481  53.079  1.00  0.00    -0.037 C 
HETATM   14  C15 UNL     1      22.716  -0.518  53.680  1.00  0.00     0.158 C 
HETATM   15  N3  UNL     1      21.374   0.161  53.686  1.00  0.00    -0.387 N 
HETATM   16  C16 UNL     1      24.095   2.382  51.580  1.00  0.00     0.042 C 
HETATM   17  C17 UNL     1      25.323   2.042  50.821  1.00  0.00     0.017 C 
HETATM   18  H22 UNL     1      20.417   0.309  54.159  1.00  0.00     0.159 HD
ENDROOT
BRANCH   1  19
HETATM   19  N1  UNL     1      22.494   3.198  49.845  1.00  0.00    -0.414 N 
HETATM   20  C1  UNL     1      23.043   2.858  48.609  1.00  0.00     0.141 C 
HETATM   21  H4  UNL     1      21.471   3.411  49.836  1.00  0.00     0.153 HD
ENDBRANCH   1  19
BRANCH  13  22
HETATM   22  C13 UNL     1      24.970   0.891  53.535  1.00  0.00     0.016 C 
HETATM   23  C14 UNL     1      26.006   0.183  53.941  1.00  0.00     0.056 C 
HETATM   24 BR1  UNL     1      27.794   0.233  54.583  1.00  0.00    -0.064 Br
ENDBRANCH  13  22
TORSDOF 2
ENDMDL
MODEL 3
REMARK VINA RESULT:      -6.5      7.750     10.563
REMARK  2 active torsions:
REMARK  status: ('A' for Active; 'I' for Inactive)
REMARK    1  A    between atoms: N1_2  and  C2_3 
REMARK    2  A    between atoms: C12_15  and  C13_16 
ROOT
HETATM    1  C2  UNL     1      30.237   9.377  47.520  1.00  0.00     0.062 C 
HETATM    2  C3  UNL     1      31.635   9.983  47.314  1.00  0.00     0.053 C 
HETATM    3  C4  UNL     1      31.638  11.458  47.486  1.00  0.00     0.119 C 
HETATM    4  N2  UNL     1      30.948  11.843  48.646  1.00  0.00    -0.414 N 
HETATM    5  C5  UNL     1      30.120  12.979  48.612  1.00  0.00     0.143 C 
HETATM    6  C6  UNL     1      30.629  10.819  49.580  1.00  0.00     0.151 C 
HETATM    7  C7  UNL     1      29.988   9.605  49.007  1.00  0.00     0.173 C 
HETATM    8  O1  UNL     1      28.582   9.695  49.340  1.00  0.00    -0.352 OA
HETATM    9  C8  UNL     1      27.656   8.635  49.620  1.00  0.00     0.160 C 
HETATM   10  C9  UNL     1      27.552   7.587  48.771  1.00  0.00     0.031 C 
HETATM   11  C10 UNL     1      27.786   7.531  47.233  1.00  0.00     0.094 C 
HETATM   12  C11 UNL     1      29.246   7.095  47.451  1.00  0.00    -0.060 C 
HETATM   13  C12 UNL     1      29.224   5.880  47.969  1.00  0.00    -0.037 C 
HETATM   14  C15 UNL     1      27.999   5.205  48.493  1.00  0.00     0.158 C 
HETATM   15  N3  UNL     1      27.303   6.253  49.318  1.00  0.00    -0.387 N 
HETATM   16  C16 UNL     1      30.425   7.901  47.243  1.00  0.00     0.042 C 
HETATM   17  C17 UNL     1      31.101   7.557  45.969  1.00  0.00     0.017 C 
HETATM   18  H22 UNL     1      26.691   6.499  50.170  1.00  0.00     0.159 HD
ENDROOT
BRANCH   1  19
HETATM   19  N1  UNL     1      29.320  10.095  46.789  1.00  0.00    -0.414 N 
HETATM   20  C1  UNL     1      29.368  10.280  45.408  1.00  0.00     0.141 C 
HETATM   21  H4  UNL     1      28.617  10.681  47.294  1.00  0.00     0.153 HD
ENDBRANCH   1  19
BRANCH  13  22
HETATM   22  C13 UNL     1      30.596   5.392  47.937  1.00  0.00     0.016 C 
HETATM   23  C14 UNL     1      31.131   4.344  47.341  1.00  0.00     0.056 C 
HETATM   24 BR1  UNL     1      32.722   3.357  47.018  1.00  0.00    -0.064 Br
ENDBRANCH  13  22
TORSDOF 2
ENDMDL
MODEL 4
REMARK VINA RESULT:      -6.4      2.048      2.632
REMARK  2 active torsions:
REMARK  status: ('A' for Active; 'I' for Inactive)
REMARK    1  A    between atoms: N1_2  and  C2_3 
REMARK    2  A    between atoms: C12_15  and  C13_16 
ROOT
HETATM    1  C2  UNL     1      21.636   2.981  49.860  1.00  0.00     0.062 C 
HETATM    2  C3  UNL     1      20.419   2.322  49.188  1.00  0.00     0.053 C 
HETATM    3  C4  UNL     1      20.098   2.942  47.878  1.00  0.00     0.119 C 
HETATM    4  N2  UNL     1      21.247   3.103  47.087  1.00  0.00    -0.414 N 
HETATM    5  C5  UNL     1      21.407   4.277  46.331  1.00  0.00     0.143 C 
HETATM    6  C6  UNL     1      22.421   2.419  47.506  1.00  0.00     0.151 C 
HETATM    7  C7  UNL     1      22.784   2.585  48.939  1.00  0.00     0.173 C 
HETATM    8  O1  UNL     1      23.886   3.523  48.971  1.00  0.00    -0.352 OA
HETATM    9  C8  UNL     1      24.991   3.579  49.884  1.00  0.00     0.160 C 
HETATM   10  C9  UNL     1      24.767   3.552  51.218  1.00  0.00     0.031 C 
HETATM   11  C10 UNL     1      23.539   4.065  52.027  1.00  0.00     0.094 C 
HETATM   12  C11 UNL     1      22.898   2.666  51.980  1.00  0.00    -0.060 C 
HETATM   13  C12 UNL     1      23.647   1.862  52.716  1.00  0.00    -0.037 C 
HETATM   14  C15 UNL     1      24.999   2.212  53.244  1.00  0.00     0.158 C 
HETATM   15  N3  UNL     1      25.714   2.848  52.083  1.00  0.00    -0.387 N 
HETATM   16  C16 UNL     1      21.761   2.266  51.187  1.00  0.00     0.042 C 
HETATM   17  C17 UNL     1      20.528   2.189  52.007  1.00  0.00     0.017 C 
HETATM   18  H22 UNL     1      26.636   3.027  51.553  1.00  0.00     0.159 HD
ENDROOT
BRANCH   1  19
HETATM   19  N1  UNL     1      21.481   4.347  49.834  1.00  0.00    -0.414 N 
HETATM   20  C1  UNL     1      20.421   5.043  50.416  1.00  0.00     0.141 C 
HETATM   21  H4  UNL     1      22.100   4.915  49.213  1.00  0.00     0.153 HD
ENDBRANCH   1  19
BRANCH  13  22
HETATM   22  C13 UNL     1      22.900   0.621  52.862  1.00  0.00     0.016 C 
HETATM   23  C14 UNL     1      22.614  -0.101  53.928  1.00  0.00     0.056 C 
HETATM   24 BR1  UNL     1      21.750  -1.657  54.593  1.00  0.00    -0.064 Br
ENDBRANCH  13  22
TORSDOF 2
ENDMDL
MODEL 5
REMARK VINA RESULT:      -6.2      9.430     12.022
REMARK  2 active torsions:
REMARK  status: ('A' for Active; 'I' for Inactive)
REMARK    1  A    between atoms: N1_2  and  C2_3 
REMARK    2  A    between atoms: C12_15  and  C13_16 
ROOT
HETATM    1  C2  UNL     1      33.384   5.716  47.451  1.00  0.00     0.062 C 
HETATM    2  C3  UNL     1      34.359   5.101  46.432  1.00  0.00     0.053 C 
HETATM    3  C4  UNL     1      34.560   3.647  46.656  1.00  0.00     0.119 C 
HETATM    4  N2  UNL     1      33.340   2.980  46.844  1.00  0.00    -0.414 N 
HETATM    5  C5  UNL     1      33.248   1.971  47.818  1.00  0.00     0.143 C 
HETATM    6  C6  UNL     1      32.154   3.694  46.516  1.00  0.00     0.151 C 
HETATM    7  C7  UNL     1      32.055   5.067  47.079  1.00  0.00     0.173 C 
HETATM    8  O1  UNL     1      31.134   4.983  48.192  1.00  0.00    -0.352 OA
HETATM    9  C8  UNL     1      30.212   5.972  48.671  1.00  0.00     0.160 C 
HETATM   10  C9  UNL     1      30.639   7.233  48.914  1.00  0.00     0.031 C 
HETATM   11  C10 UNL     1      32.045   7.734  49.356  1.00  0.00     0.094 C 
HETATM   12  C11 UNL     1      32.442   7.977  47.889  1.00  0.00    -0.060 C 
HETATM   13  C12 UNL     1      31.704   8.977  47.439  1.00  0.00    -0.037 C 
HETATM   14  C15 UNL     1      30.525   9.548  48.155  1.00  0.00     0.158 C 
HETATM   15  N3  UNL     1      29.743   8.353  48.627  1.00  0.00    -0.387 N 
HETATM   16  C16 UNL     1      33.361   7.188  47.104  1.00  0.00     0.042 C 
HETATM   17  C17 UNL     1      34.682   7.852  46.985  1.00  0.00     0.017 C 
HETATM   18  H22 UNL     1      28.789   7.905  48.851  1.00  0.00     0.159 HD
ENDROOT
BRANCH   1  19
HETATM   19  N1  UNL     1      33.746   5.321  48.718  1.00  0.00    -0.414 N 
HETATM   20  C1  UNL     1      35.014   5.483  49.274  1.00  0.00     0.141 C 
HETATM   21  H4  UNL     1      33.092   4.717  49.266  1.00  0.00     0.153 HD
ENDBRANCH   1  19
BRANCH  13  22
HETATM   22  C13 UNL     1      32.260   9.351  46.146  1.00  0.00     0.016 C 
HETATM   23  C14 UNL     1      32.497  10.533  45.611  1.00  0.00     0.056 C 
HETATM   24 BR1  UNL     1      33.151  11.476  44.097  1.00  0.00    -0.064 Br
ENDBRANCH  13  22
TORSDOF 2
ENDMDL
MODEL 6
REMARK VINA RESULT:      -6.1      2.960      5.990
REMARK  2 active torsions:
REMARK  status: ('A' for Active; 'I' for Inactive)
REMARK    1  A    between atoms: N1_2  and  C2_3 
REMARK    2  A    between atoms: C12_15  and  C13_16 
ROOT
HETATM    1  C2  UNL     1      24.946   1.429  52.278  1.00  0.00     0.062 C 
HETATM    2  C3  UNL     1      26.286   1.749  51.594  1.00  0.00     0.053 C 
HETATM    3  C4  UNL     1      27.447   1.467  52.477  1.00  0.00     0.119 C 
HETATM    4  N2  UNL     1      27.335   0.210  53.090  1.00  0.00    -0.414 N 
HETATM    5  C5  UNL     1      27.713   0.062  54.436  1.00  0.00     0.143 C 
HETATM    6  C6  UNL     1      26.346  -0.675  52.579  1.00  0.00     0.151 C 
HETATM    7  C7  UNL     1      24.989  -0.090  52.407  1.00  0.00     0.173 C 
HETATM    8  O1  UNL     1      24.192  -0.588  53.508  1.00  0.00    -0.352 OA
HETATM    9  C8  UNL     1      22.790  -0.893  53.536  1.00  0.00     0.160 C 
HETATM   10  C9  UNL     1      21.893   0.016  53.088  1.00  0.00     0.031 C 
HETATM   11  C10 UNL     1      21.975   1.570  53.083  1.00  0.00     0.094 C 
HETATM   12  C11 UNL     1      22.541   1.556  51.652  1.00  0.00    -0.060 C 
HETATM   13  C12 UNL     1      21.580   1.131  50.850  1.00  0.00    -0.037 C 
HETATM   14  C15 UNL     1      20.298   0.522  51.313  1.00  0.00     0.158 C 
HETATM   15  N3  UNL     1      20.699  -0.454  52.385  1.00  0.00    -0.387 N 
HETATM   16  C16 UNL     1      23.902   1.836  51.262  1.00  0.00     0.042 C 
HETATM   17  C17 UNL     1      24.035   3.202  50.700  1.00  0.00     0.017 C 
HETATM   18  H22 UNL     1      20.523  -1.387  52.896  1.00  0.00     0.159 HD
ENDROOT
BRANCH   1  19
HETATM   19  N1  UNL     1      24.932   1.993  53.532  1.00  0.00    -0.414 N 
HETATM   20  C1  UNL     1      24.918   3.363  53.792  1.00  0.00     0.141 C 
HETATM   21  H4  UNL     1      25.099   1.383  54.364  1.00  0.00     0.153 HD
ENDBRANCH   1  19
BRANCH  13  22
HETATM   22  C13 UNL     1      22.048   1.358  49.489  1.00  0.00     0.016 C 
HETATM   23  C14 UNL     1      21.657   2.218  48.569  1.00  0.00     0.056 C 
HETATM   24 BR1  UNL     1      21.917   2.859  46.799  1.00  0.00    -0.064 Br
ENDBRANCH  13  22
TORSDOF 2
ENDMDL
MODEL 7
REMARK VINA RESULT:      -6.1      9.862     11.703
REMARK  2 active torsions:
REMARK  status: ('A' for Active; 'I' for Inactive)
REMARK    1  A    between atoms: N1_2  and  C2_3 
REMARK    2  A    between atoms: C12_15  and  C13_16 
ROOT
HETATM    1  C2  UNL     1      32.508   6.285  46.439  1.00  0.00     0.062 C 
HETATM    2  C3  UNL     1      32.678   5.330  45.244  1.00  0.00     0.053 C 
HETATM    3  C4  UNL     1      33.803   4.381  45.442  1.00  0.00     0.119 C 
HETATM    4  N2  UNL     1      33.767   3.797  46.717  1.00  0.00    -0.414 N 
HETATM    5  C5  UNL     1      34.967   3.609  47.425  1.00  0.00     0.143 C 
HETATM    6  C6  UNL     1      32.572   3.960  47.471  1.00  0.00     0.151 C 
HETATM    7  C7  UNL     1      32.050   5.351  47.553  1.00  0.00     0.173 C 
HETATM    8  O1  UNL     1      32.392   5.834  48.874  1.00  0.00    -0.352 OA
HETATM    9  C8  UNL     1      31.670   6.750  49.709  1.00  0.00     0.160 C 
HETATM   10  C9  UNL     1      31.254   7.937  49.208  1.00  0.00     0.031 C 
HETATM   11  C10 UNL     1      31.883   8.813  48.086  1.00  0.00     0.094 C 
HETATM   12  C11 UNL     1      30.974   8.151  47.033  1.00  0.00    -0.060 C 
HETATM   13  C12 UNL     1      29.733   8.529  47.288  1.00  0.00    -0.037 C 
HETATM   14  C15 UNL     1      29.300   9.231  48.532  1.00  0.00     0.158 C 
HETATM   15  N3  UNL     1      29.971   8.484  49.652  1.00  0.00    -0.387 N 
HETATM   16  C16 UNL     1      31.376   7.200  46.026  1.00  0.00     0.042 C 
HETATM   17  C17 UNL     1      31.505   7.840  44.695  1.00  0.00     0.017 C 
HETATM   18  H22 UNL     1      29.947   8.131  50.670  1.00  0.00     0.159 HD
ENDROOT
BRANCH   1  19
HETATM   19  N1  UNL     1      33.731   6.821  46.767  1.00  0.00    -0.414 N 
HETATM   20  C1  UNL     1      34.417   7.771  46.010  1.00  0.00     0.141 C 
HETATM   21  H4  UNL     1      34.278   6.394  47.548  1.00  0.00     0.153 HD
ENDBRANCH   1  19
BRANCH  13  22
HETATM   22  C13 UNL     1      28.930   8.101  46.151  1.00  0.00     0.016 C 
HETATM   23  C14 UNL     1      27.953   8.704  45.502  1.00  0.00     0.056 C 
HETATM   24 BR1  UNL     1      26.696   8.586  44.082  1.00  0.00    -0.064 Br
ENDBRANCH  13  22
TORSDOF 2
ENDMDL
MODEL 8
REMARK VINA RESULT:      -6.0      9.945     12.561
REMARK  2 active torsions:
REMARK  status: ('A' for Active; 'I' for Inactive)
REMARK    1  A    between atoms: N1_2  and  C2_3 
REMARK    2  A    between atoms: C12_15  and  C13_16 
ROOT
HETATM    1  C2  UNL     1      33.150   6.663  44.375  1.00  0.00     0.062 C 
HETATM    2  C3  UNL     1      32.321   7.067  43.144  1.00  0.00     0.053 C 
HETATM    3  C4  UNL     1      33.083   6.909  41.880  1.00  0.00     0.119 C 
HETATM    4  N2  UNL     1      33.736   5.668  41.822  1.00  0.00    -0.414 N 
HETATM    5  C5  UNL     1      35.037   5.596  41.296  1.00  0.00     0.143 C 
HETATM    6  C6  UNL     1      33.354   4.691  42.781  1.00  0.00     0.151 C 
HETATM    7  C7  UNL     1      33.312   5.159  44.193  1.00  0.00     0.173 C 
HETATM    8  O1  UNL     1      34.503   4.635  44.828  1.00  0.00    -0.352 OA
HETATM    9  C8  UNL     1      34.686   4.220  46.189  1.00  0.00     0.160 C 
HETATM   10  C9  UNL     1      34.312   5.038  47.200  1.00  0.00     0.031 C 
HETATM   11  C10 UNL     1      34.260   6.592  47.249  1.00  0.00     0.094 C 
HETATM   12  C11 UNL     1      32.778   6.576  46.834  1.00  0.00    -0.060 C 
HETATM   13  C12 UNL     1      32.092   6.049  47.834  1.00  0.00    -0.037 C 
HETATM   14  C15 UNL     1      32.703   5.355  49.006  1.00  0.00     0.158 C 
HETATM   15  N3  UNL     1      33.751   4.451  48.417  1.00  0.00    -0.387 N 
HETATM   16  C16 UNL     1      32.240   6.952  45.549  1.00  0.00     0.042 C 
HETATM   17  C17 UNL     1      31.633   8.304  45.589  1.00  0.00     0.017 C 
HETATM   18  H22 UNL     1      34.300   3.524  48.461  1.00  0.00     0.159 HD
ENDROOT
BRANCH   1  19
HETATM   19  N1  UNL     1      34.384   7.267  44.307  1.00  0.00    -0.414 N 
HETATM   20  C1  UNL     1      34.599   8.643  44.245  1.00  0.00     0.141 C 
HETATM   21  H4  UNL     1      35.228   6.675  44.132  1.00  0.00     0.153 HD
ENDBRANCH   1  19
BRANCH  13  22
HETATM   22  C13 UNL     1      30.685   6.267  47.529  1.00  0.00     0.016 C 
HETATM   23  C14 UNL     1      29.599   6.061  48.248  1.00  0.00     0.056 C 
HETATM   24 BR1  UNL     1      27.703   6.170  48.306  1.00  0.00    -0.064 Br
ENDBRANCH  13  22
TORSDOF 2
ENDMDL
MODEL 9
REMARK VINA RESULT:      -6.0      9.029     10.724
REMARK  2 active torsions:
REMARK  status: ('A' for Active; 'I' for Inactive)
REMARK    1  A    between atoms: N1_2  and  C2_3 
REMARK    2  A    between atoms: C12_15  and  C13_16 
ROOT
HETATM    1  C2  UNL     1      30.658   7.704  46.960  1.00  0.00     0.062 C 
HETATM    2  C3  UNL     1      29.248   7.573  46.358  1.00  0.00     0.053 C 
HETATM    3  C4  UNL     1      28.718   8.877  45.886  1.00  0.00     0.119 C 
HETATM    4  N2  UNL     1      29.668   9.575  45.124  1.00  0.00    -0.414 N 
HETATM    5  C5  UNL     1      29.798  10.965  45.286  1.00  0.00     0.143 C 
HETATM    6  C6  UNL     1      30.813   8.849  44.694  1.00  0.00     0.151 C 
HETATM    7  C7  UNL     1      31.509   8.064  45.748  1.00  0.00     0.173 C 
HETATM    8  O1  UNL     1      32.697   8.815  46.093  1.00  0.00    -0.352 OA
HETATM    9  C8  UNL     1      33.979   8.325  46.513  1.00  0.00     0.160 C 
HETATM   10  C9  UNL     1      34.061   7.426  47.520  1.00  0.00     0.031 C 
HETATM   11  C10 UNL     1      33.123   7.223  48.745  1.00  0.00     0.094 C 
HETATM   12  C11 UNL     1      32.319   6.157  47.979  1.00  0.00    -0.060 C 
HETATM   13  C12 UNL     1      33.109   5.110  47.810  1.00  0.00    -0.037 C 
HETATM   14  C15 UNL     1      34.578   5.107  48.075  1.00  0.00     0.158 C 
HETATM   15  N3  UNL     1      35.085   6.382  47.458  1.00  0.00    -0.387 N 
HETATM   16  C16 UNL     1      30.991   6.306  47.435  1.00  0.00     0.042 C 
HETATM   17  C17 UNL     1      29.976   5.648  48.293  1.00  0.00     0.017 C 
HETATM   18  H22 UNL     1      35.877   6.912  46.956  1.00  0.00     0.159 HD
ENDROOT
BRANCH   1  19
HETATM   19  N1  UNL     1      30.672   8.748  47.855  1.00  0.00    -0.414 N 
HETATM   20  C1  UNL     1      29.856   8.847  48.982  1.00  0.00     0.141 C 
HETATM   21  H4  UNL     1      31.210   9.611  47.616  1.00  0.00     0.153 HD
ENDBRANCH   1  19
BRANCH  13  22
HETATM   22  C13 UNL     1      32.266   4.033  47.311  1.00  0.00     0.016 C 
HETATM   23  C14 UNL     1      32.518   2.754  47.112  1.00  0.00     0.056 C 
HETATM   24 BR1  UNL     1      31.825   1.083  46.530  1.00  0.00    -0.064 Br
ENDBRANCH  13  22
TORSDOF 2
ENDMDL
