MODEL 1
REMARK VINA RESULT:      -7.3      0.000      0.000
REMARK  6 active torsions:
REMARK  status: ('A' for Active; 'I' for Inactive)
REMARK    1  A    between atoms: C1_2  and  C2_3 
REMARK       I    between atoms: C1_2  and  N1_11 
REMARK    2  A    between atoms: C2_3  and  P1_4 
REMARK    3  A    between atoms: N1_11  and  S1_12 
REMARK    4  A    between atoms: S1_12  and  P2_13 
REMARK    5  A    between atoms: S1_12  and  C8_15 
REMARK    6  A    between atoms: P2_13  and  O2_14 
ROOT
HETATM    1  O1  UNL     1      25.503   2.488  50.715  1.00  0.00    -0.272 OA
HETATM    2  C1  UNL     1      26.058   2.452  51.860  1.00  0.00     0.231 C 
HETATM    3  N1  UNL     1      25.216   2.952  52.893  1.00  0.00    -0.300 N 
HETATM    4  H8  UNL     1      25.405   3.045  53.934  1.00  0.00     0.177 HD
ENDROOT
BRANCH   3   5
HETATM    5  S1  UNL     1      23.631   3.541  52.649  1.00  0.00    -0.028 SA
BRANCH   5   6
HETATM    6  P2  UNL     1      23.445   5.220  51.802  1.00  0.00     0.166 P 
BRANCH   6   7
HETATM    7  O2  UNL     1      24.284   6.675  52.143  1.00  0.00    -0.356 OA
HETATM    8  H9  UNL     1      25.256   6.620  51.971  1.00  0.00     0.216 HD
ENDBRANCH   6   7
ENDBRANCH   5   6
BRANCH   5   9
HETATM    9  C8  UNL     1      22.415   2.353  52.288  1.00  0.00     0.017 A 
HETATM   10  C9  UNL     1      22.613   0.997  52.025  1.00  0.00     0.023 A 
HETATM   11  C10 UNL     1      21.547   0.156  51.750  1.00  0.00     0.043 A 
HETATM   12  C11 UNL     1      20.254   0.636  51.730  1.00  0.00     0.116 A 
HETATM   13  F2  UNL     1      19.172  -0.151  51.465  1.00  0.00    -0.206 F 
HETATM   14  C12 UNL     1      20.052   1.976  51.989  1.00  0.00     0.043 A 
HETATM   15  C13 UNL     1      21.122   2.829  52.267  1.00  0.00     0.023 A 
ENDBRANCH   5   9
ENDBRANCH   3   5
BRANCH   2  16
HETATM   16  C2  UNL     1      27.393   2.005  52.361  1.00  0.00     0.135 C 
BRANCH  16  17
HETATM   17  P1  UNL     1      27.252   1.099  53.901  1.00  0.00    -0.105 P 
HETATM   18  C3  UNL     1      26.595  -0.344  53.569  1.00  0.00    -0.024 C 
HETATM   19  C4  UNL     1      27.354  -1.110  52.822  1.00  0.00     0.054 C 
HETATM   20  C5  UNL     1      28.694  -1.453  53.286  1.00  0.00     0.113 C 
HETATM   21  F1  UNL     1      29.271  -2.624  52.925  1.00  0.00    -0.206 F 
HETATM   22  C6  UNL     1      29.346  -0.606  54.067  1.00  0.00     0.020 C 
HETATM   23  C7  UNL     1      28.900   0.718  54.574  1.00  0.00     0.062 C 
HETATM   24  H3  UNL     1      26.420   1.715  54.851  1.00  0.00     0.059 HD
ENDBRANCH  16  17
ENDBRANCH   2  16
TORSDOF 6
ENDMDL
MODEL 2
REMARK VINA RESULT:      -7.0      1.941      2.405
REMARK  6 active torsions:
REMARK  status: ('A' for Active; 'I' for Inactive)
REMARK    1  A    between atoms: C1_2  and  C2_3 
REMARK       I    between atoms: C1_2  and  N1_11 
REMARK    2  A    between atoms: C2_3  and  P1_4 
REMARK    3  A    between atoms: N1_11  and  S1_12 
REMARK    4  A    between atoms: S1_12  and  P2_13 
REMARK    5  A    between atoms: S1_12  and  C8_15 
REMARK    6  A    between atoms: P2_13  and  O2_14 
ROOT
HETATM    1  O1  UNL     1      27.010   2.577  50.868  1.00  0.00    -0.272 OA
HETATM    2  C1  UNL     1      26.998   2.490  52.138  1.00  0.00     0.231 C 
HETATM    3  N1  UNL     1      25.753   2.884  52.703  1.00  0.00    -0.300 N 
HETATM    4  H8  UNL     1      25.452   2.916  53.721  1.00  0.00     0.177 HD
ENDROOT
BRANCH   3   5
HETATM    5  S1  UNL     1      24.407   3.419  51.798  1.00  0.00    -0.028 SA
BRANCH   5   6
HETATM    6  P2  UNL     1      24.738   4.590  50.351  1.00  0.00     0.166 P 
BRANCH   6   7
HETATM    7  O2  UNL     1      26.138   5.533  50.053  1.00  0.00    -0.356 OA
HETATM    8  H9  UNL     1      26.108   6.426  50.474  1.00  0.00     0.216 HD
ENDBRANCH   6   7
ENDBRANCH   5   6
BRANCH   5   9
HETATM    9  C8  UNL     1      23.115   2.275  51.589  1.00  0.00     0.017 A 
HETATM   10  C9  UNL     1      22.556   1.846  50.384  1.00  0.00     0.023 A 
HETATM   11  C10 UNL     1      21.524   0.923  50.361  1.00  0.00     0.043 A 
HETATM   12  C11 UNL     1      21.016   0.399  51.531  1.00  0.00     0.116 A 
HETATM   13  F2  UNL     1      20.001  -0.511  51.560  1.00  0.00    -0.206 F 
HETATM   14  C12 UNL     1      21.565   0.820  52.726  1.00  0.00     0.043 A 
HETATM   15  C13 UNL     1      22.606   1.750  52.756  1.00  0.00     0.023 A 
ENDBRANCH   5   9
ENDBRANCH   3   5
BRANCH   2  16
HETATM   16  C2  UNL     1      27.998   2.067  53.165  1.00  0.00     0.135 C 
BRANCH  16  17
HETATM   17  P1  UNL     1      28.080   0.283  53.314  1.00  0.00    -0.105 P 
HETATM   18  C3  UNL     1      27.624  -0.110  54.818  1.00  0.00    -0.024 C 
HETATM   19  C4  UNL     1      26.370   0.170  55.079  1.00  0.00     0.054 C 
HETATM   20  C5  UNL     1      25.322  -0.416  54.250  1.00  0.00     0.113 C 
HETATM   21  F1  UNL     1      24.094  -0.668  54.764  1.00  0.00    -0.206 F 
HETATM   22  C6  UNL     1      25.583  -0.703  52.984  1.00  0.00     0.020 C 
HETATM   23  C7  UNL     1      26.849  -0.508  52.231  1.00  0.00     0.062 C 
HETATM   24  H3  UNL     1      29.368  -0.246  53.129  1.00  0.00     0.059 HD
ENDBRANCH  16  17
ENDBRANCH   2  16
TORSDOF 6
ENDMDL
MODEL 3
REMARK VINA RESULT:      -6.9      3.789      6.831
REMARK  6 active torsions:
REMARK  status: ('A' for Active; 'I' for Inactive)
REMARK    1  A    between atoms: C1_2  and  C2_3 
REMARK       I    between atoms: C1_2  and  N1_11 
REMARK    2  A    between atoms: C2_3  and  P1_4 
REMARK    3  A    between atoms: N1_11  and  S1_12 
REMARK    4  A    between atoms: S1_12  and  P2_13 
REMARK    5  A    between atoms: S1_12  and  C8_15 
REMARK    6  A    between atoms: P2_13  and  O2_14 
ROOT
HETATM    1  O1  UNL     1      24.582   3.365  53.711  1.00  0.00    -0.272 OA
HETATM    2  C1  UNL     1      24.034   3.153  52.583  1.00  0.00     0.231 C 
HETATM    3  N1  UNL     1      23.757   1.775  52.357  1.00  0.00    -0.300 N 
HETATM    4  H8  UNL     1      23.310   1.303  51.517  1.00  0.00     0.177 HD
ENDROOT
BRANCH   3   5
HETATM    5  S1  UNL     1      24.113   0.524  53.465  1.00  0.00    -0.028 SA
BRANCH   5   6
HETATM    6  P2  UNL     1      22.794  -0.803  53.735  1.00  0.00     0.166 P 
BRANCH   6   7
HETATM    7  O2  UNL     1      22.336  -1.555  55.205  1.00  0.00    -0.356 OA
HETATM    8  H9  UNL     1      23.099  -1.918  55.717  1.00  0.00     0.216 HD
ENDBRANCH   6   7
ENDBRANCH   5   6
BRANCH   5   9
HETATM    9  C8  UNL     1      25.767  -0.004  53.526  1.00  0.00     0.017 A 
HETATM   10  C9  UNL     1      26.387  -0.932  52.688  1.00  0.00     0.023 A 
HETATM   11  C10 UNL     1      27.722  -1.264  52.849  1.00  0.00     0.043 A 
HETATM   12  C11 UNL     1      28.482  -0.685  53.844  1.00  0.00     0.116 A 
HETATM   13  F2  UNL     1      29.799  -0.978  54.041  1.00  0.00    -0.206 F 
HETATM   14  C12 UNL     1      27.874   0.234  54.675  1.00  0.00     0.043 A 
HETATM   15  C13 UNL     1      26.528   0.573  54.519  1.00  0.00     0.023 A 
ENDBRANCH   5   9
ENDBRANCH   3   5
BRANCH   2  16
HETATM   16  C2  UNL     1      23.617   4.025  51.443  1.00  0.00     0.135 C 
BRANCH  16  17
HETATM   17  P1  UNL     1      24.163   3.363  49.869  1.00  0.00    -0.105 P 
HETATM   18  C3  UNL     1      23.886   4.488  48.736  1.00  0.00    -0.024 C 
HETATM   19  C4  UNL     1      24.603   5.575  48.886  1.00  0.00     0.054 C 
HETATM   20  C5  UNL     1      26.058   5.471  48.903  1.00  0.00     0.113 C 
HETATM   21  F1  UNL     1      26.829   6.498  48.469  1.00  0.00    -0.206 F 
HETATM   22  C6  UNL     1      26.623   4.360  49.348  1.00  0.00     0.020 C 
HETATM   23  C7  UNL     1      25.969   3.130  49.863  1.00  0.00     0.062 C 
HETATM   24  H3  UNL     1      23.477   2.204  49.469  1.00  0.00     0.059 HD
ENDBRANCH  16  17
ENDBRANCH   2  16
TORSDOF 6
ENDMDL
MODEL 4
REMARK VINA RESULT:      -6.9      3.856      5.611
REMARK  6 active torsions:
REMARK  status: ('A' for Active; 'I' for Inactive)
REMARK    1  A    between atoms: C1_2  and  C2_3 
REMARK       I    between atoms: C1_2  and  N1_11 
REMARK    2  A    between atoms: C2_3  and  P1_4 
REMARK    3  A    between atoms: N1_11  and  S1_12 
REMARK    4  A    between atoms: S1_12  and  P2_13 
REMARK    5  A    between atoms: S1_12  and  C8_15 
REMARK    6  A    between atoms: P2_13  and  O2_14 
ROOT
HETATM    1  O1  UNL     1      23.718   2.185  50.758  1.00  0.00    -0.272 OA
HETATM    2  C1  UNL     1      24.278   2.644  51.804  1.00  0.00     0.231 C 
HETATM    3  N1  UNL     1      24.666   4.006  51.667  1.00  0.00    -0.300 N 
HETATM    4  H8  UNL     1      25.148   4.646  52.364  1.00  0.00     0.177 HD
ENDROOT
BRANCH   3   5
HETATM    5  S1  UNL     1      24.417   4.945  50.261  1.00  0.00    -0.028 SA
BRANCH   5   6
HETATM    6  P2  UNL     1      22.927   6.108  50.241  1.00  0.00     0.166 P 
BRANCH   6   7
HETATM    7  O2  UNL     1      22.114   6.808  51.578  1.00  0.00    -0.356 OA
HETATM    8  H9  UNL     1      22.538   6.604  52.448  1.00  0.00     0.216 HD
ENDBRANCH   6   7
ENDBRANCH   5   6
BRANCH   5   9
HETATM    9  C8  UNL     1      25.846   5.503  49.444  1.00  0.00     0.017 A 
HETATM   10  C9  UNL     1      26.123   6.806  49.027  1.00  0.00     0.023 A 
HETATM   11  C10 UNL     1      27.310   7.114  48.382  1.00  0.00     0.043 A 
HETATM   12  C11 UNL     1      28.255   6.141  48.133  1.00  0.00     0.116 A 
HETATM   13  F2  UNL     1      29.438   6.395  47.503  1.00  0.00    -0.206 F 
HETATM   14  C12 UNL     1      27.986   4.851  48.544  1.00  0.00     0.043 A 
HETATM   15  C13 UNL     1      26.792   4.533  49.195  1.00  0.00     0.023 A 
ENDBRANCH   5   9
ENDBRANCH   3   5
BRANCH   2  16
HETATM   16  C2  UNL     1      24.621   2.072  53.142  1.00  0.00     0.135 C 
BRANCH  16  17
HETATM   17  P1  UNL     1      25.314   0.425  53.000  1.00  0.00    -0.105 P 
HETATM   18  C3  UNL     1      26.649   0.527  52.087  1.00  0.00    -0.024 C 
HETATM   19  C4  UNL     1      27.611   1.227  52.636  1.00  0.00     0.054 C 
HETATM   20  C5  UNL     1      28.129   0.825  53.940  1.00  0.00     0.113 C 
HETATM   21  F1  UNL     1      29.416   1.080  54.280  1.00  0.00    -0.206 F 
HETATM   22  C6  UNL     1      27.328   0.206  54.792  1.00  0.00     0.020 C 
HETATM   23  C7  UNL     1      25.900  -0.165  54.620  1.00  0.00     0.062 C 
HETATM   24  H3  UNL     1      24.462  -0.499  52.374  1.00  0.00     0.059 HD
ENDBRANCH  16  17
ENDBRANCH   2  16
TORSDOF 6
ENDMDL
MODEL 5
REMARK VINA RESULT:      -6.9      2.564      7.311
REMARK  6 active torsions:
REMARK  status: ('A' for Active; 'I' for Inactive)
REMARK    1  A    between atoms: C1_2  and  C2_3 
REMARK       I    between atoms: C1_2  and  N1_11 
REMARK    2  A    between atoms: C2_3  and  P1_4 
REMARK    3  A    between atoms: N1_11  and  S1_12 
REMARK    4  A    between atoms: S1_12  and  P2_13 
REMARK    5  A    between atoms: S1_12  and  C8_15 
REMARK    6  A    between atoms: P2_13  and  O2_14 
ROOT
HETATM    1  O1  UNL     1      23.928   3.012  52.824  1.00  0.00    -0.272 OA
HETATM    2  C1  UNL     1      23.449   2.356  51.845  1.00  0.00     0.231 C 
HETATM    3  N1  UNL     1      23.433   0.952  52.081  1.00  0.00    -0.300 N 
HETATM    4  H8  UNL     1      23.096   0.165  51.454  1.00  0.00     0.177 HD
ENDROOT
BRANCH   3   5
HETATM    5  S1  UNL     1      23.989   0.207  53.514  1.00  0.00    -0.028 SA
BRANCH   5   6
HETATM    6  P2  UNL     1      22.824  -1.008  54.375  1.00  0.00     0.166 P 
BRANCH   6   7
HETATM    7  O2  UNL     1      23.061  -1.826  55.861  1.00  0.00    -0.356 OA
HETATM    8  H9  UNL     1      22.538  -2.662  55.939  1.00  0.00     0.216 HD
ENDBRANCH   6   7
ENDBRANCH   5   6
BRANCH   5   9
HETATM    9  C8  UNL     1      25.685  -0.169  53.579  1.00  0.00     0.017 A 
HETATM   10  C9  UNL     1      26.393  -1.021  52.730  1.00  0.00     0.023 A 
HETATM   11  C10 UNL     1      27.752  -1.231  52.896  1.00  0.00     0.043 A 
HETATM   12  C11 UNL     1      28.448  -0.604  53.907  1.00  0.00     0.116 A 
HETATM   13  F2  UNL     1      29.785  -0.779  54.111  1.00  0.00    -0.206 F 
HETATM   14  C12 UNL     1      27.753   0.240  54.750  1.00  0.00     0.043 A 
HETATM   15  C13 UNL     1      26.383   0.457  54.589  1.00  0.00     0.023 A 
ENDBRANCH   5   9
ENDBRANCH   3   5
BRANCH   2  16
HETATM   16  C2  UNL     1      22.903   2.728  50.505  1.00  0.00     0.135 C 
BRANCH  16  17
HETATM   17  P1  UNL     1      21.199   3.273  50.614  1.00  0.00    -0.105 P 
HETATM   18  C3  UNL     1      20.305   2.294  49.682  1.00  0.00    -0.024 C 
HETATM   19  C4  UNL     1      20.266   1.055  50.105  1.00  0.00     0.054 C 
HETATM   20  C5  UNL     1      19.772   0.777  51.450  1.00  0.00     0.113 C 
HETATM   21  F1  UNL     1      19.164  -0.400  51.733  1.00  0.00    -0.206 F 
HETATM   22  C6  UNL     1      19.922   1.690  52.397  1.00  0.00     0.020 C 
HETATM   23  C7  UNL     1      20.554   3.031  52.299  1.00  0.00     0.062 C 
HETATM   24  H3  UNL     1      20.989   4.582  50.148  1.00  0.00     0.059 HD
ENDBRANCH  16  17
ENDBRANCH   2  16
TORSDOF 6
ENDMDL
MODEL 6
REMARK VINA RESULT:      -6.7      4.031      5.470
REMARK  6 active torsions:
REMARK  status: ('A' for Active; 'I' for Inactive)
REMARK    1  A    between atoms: C1_2  and  C2_3 
REMARK       I    between atoms: C1_2  and  N1_11 
REMARK    2  A    between atoms: C2_3  and  P1_4 
REMARK    3  A    between atoms: N1_11  and  S1_12 
REMARK    4  A    between atoms: S1_12  and  P2_13 
REMARK    5  A    between atoms: S1_12  and  C8_15 
REMARK    6  A    between atoms: P2_13  and  O2_14 
ROOT
HETATM    1  O1  UNL     1      22.392   1.535  49.618  1.00  0.00    -0.272 OA
HETATM    2  C1  UNL     1      22.568   2.761  49.908  1.00  0.00     0.231 C 
HETATM    3  N1  UNL     1      21.833   3.164  51.058  1.00  0.00    -0.300 N 
HETATM    4  H8  UNL     1      21.783   4.114  51.530  1.00  0.00     0.177 HD
ENDROOT
BRANCH   3   5
HETATM    5  S1  UNL     1      20.820   2.133  51.968  1.00  0.00    -0.028 SA
BRANCH   5   6
HETATM    6  P2  UNL     1      19.188   1.595  51.179  1.00  0.00     0.166 P 
BRANCH   6   7
HETATM    7  O2  UNL     1      18.921   1.027  49.584  1.00  0.00    -0.356 OA
HETATM    8  H9  UNL     1      18.569   1.719  48.973  1.00  0.00     0.216 HD
ENDBRANCH   6   7
ENDBRANCH   5   6
BRANCH   5   9
HETATM    9  C8  UNL     1      21.617   0.961  52.974  1.00  0.00     0.017 A 
HETATM   10  C9  UNL     1      22.966   0.604  52.945  1.00  0.00     0.023 A 
HETATM   11  C10 UNL     1      23.473  -0.352  53.810  1.00  0.00     0.043 A 
HETATM   12  C11 UNL     1      22.658  -0.981  54.728  1.00  0.00     0.116 A 
HETATM   13  F2  UNL     1      23.109  -1.927  55.600  1.00  0.00    -0.206 F 
HETATM   14  C12 UNL     1      21.323  -0.631  54.761  1.00  0.00     0.043 A 
HETATM   15  C13 UNL     1      20.805   0.332  53.892  1.00  0.00     0.023 A 
ENDBRANCH   5   9
ENDBRANCH   3   5
BRANCH   2  16
HETATM   16  C2  UNL     1      23.370   3.871  49.310  1.00  0.00     0.135 C 
BRANCH  16  17
HETATM   17  P1  UNL     1      24.531   4.559  50.491  1.00  0.00    -0.105 P 
HETATM   18  C3  UNL     1      25.772   3.526  50.624  1.00  0.00    -0.024 C 
HETATM   19  C4  UNL     1      26.477   3.404  49.525  1.00  0.00     0.054 C 
HETATM   20  C5  UNL     1      27.092   4.591  48.939  1.00  0.00     0.113 C 
HETATM   21  F1  UNL     1      28.240   4.492  48.227  1.00  0.00    -0.206 F 
HETATM   22  C6  UNL     1      26.516   5.770  49.109  1.00  0.00     0.020 C 
HETATM   23  C7  UNL     1      25.267   6.094  49.846  1.00  0.00     0.062 C 
HETATM   24  H3  UNL     1      23.999   4.725  51.781  1.00  0.00     0.059 HD
ENDBRANCH  16  17
ENDBRANCH   2  16
TORSDOF 6
ENDMDL
MODEL 7
REMARK VINA RESULT:      -6.6      3.414      5.776
REMARK  6 active torsions:
REMARK  status: ('A' for Active; 'I' for Inactive)
REMARK    1  A    between atoms: C1_2  and  C2_3 
REMARK       I    between atoms: C1_2  and  N1_11 
REMARK    2  A    between atoms: C2_3  and  P1_4 
REMARK    3  A    between atoms: N1_11  and  S1_12 
REMARK    4  A    between atoms: S1_12  and  P2_13 
REMARK    5  A    between atoms: S1_12  and  C8_15 
REMARK    6  A    between atoms: P2_13  and  O2_14 
ROOT
HETATM    1  O1  UNL     1      24.159   3.499  53.279  1.00  0.00    -0.272 OA
HETATM    2  C1  UNL     1      24.333   3.543  52.019  1.00  0.00     0.231 C 
HETATM    3  N1  UNL     1      25.020   2.401  51.519  1.00  0.00    -0.300 N 
HETATM    4  H8  UNL     1      25.303   2.164  50.524  1.00  0.00     0.177 HD
ENDROOT
BRANCH   3   5
HETATM    5  S1  UNL     1      25.561   1.100  52.485  1.00  0.00    -0.028 SA
BRANCH   5   6
HETATM    6  P2  UNL     1      27.181   1.331  53.432  1.00  0.00     0.166 P 
BRANCH   6   7
HETATM    7  O2  UNL     1      27.792   2.763  54.148  1.00  0.00    -0.356 OA
HETATM    8  H9  UNL     1      27.789   3.541  53.539  1.00  0.00     0.216 HD
ENDBRANCH   6   7
ENDBRANCH   5   6
BRANCH   5   9
HETATM    9  C8  UNL     1      24.329   0.162  53.275  1.00  0.00     0.017 A 
HETATM   10  C9  UNL     1      24.449  -0.551  54.469  1.00  0.00     0.023 A 
HETATM   11  C10 UNL     1      23.379  -1.261  54.990  1.00  0.00     0.043 A 
HETATM   12  C11 UNL     1      22.161  -1.284  54.343  1.00  0.00     0.116 A 
HETATM   13  F2  UNL     1      21.080  -1.967  54.816  1.00  0.00    -0.206 F 
HETATM   14  C12 UNL     1      22.038  -0.580  53.162  1.00  0.00     0.043 A 
HETATM   15  C13 UNL     1      23.112   0.138  52.631  1.00  0.00     0.023 A 
ENDBRANCH   5   9
ENDBRANCH   3   5
BRANCH   2  16
HETATM   16  C2  UNL     1      23.980   4.525  50.949  1.00  0.00     0.135 C 
BRANCH  16  17
HETATM   17  P1  UNL     1      22.256   4.393  50.474  1.00  0.00    -0.105 P 
HETATM   18  C3  UNL     1      22.176   4.527  48.861  1.00  0.00    -0.024 C 
HETATM   19  C4  UNL     1      22.755   3.541  48.221  1.00  0.00     0.054 C 
HETATM   20  C5  UNL     1      22.307   2.173  48.464  1.00  0.00     0.113 C 
HETATM   21  F1  UNL     1      22.400   1.233  47.494  1.00  0.00    -0.206 F 
HETATM   22  C6  UNL     1      21.805   1.857  49.648  1.00  0.00     0.020 C 
HETATM   23  C7  UNL     1      21.617   2.728  50.837  1.00  0.00     0.062 C 
HETATM   24  H3  UNL     1      21.439   5.404  51.007  1.00  0.00     0.059 HD
ENDBRANCH  16  17
ENDBRANCH   2  16
TORSDOF 6
ENDMDL
MODEL 8
REMARK VINA RESULT:      -6.6      1.968      2.211
REMARK  6 active torsions:
REMARK  status: ('A' for Active; 'I' for Inactive)
REMARK    1  A    between atoms: C1_2  and  C2_3 
REMARK       I    between atoms: C1_2  and  N1_11 
REMARK    2  A    between atoms: C2_3  and  P1_4 
REMARK    3  A    between atoms: N1_11  and  S1_12 
REMARK    4  A    between atoms: S1_12  and  P2_13 
REMARK    5  A    between atoms: S1_12  and  C8_15 
REMARK    6  A    between atoms: P2_13  and  O2_14 
ROOT
HETATM    1  O1  UNL     1      24.337   3.213  52.962  1.00  0.00    -0.272 OA
HETATM    2  C1  UNL     1      25.007   2.231  52.507  1.00  0.00     0.231 C 
HETATM    3  N1  UNL     1      24.253   1.418  51.615  1.00  0.00    -0.300 N 
HETATM    4  H8  UNL     1      24.543   0.543  51.088  1.00  0.00     0.177 HD
ENDROOT
BRANCH   3   5
HETATM    5  S1  UNL     1      22.625   1.707  51.186  1.00  0.00    -0.028 SA
BRANCH   5   6
HETATM    6  P2  UNL     1      22.257   2.111  49.376  1.00  0.00     0.166 P 
BRANCH   6   7
HETATM    7  O2  UNL     1      21.817   3.622  48.699  1.00  0.00    -0.356 OA
HETATM    8  H9  UNL     1      22.289   3.829  47.856  1.00  0.00     0.216 HD
ENDBRANCH   6   7
ENDBRANCH   5   6
BRANCH   5   9
HETATM    9  C8  UNL     1      21.428   0.769  52.029  1.00  0.00     0.017 A 
HETATM   10  C9  UNL     1      21.596   0.064  53.221  1.00  0.00     0.023 A 
HETATM   11  C10 UNL     1      20.551  -0.647  53.787  1.00  0.00     0.043 A 
HETATM   12  C11 UNL     1      19.309  -0.679  53.188  1.00  0.00     0.116 A 
HETATM   13  F2  UNL     1      18.249  -1.363  53.706  1.00  0.00    -0.206 F 
HETATM   14  C12 UNL     1      19.137   0.017  52.008  1.00  0.00     0.043 A 
HETATM   15  C13 UNL     1      20.187   0.736  51.432  1.00  0.00     0.023 A 
ENDBRANCH   5   9
ENDBRANCH   3   5
BRANCH   2  16
HETATM   16  C2  UNL     1      26.406   1.742  52.700  1.00  0.00     0.135 C 
BRANCH  16  17
HETATM   17  P1  UNL     1      26.545   0.685  54.141  1.00  0.00    -0.105 P 
HETATM   18  C3  UNL     1      26.206  -0.829  53.678  1.00  0.00    -0.024 C 
HETATM   19  C4  UNL     1      27.076  -1.331  52.836  1.00  0.00     0.054 C 
HETATM   20  C5  UNL     1      28.480  -1.408  53.225  1.00  0.00     0.113 C 
HETATM   21  F1  UNL     1      29.282  -2.381  52.728  1.00  0.00    -0.206 F 
HETATM   22  C6  UNL     1      28.968  -0.515  54.071  1.00  0.00     0.020 C 
HETATM   23  C7  UNL     1      28.268   0.621  54.725  1.00  0.00     0.062 C 
HETATM   24  H3  UNL     1      25.646   1.007  55.172  1.00  0.00     0.059 HD
ENDBRANCH  16  17
ENDBRANCH   2  16
TORSDOF 6
ENDMDL
MODEL 9
REMARK VINA RESULT:      -6.6      2.357      3.198
REMARK  6 active torsions:
REMARK  status: ('A' for Active; 'I' for Inactive)
REMARK    1  A    between atoms: C1_2  and  C2_3 
REMARK       I    between atoms: C1_2  and  N1_11 
REMARK    2  A    between atoms: C2_3  and  P1_4 
REMARK    3  A    between atoms: N1_11  and  S1_12 
REMARK    4  A    between atoms: S1_12  and  P2_13 
REMARK    5  A    between atoms: S1_12  and  C8_15 
REMARK    6  A    between atoms: P2_13  and  O2_14 
ROOT
HETATM    1  O1  UNL     1      23.490   3.713  52.712  1.00  0.00    -0.272 OA
HETATM    2  C1  UNL     1      24.100   2.600  52.810  1.00  0.00     0.231 C 
HETATM    3  N1  UNL     1      23.415   1.539  52.154  1.00  0.00    -0.300 N 
HETATM    4  H8  UNL     1      23.679   0.514  52.068  1.00  0.00     0.177 HD
ENDROOT
BRANCH   3   5
HETATM    5  S1  UNL     1      21.935   1.715  51.318  1.00  0.00    -0.028 SA
BRANCH   5   6
HETATM    6  P2  UNL     1      22.016   2.022  49.455  1.00  0.00     0.166 P 
BRANCH   6   7
HETATM    7  O2  UNL     1      21.653   0.928  48.187  1.00  0.00    -0.356 OA
HETATM    8  H9  UNL     1      21.905  -0.007  48.388  1.00  0.00     0.216 HD
ENDBRANCH   6   7
ENDBRANCH   5   6
BRANCH   5   9
HETATM    9  C8  UNL     1      20.610   0.745  51.886  1.00  0.00     0.017 A 
HETATM   10  C9  UNL     1      19.391   0.523  51.243  1.00  0.00     0.023 A 
HETATM   11  C10 UNL     1      18.416  -0.279  51.812  1.00  0.00     0.043 A 
HETATM   12  C11 UNL     1      18.619  -0.883  53.035  1.00  0.00     0.116 A 
HETATM   13  F2  UNL     1      17.690  -1.680  53.636  1.00  0.00    -0.206 F 
HETATM   14  C12 UNL     1      19.822  -0.666  53.676  1.00  0.00     0.043 A 
HETATM   15  C13 UNL     1      20.811   0.140  53.108  1.00  0.00     0.023 A 
ENDBRANCH   5   9
ENDBRANCH   3   5
BRANCH   2  16
HETATM   16  C2  UNL     1      25.371   2.159  53.461  1.00  0.00     0.135 C 
BRANCH  16  17
HETATM   17  P1  UNL     1      26.617   1.722  52.249  1.00  0.00    -0.105 P 
HETATM   18  C3  UNL     1      28.057   2.184  52.831  1.00  0.00    -0.024 C 
HETATM   19  C4  UNL     1      28.424   1.533  53.908  1.00  0.00     0.054 C 
HETATM   20  C5  UNL     1      28.536   0.079  53.856  1.00  0.00     0.113 C 
HETATM   21  F1  UNL     1      29.419  -0.574  54.650  1.00  0.00    -0.206 F 
HETATM   22  C6  UNL     1      27.764  -0.602  53.024  1.00  0.00     0.020 C 
HETATM   23  C7  UNL     1      26.740  -0.086  52.079  1.00  0.00     0.062 C 
HETATM   24  H3  UNL     1      26.455   2.363  51.009  1.00  0.00     0.059 HD
ENDBRANCH  16  17
ENDBRANCH   2  16
TORSDOF 6
ENDMDL
