MODEL 1
REMARK VINA RESULT:      -7.6      0.000      0.000
REMARK  10 active torsions:
REMARK  status: ('A' for Active; 'I' for Inactive)
REMARK    1  A    between atoms: C2_2  and  N1_3 
REMARK    2  A    between atoms: N1_3  and  C4_5 
REMARK    3  A    between atoms: C4_5  and  C5_6 
REMARK    4  A    between atoms: C5_6  and  C6_7 
REMARK       I    between atoms: C6_7  and  N2_9 
REMARK    5  A    between atoms: N2_9  and  C7_10 
REMARK    6  A    between atoms: C7_10  and  C8_11 
REMARK    7  A    between atoms: C7_10  and  C19_25 
REMARK    8  A    between atoms: C13_17  and  N4_18 
REMARK    9  A    between atoms: N4_18  and  C14_19 
REMARK   10  A    between atoms: C15_20  and  C16_22 
ROOT
HETATM    1  C8  UNL     1      23.447   1.886  52.659  1.00  0.00     0.009 C 
HETATM    2  C9  UNL     1      22.513   2.750  52.259  1.00  0.00    -0.013 A 
HETATM    3  C10 UNL     1      21.070   2.438  52.371  1.00  0.00     0.189 A 
HETATM    4  N3  UNL     1      20.282   3.530  51.884  1.00  0.00    -0.297 NA
HETATM    5  C11 UNL     1      20.796   4.589  51.425  1.00  0.00     0.113 A 
HETATM    6  C12 UNL     1      22.190   4.969  51.276  1.00  0.00     0.049 A 
HETATM    7  C13 UNL     1      23.010   4.029  51.700  1.00  0.00     0.041 A 
ENDROOT
BRANCH   1   8
HETATM    8  C7  UNL     1      23.644   0.577  53.242  1.00  0.00     0.107 C 
BRANCH   8   9
HETATM    9  N2  UNL     1      24.922   0.029  52.826  1.00  0.00    -0.353 N 
HETATM   10  C6  UNL     1      25.788  -0.661  53.756  1.00  0.00     0.219 C 
HETATM   11  O1  UNL     1      25.461  -0.809  54.974  1.00  0.00    -0.274 OA
HETATM   12  H11 UNL     1      25.222   0.140  51.812  1.00  0.00     0.163 HD
BRANCH  10  13
HETATM   13  C5  UNL     1      27.075  -1.175  53.175  1.00  0.00     0.122 C 
BRANCH  13  14
HETATM   14  C4  UNL     1      27.927  -0.007  52.719  1.00  0.00     0.131 C 
BRANCH  14  15
HETATM   15  N1  UNL     1      29.017   0.237  53.619  1.00  0.00    -0.395 N 
HETATM   16  C3  UNL     1      29.996  -0.815  53.626  1.00  0.00     0.148 C 
BRANCH  15  17
HETATM   17  C2  UNL     1      29.104   1.405  54.417  1.00  0.00     0.075 C 
HETATM   18  C1  UNL     1      28.569   2.275  53.556  1.00  0.00     0.029 C 
ENDBRANCH  15  17
ENDBRANCH  14  15
ENDBRANCH  13  14
ENDBRANCH  10  13
ENDBRANCH   8   9
BRANCH   8  19
HETATM   19  C19 UNL     1      22.543  -0.401  53.212  1.00  0.00     0.025 C 
HETATM   20  C20 UNL     1      21.893  -0.685  54.543  1.00  0.00     0.007 C 
ENDBRANCH   8  19
ENDBRANCH   1   8
BRANCH   7  21
HETATM   21  N4  UNL     1      24.397   4.372  51.564  1.00  0.00    -0.364 N 
HETATM   22  H18 UNL     1      25.267   4.105  52.108  1.00  0.00     0.165 HD
BRANCH  21  23
HETATM   23  C14 UNL     1      24.915   5.229  50.564  1.00  0.00     0.107 C 
HETATM   24  C15 UNL     1      25.829   5.020  49.644  1.00  0.00     0.026 C 
HETATM   25 BR1  UNL     1      26.383   3.240  49.901  1.00  0.00    -0.050 Br
BRANCH  24  26
HETATM   26  C16 UNL     1      26.191   6.072  48.720  1.00  0.00     0.016 C 
HETATM   27  C17 UNL     1      27.396   6.256  48.222  1.00  0.00    -0.029 C 
HETATM   28  C18 UNL     1      28.704   5.577  48.362  1.00  0.00     0.036 C 
ENDBRANCH  24  26
ENDBRANCH  21  23
ENDBRANCH   7  21
TORSDOF 10
ENDMDL
MODEL 2
REMARK VINA RESULT:      -7.0      2.027      5.715
REMARK  10 active torsions:
REMARK  status: ('A' for Active; 'I' for Inactive)
REMARK    1  A    between atoms: C2_2  and  N1_3 
REMARK    2  A    between atoms: N1_3  and  C4_5 
REMARK    3  A    between atoms: C4_5  and  C5_6 
REMARK    4  A    between atoms: C5_6  and  C6_7 
REMARK       I    between atoms: C6_7  and  N2_9 
REMARK    5  A    between atoms: N2_9  and  C7_10 
REMARK    6  A    between atoms: C7_10  and  C8_11 
REMARK    7  A    between atoms: C7_10  and  C19_25 
REMARK    8  A    between atoms: C13_17  and  N4_18 
REMARK    9  A    between atoms: N4_18  and  C14_19 
REMARK   10  A    between atoms: C15_20  and  C16_22 
ROOT
HETATM    1  C8  UNL     1      23.552   0.723  52.817  1.00  0.00     0.009 C 
HETATM    2  C9  UNL     1      24.829   0.382  53.000  1.00  0.00    -0.013 A 
HETATM    3  C10 UNL     1      25.207  -0.819  53.779  1.00  0.00     0.189 A 
HETATM    4  N3  UNL     1      26.630  -0.966  53.816  1.00  0.00    -0.297 NA
HETATM    5  C11 UNL     1      27.413  -0.150  53.252  1.00  0.00     0.113 A 
HETATM    6  C12 UNL     1      27.128   1.046  52.480  1.00  0.00     0.049 A 
HETATM    7  C13 UNL     1      25.834   1.277  52.379  1.00  0.00     0.041 A 
ENDROOT
BRANCH   1   8
HETATM    8  C7  UNL     1      22.193   0.334  53.119  1.00  0.00     0.107 C 
BRANCH   8   9
HETATM    9  N2  UNL     1      21.266   1.357  52.670  1.00  0.00    -0.353 N 
HETATM   10  C6  UNL     1      20.706   1.338  51.337  1.00  0.00     0.219 C 
HETATM   11  O1  UNL     1      21.008   0.424  50.509  1.00  0.00    -0.274 OA
HETATM   12  H11 UNL     1      20.996   2.136  53.342  1.00  0.00     0.163 HD
BRANCH  10  13
HETATM   13  C5  UNL     1      19.760   2.462  51.022  1.00  0.00     0.122 C 
BRANCH  13  14
HETATM   14  C4  UNL     1      20.164   3.698  51.801  1.00  0.00     0.131 C 
BRANCH  14  15
HETATM   15  N1  UNL     1      20.947   4.596  51.003  1.00  0.00    -0.395 N 
HETATM   16  C3  UNL     1      20.693   4.475  49.594  1.00  0.00     0.148 C 
BRANCH  15  17
HETATM   17  C2  UNL     1      21.878   5.506  51.564  1.00  0.00     0.075 C 
HETATM   18  C1  UNL     1      22.534   4.656  52.359  1.00  0.00     0.029 C 
ENDBRANCH  15  17
ENDBRANCH  14  15
ENDBRANCH  13  14
ENDBRANCH  10  13
ENDBRANCH   8   9
BRANCH   8  19
HETATM   19  C19 UNL     1      21.874  -0.208  54.450  1.00  0.00     0.025 C 
HETATM   20  C20 UNL     1      21.625  -1.695  54.501  1.00  0.00     0.007 C 
ENDBRANCH   8  19
ENDBRANCH   1   8
BRANCH   7  21
HETATM   21  N4  UNL     1      25.517   2.455  51.623  1.00  0.00    -0.364 N 
HETATM   22  H18 UNL     1      24.638   3.040  51.528  1.00  0.00     0.165 HD
BRANCH  21  23
HETATM   23  C14 UNL     1      26.424   3.126  50.768  1.00  0.00     0.107 C 
HETATM   24  C15 UNL     1      26.232   3.728  49.617  1.00  0.00     0.026 C 
HETATM   25 BR1  UNL     1      24.394   3.533  49.264  1.00  0.00    -0.050 Br
BRANCH  24  26
HETATM   26  C16 UNL     1      27.338   4.352  48.925  1.00  0.00     0.016 C 
HETATM   27  C17 UNL     1      27.366   5.607  48.529  1.00  0.00    -0.029 C 
HETATM   28  C18 UNL     1      26.432   6.753  48.604  1.00  0.00     0.036 C 
ENDBRANCH  24  26
ENDBRANCH  21  23
ENDBRANCH   7  21
TORSDOF 10
ENDMDL
MODEL 3
REMARK VINA RESULT:      -7.0      2.317      6.364
REMARK  10 active torsions:
REMARK  status: ('A' for Active; 'I' for Inactive)
REMARK    1  A    between atoms: C2_2  and  N1_3 
REMARK    2  A    between atoms: N1_3  and  C4_5 
REMARK    3  A    between atoms: C4_5  and  C5_6 
REMARK    4  A    between atoms: C5_6  and  C6_7 
REMARK       I    between atoms: C6_7  and  N2_9 
REMARK    5  A    between atoms: N2_9  and  C7_10 
REMARK    6  A    between atoms: C7_10  and  C8_11 
REMARK    7  A    between atoms: C7_10  and  C19_25 
REMARK    8  A    between atoms: C13_17  and  N4_18 
REMARK    9  A    between atoms: N4_18  and  C14_19 
REMARK   10  A    between atoms: C15_20  and  C16_22 
ROOT
HETATM    1  C8  UNL     1      23.094   1.888  52.505  1.00  0.00     0.009 C 
HETATM    2  C9  UNL     1      22.478   0.845  53.063  1.00  0.00    -0.013 A 
HETATM    3  C10 UNL     1      21.018   0.639  52.922  1.00  0.00     0.189 A 
HETATM    4  N3  UNL     1      20.611  -0.552  53.602  1.00  0.00    -0.297 NA
HETATM    5  C11 UNL     1      21.424  -1.290  54.229  1.00  0.00     0.113 A 
HETATM    6  C12 UNL     1      22.857  -1.159  54.419  1.00  0.00     0.049 A 
HETATM    7  C13 UNL     1      23.342  -0.087  53.827  1.00  0.00     0.041 A 
ENDROOT
BRANCH   1   8
HETATM    8  C7  UNL     1      22.876   3.070  51.702  1.00  0.00     0.107 C 
BRANCH   8   9
HETATM    9  N2  UNL     1      24.132   3.535  51.141  1.00  0.00    -0.353 N 
HETATM   10  C6  UNL     1      24.416   3.422  49.728  1.00  0.00     0.219 C 
HETATM   11  O1  UNL     1      23.575   2.909  48.926  1.00  0.00    -0.274 OA
HETATM   12  H11 UNL     1      24.856   3.966  51.789  1.00  0.00     0.163 HD
BRANCH  10  13
HETATM   13  C5  UNL     1      25.755   3.949  49.298  1.00  0.00     0.122 C 
BRANCH  13  14
HETATM   14  C4  UNL     1      25.848   5.426  49.626  1.00  0.00     0.131 C 
BRANCH  14  15
HETATM   15  N1  UNL     1      26.921   6.061  48.917  1.00  0.00    -0.395 N 
HETATM   16  C3  UNL     1      27.940   5.144  48.488  1.00  0.00     0.148 C 
BRANCH  15  17
HETATM   17  C2  UNL     1      26.958   7.457  48.674  1.00  0.00     0.075 C 
HETATM   18  C1  UNL     1      26.084   7.507  47.664  1.00  0.00     0.029 C 
ENDBRANCH  15  17
ENDBRANCH  14  15
ENDBRANCH  13  14
ENDBRANCH  10  13
ENDBRANCH   8   9
BRANCH   8  19
HETATM   19  C19 UNL     1      22.027   4.154  52.226  1.00  0.00     0.025 C 
HETATM   20  C20 UNL     1      20.781   4.442  51.427  1.00  0.00     0.007 C 
ENDBRANCH   8  19
ENDBRANCH   1   8
BRANCH   7  21
HETATM   21  N4  UNL     1      24.758   0.075  53.998  1.00  0.00    -0.364 N 
HETATM   22  H18 UNL     1      25.360   0.879  54.336  1.00  0.00     0.165 HD
BRANCH  21  23
HETATM   23  C14 UNL     1      25.717  -0.926  53.712  1.00  0.00     0.107 C 
HETATM   24  C15 UNL     1      26.692  -0.954  52.832  1.00  0.00     0.026 C 
HETATM   25 BR1  UNL     1      26.589   0.700  51.938  1.00  0.00    -0.050 Br
BRANCH  24  26
HETATM   26  C16 UNL     1      27.554  -2.110  52.731  1.00  0.00     0.016 C 
HETATM   27  C17 UNL     1      28.827  -2.131  53.064  1.00  0.00    -0.029 C 
HETATM   28  C18 UNL     1      29.787  -1.142  53.603  1.00  0.00     0.036 C 
ENDBRANCH  24  26
ENDBRANCH  21  23
ENDBRANCH   7  21
TORSDOF 10
ENDMDL
MODEL 4
REMARK VINA RESULT:      -6.9      2.667      6.534
REMARK  10 active torsions:
REMARK  status: ('A' for Active; 'I' for Inactive)
REMARK    1  A    between atoms: C2_2  and  N1_3 
REMARK    2  A    between atoms: N1_3  and  C4_5 
REMARK    3  A    between atoms: C4_5  and  C5_6 
REMARK    4  A    between atoms: C5_6  and  C6_7 
REMARK       I    between atoms: C6_7  and  N2_9 
REMARK    5  A    between atoms: N2_9  and  C7_10 
REMARK    6  A    between atoms: C7_10  and  C8_11 
REMARK    7  A    between atoms: C7_10  and  C19_25 
REMARK    8  A    between atoms: C13_17  and  N4_18 
REMARK    9  A    between atoms: N4_18  and  C14_19 
REMARK   10  A    between atoms: C15_20  and  C16_22 
ROOT
HETATM    1  C8  UNL     1      23.522   1.345  52.527  1.00  0.00     0.009 C 
HETATM    2  C9  UNL     1      24.062   2.030  51.518  1.00  0.00    -0.013 A 
HETATM    3  C10 UNL     1      23.355   2.198  50.228  1.00  0.00     0.189 A 
HETATM    4  N3  UNL     1      24.142   2.979  49.323  1.00  0.00    -0.297 NA
HETATM    5  C11 UNL     1      25.281   3.434  49.629  1.00  0.00     0.113 A 
HETATM    6  C12 UNL     1      26.042   3.312  50.860  1.00  0.00     0.049 A 
HETATM    7  C13 UNL     1      25.404   2.607  51.772  1.00  0.00     0.041 A 
ENDROOT
BRANCH   1   8
HETATM    8  C7  UNL     1      22.354   0.589  52.923  1.00  0.00     0.107 C 
BRANCH   8   9
HETATM    9  N2  UNL     1      21.160   1.406  52.794  1.00  0.00    -0.353 N 
HETATM   10  C6  UNL     1      20.212   1.196  51.723  1.00  0.00     0.219 C 
HETATM   11  O1  UNL     1      20.392   0.289  50.852  1.00  0.00    -0.274 OA
HETATM   12  H11 UNL     1      20.985   2.175  53.507  1.00  0.00     0.163 HD
BRANCH  10  13
HETATM   13  C5  UNL     1      19.026   2.118  51.725  1.00  0.00     0.122 C 
BRANCH  13  14
HETATM   14  C4  UNL     1      19.498   3.552  51.869  1.00  0.00     0.131 C 
BRANCH  14  15
HETATM   15  N1  UNL     1      19.765   4.153  50.595  1.00  0.00    -0.395 N 
HETATM   16  C3  UNL     1      18.790   3.820  49.593  1.00  0.00     0.148 C 
BRANCH  15  17
HETATM   17  C2  UNL     1      20.885   4.991  50.363  1.00  0.00     0.075 C 
HETATM   18  C1  UNL     1      21.438   4.925  51.577  1.00  0.00     0.029 C 
ENDBRANCH  15  17
ENDBRANCH  14  15
ENDBRANCH  13  14
ENDBRANCH  10  13
ENDBRANCH   8   9
BRANCH   8  19
HETATM   19  C19 UNL     1      22.393  -0.208  54.160  1.00  0.00     0.025 C 
HETATM   20  C20 UNL     1      21.406  -1.347  54.227  1.00  0.00     0.007 C 
ENDBRANCH   8  19
ENDBRANCH   1   8
BRANCH   7  21
HETATM   21  N4  UNL     1      26.130   2.465  53.001  1.00  0.00    -0.364 N 
HETATM   22  H18 UNL     1      25.892   2.675  54.013  1.00  0.00     0.165 HD
BRANCH  21  23
HETATM   23  C14 UNL     1      27.449   1.961  53.097  1.00  0.00     0.107 C 
HETATM   24  C15 UNL     1      27.932   0.945  53.775  1.00  0.00     0.026 C 
HETATM   25 BR1  UNL     1      26.452   0.210  54.675  1.00  0.00    -0.050 Br
BRANCH  24  26
HETATM   26  C16 UNL     1      29.341   0.624  53.708  1.00  0.00     0.016 C 
HETATM   27  C17 UNL     1      29.829  -0.581  53.501  1.00  0.00    -0.029 C 
HETATM   28  C18 UNL     1      29.249  -1.925  53.281  1.00  0.00     0.036 C 
ENDBRANCH  24  26
ENDBRANCH  21  23
ENDBRANCH   7  21
TORSDOF 10
ENDMDL
MODEL 5
REMARK VINA RESULT:      -6.9      2.613      6.405
REMARK  10 active torsions:
REMARK  status: ('A' for Active; 'I' for Inactive)
REMARK    1  A    between atoms: C2_2  and  N1_3 
REMARK    2  A    between atoms: N1_3  and  C4_5 
REMARK    3  A    between atoms: C4_5  and  C5_6 
REMARK    4  A    between atoms: C5_6  and  C6_7 
REMARK       I    between atoms: C6_7  and  N2_9 
REMARK    5  A    between atoms: N2_9  and  C7_10 
REMARK    6  A    between atoms: C7_10  and  C8_11 
REMARK    7  A    between atoms: C7_10  and  C19_25 
REMARK    8  A    between atoms: C13_17  and  N4_18 
REMARK    9  A    between atoms: N4_18  and  C14_19 
REMARK   10  A    between atoms: C15_20  and  C16_22 
ROOT
HETATM    1  C8  UNL     1      22.277   0.447  52.219  1.00  0.00     0.009 C 
HETATM    2  C9  UNL     1      22.403  -0.295  53.320  1.00  0.00    -0.013 A 
HETATM    3  C10 UNL     1      21.242  -0.984  53.929  1.00  0.00     0.189 A 
HETATM    4  N3  UNL     1      21.646  -1.719  55.089  1.00  0.00    -0.297 NA
HETATM    5  C11 UNL     1      22.841  -1.738  55.499  1.00  0.00     0.113 A 
HETATM    6  C12 UNL     1      24.029  -1.093  54.969  1.00  0.00     0.049 A 
HETATM    7  C13 UNL     1      23.770  -0.385  53.888  1.00  0.00     0.041 A 
ENDROOT
BRANCH   1   8
HETATM    8  C7  UNL     1      21.322   0.918  51.241  1.00  0.00     0.107 C 
BRANCH   8   9
HETATM    9  N2  UNL     1      21.919   1.951  50.413  1.00  0.00    -0.353 N 
HETATM   10  C6  UNL     1      21.994   1.818  48.976  1.00  0.00     0.219 C 
HETATM   11  O1  UNL     1      21.542   0.789  48.384  1.00  0.00    -0.274 OA
HETATM   12  H11 UNL     1      22.307   2.823  50.881  1.00  0.00     0.163 HD
BRANCH  10  13
HETATM   13  C5  UNL     1      22.636   2.971  48.257  1.00  0.00     0.122 C 
BRANCH  13  14
HETATM   14  C4  UNL     1      23.941   3.331  48.940  1.00  0.00     0.131 C 
BRANCH  14  15
HETATM   15  N1  UNL     1      24.107   4.750  49.051  1.00  0.00    -0.395 N 
HETATM   16  C3  UNL     1      23.170   5.497  48.258  1.00  0.00     0.148 C 
BRANCH  15  17
HETATM   17  C2  UNL     1      25.104   5.343  49.866  1.00  0.00     0.075 C 
HETATM   18  C1  UNL     1      26.183   4.893  49.221  1.00  0.00     0.029 C 
ENDBRANCH  15  17
ENDBRANCH  14  15
ENDBRANCH  13  14
ENDBRANCH  10  13
ENDBRANCH   8   9
BRANCH   8  19
HETATM   19  C19 UNL     1      19.944   1.223  51.663  1.00  0.00     0.025 C 
HETATM   20  C20 UNL     1      18.874   0.346  51.061  1.00  0.00     0.007 C 
ENDBRANCH   8  19
ENDBRANCH   1   8
BRANCH   7  21
HETATM   21  N4  UNL     1      24.922   0.269  53.338  1.00  0.00    -0.364 N 
HETATM   22  H18 UNL     1      25.075   0.866  52.475  1.00  0.00     0.165 HD
BRANCH  21  23
HETATM   23  C14 UNL     1      26.214   0.232  53.915  1.00  0.00     0.107 C 
HETATM   24  C15 UNL     1      27.330   0.828  53.560  1.00  0.00     0.026 C 
HETATM   25 BR1  UNL     1      26.885   1.825  52.027  1.00  0.00    -0.050 Br
BRANCH  24  26
HETATM   26  C16 UNL     1      28.540   0.629  54.326  1.00  0.00     0.016 C 
HETATM   27  C17 UNL     1      29.372  -0.380  54.171  1.00  0.00    -0.029 C 
HETATM   28  C18 UNL     1      29.429  -1.567  53.289  1.00  0.00     0.036 C 
ENDBRANCH  24  26
ENDBRANCH  21  23
ENDBRANCH   7  21
TORSDOF 10
ENDMDL
MODEL 6
REMARK VINA RESULT:      -6.9      2.442      7.959
REMARK  10 active torsions:
REMARK  status: ('A' for Active; 'I' for Inactive)
REMARK    1  A    between atoms: C2_2  and  N1_3 
REMARK    2  A    between atoms: N1_3  and  C4_5 
REMARK    3  A    between atoms: C4_5  and  C5_6 
REMARK    4  A    between atoms: C5_6  and  C6_7 
REMARK       I    between atoms: C6_7  and  N2_9 
REMARK    5  A    between atoms: N2_9  and  C7_10 
REMARK    6  A    between atoms: C7_10  and  C8_11 
REMARK    7  A    between atoms: C7_10  and  C19_25 
REMARK    8  A    between atoms: C13_17  and  N4_18 
REMARK    9  A    between atoms: N4_18  and  C14_19 
REMARK   10  A    between atoms: C15_20  and  C16_22 
ROOT
HETATM    1  C8  UNL     1      26.264   2.160  51.631  1.00  0.00     0.009 C 
HETATM    2  C9  UNL     1      27.070   1.750  52.611  1.00  0.00    -0.013 A 
HETATM    3  C10 UNL     1      28.234   2.556  53.047  1.00  0.00     0.189 A 
HETATM    4  N3  UNL     1      28.925   1.902  54.117  1.00  0.00    -0.297 NA
HETATM    5  C11 UNL     1      28.555   0.787  54.584  1.00  0.00     0.113 A 
HETATM    6  C12 UNL     1      27.439  -0.064  54.214  1.00  0.00     0.049 A 
HETATM    7  C13 UNL     1      26.727   0.448  53.231  1.00  0.00     0.041 A 
ENDROOT
BRANCH   1   8
HETATM    8  C7  UNL     1      26.040   3.230  50.684  1.00  0.00     0.107 C 
BRANCH   8   9
HETATM    9  N2  UNL     1      24.617   3.426  50.475  1.00  0.00    -0.353 N 
HETATM   10  C6  UNL     1      23.993   4.713  50.680  1.00  0.00     0.219 C 
HETATM   11  O1  UNL     1      24.669   5.722  51.053  1.00  0.00    -0.274 OA
HETATM   12  H11 UNL     1      24.025   2.599  50.165  1.00  0.00     0.163 HD
BRANCH  10  13
HETATM   13  C5  UNL     1      22.513   4.759  50.420  1.00  0.00     0.122 C 
BRANCH  13  14
HETATM   14  C4  UNL     1      22.074   3.465  49.764  1.00  0.00     0.131 C 
BRANCH  14  15
HETATM   15  N1  UNL     1      20.807   3.019  50.266  1.00  0.00    -0.395 N 
HETATM   16  C3  UNL     1      20.474   3.575  51.548  1.00  0.00     0.148 C 
BRANCH  15  17
HETATM   17  C2  UNL     1      19.976   2.118  49.554  1.00  0.00     0.075 C 
HETATM   18  C1  UNL     1      20.873   1.155  49.328  1.00  0.00     0.029 C 
ENDBRANCH  15  17
ENDBRANCH  14  15
ENDBRANCH  13  14
ENDBRANCH  10  13
ENDBRANCH   8   9
BRANCH   8  19
HETATM   19  C19 UNL     1      26.831   3.275  49.442  1.00  0.00     0.025 C 
HETATM   20  C20 UNL     1      27.215   4.655  48.970  1.00  0.00     0.007 C 
ENDBRANCH   8  19
ENDBRANCH   1   8
BRANCH   7  21
HETATM   21  N4  UNL     1      25.615  -0.371  52.838  1.00  0.00    -0.364 N 
HETATM   22  H18 UNL     1      25.316  -0.791  51.912  1.00  0.00     0.165 HD
BRANCH  21  23
HETATM   23  C14 UNL     1      24.600  -0.816  53.718  1.00  0.00     0.107 C 
HETATM   24  C15 UNL     1      23.334  -0.480  53.806  1.00  0.00     0.026 C 
HETATM   25 BR1  UNL     1      23.073   0.804  52.455  1.00  0.00    -0.050 Br
BRANCH  24  26
HETATM   26  C16 UNL     1      22.483  -1.088  54.805  1.00  0.00     0.016 C 
HETATM   27  C17 UNL     1      21.180  -1.235  54.696  1.00  0.00    -0.029 C 
HETATM   28  C18 UNL     1      20.168  -0.898  53.670  1.00  0.00     0.036 C 
ENDBRANCH  24  26
ENDBRANCH  21  23
ENDBRANCH   7  21
TORSDOF 10
ENDMDL
MODEL 7
REMARK VINA RESULT:      -6.9      2.462      6.625
REMARK  10 active torsions:
REMARK  status: ('A' for Active; 'I' for Inactive)
REMARK    1  A    between atoms: C2_2  and  N1_3 
REMARK    2  A    between atoms: N1_3  and  C4_5 
REMARK    3  A    between atoms: C4_5  and  C5_6 
REMARK    4  A    between atoms: C5_6  and  C6_7 
REMARK       I    between atoms: C6_7  and  N2_9 
REMARK    5  A    between atoms: N2_9  and  C7_10 
REMARK    6  A    between atoms: C7_10  and  C8_11 
REMARK    7  A    between atoms: C7_10  and  C19_25 
REMARK    8  A    between atoms: C13_17  and  N4_18 
REMARK    9  A    between atoms: N4_18  and  C14_19 
REMARK   10  A    between atoms: C15_20  and  C16_22 
ROOT
HETATM    1  C8  UNL     1      22.773   0.987  51.448  1.00  0.00     0.009 C 
HETATM    2  C9  UNL     1      22.247   0.535  52.588  1.00  0.00    -0.013 A 
HETATM    3  C10 UNL     1      20.864   0.876  52.993  1.00  0.00     0.189 A 
HETATM    4  N3  UNL     1      20.541   0.259  54.243  1.00  0.00    -0.297 NA
HETATM    5  C11 UNL     1      21.362  -0.462  54.878  1.00  0.00     0.113 A 
HETATM    6  C12 UNL     1      22.727  -0.839  54.557  1.00  0.00     0.049 A 
HETATM    7  C13 UNL     1      23.130  -0.323  53.413  1.00  0.00     0.041 A 
ENDROOT
BRANCH   1   8
HETATM    8  C7  UNL     1      22.494   1.795  50.282  1.00  0.00     0.107 C 
BRANCH   8   9
HETATM    9  N2  UNL     1      22.168   3.154  50.678  1.00  0.00    -0.353 N 
HETATM   10  C6  UNL     1      23.189   4.169  50.804  1.00  0.00     0.219 C 
HETATM   11  O1  UNL     1      24.411   3.908  50.575  1.00  0.00    -0.274 OA
HETATM   12  H11 UNL     1      21.154   3.401  50.878  1.00  0.00     0.163 HD
BRANCH  10  13
HETATM   13  C5  UNL     1      22.697   5.527  51.219  1.00  0.00     0.122 C 
BRANCH  13  14
HETATM   14  C4  UNL     1      23.878   6.457  51.411  1.00  0.00     0.131 C 
BRANCH  14  15
HETATM   15  N1  UNL     1      23.799   7.600  50.549  1.00  0.00    -0.395 N 
HETATM   16  C3  UNL     1      22.477   7.839  50.039  1.00  0.00     0.148 C 
BRANCH  15  17
HETATM   17  C2  UNL     1      24.924   8.405  50.239  1.00  0.00     0.075 C 
HETATM   18  C1  UNL     1      25.826   7.433  50.078  1.00  0.00     0.029 C 
ENDBRANCH  15  17
ENDBRANCH  14  15
ENDBRANCH  13  14
ENDBRANCH  10  13
ENDBRANCH   8   9
BRANCH   8  19
HETATM   19  C19 UNL     1      21.617   1.262  49.226  1.00  0.00     0.025 C 
HETATM   20  C20 UNL     1      20.213   1.814  49.210  1.00  0.00     0.007 C 
ENDBRANCH   8  19
ENDBRANCH   1   8
BRANCH   7  21
HETATM   21  N4  UNL     1      24.477  -0.674  53.067  1.00  0.00    -0.364 N 
HETATM   22  H18 UNL     1      24.911  -1.132  52.215  1.00  0.00     0.165 HD
BRANCH  21  23
HETATM   23  C14 UNL     1      25.602  -0.446  53.896  1.00  0.00     0.107 C 
HETATM   24  C15 UNL     1      26.711   0.221  53.673  1.00  0.00     0.026 C 
HETATM   25 BR1  UNL     1      26.540   0.879  51.918  1.00  0.00    -0.050 Br
BRANCH  24  26
HETATM   26  C16 UNL     1      27.728   0.313  54.697  1.00  0.00     0.016 C 
HETATM   27  C17 UNL     1      28.960  -0.134  54.576  1.00  0.00    -0.029 C 
HETATM   28  C18 UNL     1      29.730  -0.816  53.511  1.00  0.00     0.036 C 
ENDBRANCH  24  26
ENDBRANCH  21  23
ENDBRANCH   7  21
TORSDOF 10
ENDMDL
MODEL 8
REMARK VINA RESULT:      -6.8      2.849      6.433
REMARK  10 active torsions:
REMARK  status: ('A' for Active; 'I' for Inactive)
REMARK    1  A    between atoms: C2_2  and  N1_3 
REMARK    2  A    between atoms: N1_3  and  C4_5 
REMARK    3  A    between atoms: C4_5  and  C5_6 
REMARK    4  A    between atoms: C5_6  and  C6_7 
REMARK       I    between atoms: C6_7  and  N2_9 
REMARK    5  A    between atoms: N2_9  and  C7_10 
REMARK    6  A    between atoms: C7_10  and  C8_11 
REMARK    7  A    between atoms: C7_10  and  C19_25 
REMARK    8  A    between atoms: C13_17  and  N4_18 
REMARK    9  A    between atoms: N4_18  and  C14_19 
REMARK   10  A    between atoms: C15_20  and  C16_22 
ROOT
HETATM    1  C8  UNL     1      23.476   1.738  52.768  1.00  0.00     0.009 C 
HETATM    2  C9  UNL     1      23.315   0.661  53.537  1.00  0.00    -0.013 A 
HETATM    3  C10 UNL     1      24.473  -0.103  54.055  1.00  0.00     0.189 A 
HETATM    4  N3  UNL     1      24.030  -1.201  54.859  1.00  0.00    -0.297 NA
HETATM    5  C11 UNL     1      22.806  -1.446  55.063  1.00  0.00     0.113 A 
HETATM    6  C12 UNL     1      21.619  -0.755  54.593  1.00  0.00     0.049 A 
HETATM    7  C13 UNL     1      21.913   0.284  53.838  1.00  0.00     0.041 A 
ENDROOT
BRANCH   1   8
HETATM    8  C7  UNL     1      24.474   2.580  52.144  1.00  0.00     0.107 C 
BRANCH   8   9
HETATM    9  N2  UNL     1      25.698   2.571  52.925  1.00  0.00    -0.353 N 
HETATM   10  C6  UNL     1      26.960   2.168  52.347  1.00  0.00     0.219 C 
HETATM   11  O1  UNL     1      27.042   1.805  51.132  1.00  0.00    -0.274 OA
HETATM   12  H11 UNL     1      25.658   2.868  53.945  1.00  0.00     0.163 HD
BRANCH  10  13
HETATM   13  C5  UNL     1      28.137   2.214  53.279  1.00  0.00     0.122 C 
BRANCH  13  14
HETATM   14  C4  UNL     1      28.099   1.012  54.202  1.00  0.00     0.131 C 
BRANCH  14  15
HETATM   15  N1  UNL     1      28.696  -0.142  53.596  1.00  0.00    -0.395 N 
HETATM   16  C3  UNL     1      30.132  -0.084  53.553  1.00  0.00     0.148 C 
BRANCH  15  17
HETATM   17  C2  UNL     1      27.932  -1.224  53.093  1.00  0.00     0.075 C 
HETATM   18  C1  UNL     1      28.870  -2.174  53.151  1.00  0.00     0.029 C 
ENDBRANCH  15  17
ENDBRANCH  14  15
ENDBRANCH  13  14
ENDBRANCH  10  13
ENDBRANCH   8   9
BRANCH   8  19
HETATM   19  C19 UNL     1      24.092   3.918  51.662  1.00  0.00     0.025 C 
HETATM   20  C20 UNL     1      23.337   4.771  52.650  1.00  0.00     0.007 C 
ENDBRANCH   8  19
ENDBRANCH   1   8
BRANCH   7  21
HETATM   21  N4  UNL     1      20.760   0.988  53.354  1.00  0.00    -0.364 N 
HETATM   22  H18 UNL     1      20.587   2.000  53.091  1.00  0.00     0.165 HD
BRANCH  21  23
HETATM   23  C14 UNL     1      19.500   0.390  53.113  1.00  0.00     0.107 C 
HETATM   24  C15 UNL     1      18.877   0.127  51.987  1.00  0.00     0.026 C 
HETATM   25 BR1  UNL     1      20.037   0.731  50.633  1.00  0.00    -0.050 Br
BRANCH  24  26
HETATM   26  C16 UNL     1      17.575  -0.501  52.002  1.00  0.00     0.016 C 
HETATM   27  C17 UNL     1      17.262  -1.569  52.706  1.00  0.00    -0.029 C 
HETATM   28  C18 UNL     1      17.986  -2.457  53.643  1.00  0.00     0.036 C 
ENDBRANCH  24  26
ENDBRANCH  21  23
ENDBRANCH   7  21
TORSDOF 10
ENDMDL
MODEL 9
REMARK VINA RESULT:      -6.8      2.568      6.492
REMARK  10 active torsions:
REMARK  status: ('A' for Active; 'I' for Inactive)
REMARK    1  A    between atoms: C2_2  and  N1_3 
REMARK    2  A    between atoms: N1_3  and  C4_5 
REMARK    3  A    between atoms: C4_5  and  C5_6 
REMARK    4  A    between atoms: C5_6  and  C6_7 
REMARK       I    between atoms: C6_7  and  N2_9 
REMARK    5  A    between atoms: N2_9  and  C7_10 
REMARK    6  A    between atoms: C7_10  and  C8_11 
REMARK    7  A    between atoms: C7_10  and  C19_25 
REMARK    8  A    between atoms: C13_17  and  N4_18 
REMARK    9  A    between atoms: N4_18  and  C14_19 
REMARK   10  A    between atoms: C15_20  and  C16_22 
ROOT
HETATM    1  C8  UNL     1      23.590   0.867  52.895  1.00  0.00     0.009 C 
HETATM    2  C9  UNL     1      24.837   0.504  53.200  1.00  0.00    -0.013 A 
HETATM    3  C10 UNL     1      25.127  -0.776  53.884  1.00  0.00     0.189 A 
HETATM    4  N3  UNL     1      26.536  -0.930  54.084  1.00  0.00    -0.297 NA
HETATM    5  C11 UNL     1      27.375  -0.059  53.715  1.00  0.00     0.113 A 
HETATM    6  C12 UNL     1      27.175   1.215  53.048  1.00  0.00     0.049 A 
HETATM    7  C13 UNL     1      25.902   1.459  52.811  1.00  0.00     0.041 A 
ENDROOT
BRANCH   1   8
HETATM    8  C7  UNL     1      22.207   0.451  52.979  1.00  0.00     0.107 C 
BRANCH   8   9
HETATM    9  N2  UNL     1      21.349   1.428  52.335  1.00  0.00    -0.353 N 
HETATM   10  C6  UNL     1      21.060   1.364  50.920  1.00  0.00     0.219 C 
HETATM   11  O1  UNL     1      21.550   0.450  50.188  1.00  0.00    -0.274 OA
HETATM   12  H11 UNL     1      20.925   2.206  52.923  1.00  0.00     0.163 HD
BRANCH  10  13
HETATM   13  C5  UNL     1      20.152   2.444  50.401  1.00  0.00     0.122 C 
BRANCH  13  14
HETATM   14  C4  UNL     1      18.990   1.815  49.658  1.00  0.00     0.131 C 
BRANCH  14  15
HETATM   15  N1  UNL     1      17.997   1.308  50.558  1.00  0.00    -0.395 N 
HETATM   16  C3  UNL     1      17.459   2.310  51.436  1.00  0.00     0.148 C 
BRANCH  15  17
HETATM   17  C2  UNL     1      17.595  -0.052  50.570  1.00  0.00     0.075 C 
HETATM   18  C1  UNL     1      17.925  -0.346  51.830  1.00  0.00     0.029 C 
ENDBRANCH  15  17
ENDBRANCH  14  15
ENDBRANCH  13  14
ENDBRANCH  10  13
ENDBRANCH   8   9
BRANCH   8  19
HETATM   19  C19 UNL     1      21.678  -0.047  54.261  1.00  0.00     0.025 C 
HETATM   20  C20 UNL     1      20.960  -1.371  54.193  1.00  0.00     0.007 C 
ENDBRANCH   8  19
ENDBRANCH   1   8
BRANCH   7  21
HETATM   21  N4  UNL     1      25.669   2.714  52.154  1.00  0.00    -0.364 N 
HETATM   22  H18 UNL     1      24.946   3.477  52.286  1.00  0.00     0.165 HD
BRANCH  21  23
HETATM   23  C14 UNL     1      26.453   3.216  51.088  1.00  0.00     0.107 C 
HETATM   24  C15 UNL     1      26.107   3.634  49.892  1.00  0.00     0.026 C 
HETATM   25 BR1  UNL     1      24.236   3.436  49.827  1.00  0.00    -0.050 Br
BRANCH  24  26
HETATM   26  C16 UNL     1      27.109   4.112  48.966  1.00  0.00     0.016 C 
HETATM   27  C17 UNL     1      27.271   5.370  48.613  1.00  0.00    -0.029 C 
HETATM   28  C18 UNL     1      26.608   6.648  48.953  1.00  0.00     0.036 C 
ENDBRANCH  24  26
ENDBRANCH  21  23
ENDBRANCH   7  21
TORSDOF 10
ENDMDL
