MODEL 1
REMARK VINA RESULT:      -7.7      0.000      0.000
REMARK  7 active torsions:
REMARK  status: ('A' for Active; 'I' for Inactive)
REMARK    1  A    between atoms: C3_3  and  C4_5 
REMARK    2  A    between atoms: C4_5  and  C5_6 
REMARK    3  A    between atoms: C5_6  and  N1_7 
REMARK    4  A    between atoms: N1_7  and  C6_8 
REMARK    5  A    between atoms: N3_10  and  C7_11 
REMARK    6  A    between atoms: C8_13  and  O1_14 
REMARK    7  A    between atoms: C10_17  and  C11_18 
ROOT
HETATM    1  C1  UNL     1      28.263   5.409  48.304  1.00  0.00     0.098 C 
HETATM    2  C2  UNL     1      27.131   5.834  48.814  1.00  0.00    -0.131 C 
HETATM    3  C3  UNL     1      26.108   6.428  49.387  1.00  0.00     0.076 C 
HETATM    4 CL1  UNL     1      26.337   7.970  50.131  1.00  0.00    -0.075 Cl
ENDROOT
BRANCH   3   5
HETATM    5  C4  UNL     1      24.932   5.603  49.262  1.00  0.00     0.049 C 
BRANCH   5   6
HETATM    6  C5  UNL     1      24.164   5.367  50.287  1.00  0.00     0.092 C 
BRANCH   6   7
HETATM    7  N1  UNL     1      23.354   4.346  50.857  1.00  0.00    -0.353 N 
HETATM    8  H5  UNL     1      22.308   4.367  50.915  1.00  0.00     0.166 HD
BRANCH   7   9
HETATM    9  C6  UNL     1      23.946   3.159  51.423  1.00  0.00     0.126 C 
HETATM   10  N2  UNL     1      23.252   2.310  52.109  1.00  0.00    -0.156 NA
HETATM   11  N3  UNL     1      24.060   1.256  52.541  1.00  0.00    -0.235 N 
HETATM   12  C10 UNL     1      25.197   1.229  51.648  1.00  0.00     0.152 C 
HETATM   13  C17 UNL     1      25.360   2.704  51.342  1.00  0.00     0.112 C 
BRANCH  11  14
HETATM   14  C7  UNL     1      23.974   0.319  53.574  1.00  0.00     0.192 A 
HETATM   15  N4  UNL     1      24.680  -0.202  54.463  1.00  0.00    -0.198 NA
HETATM   16  C8  UNL     1      24.168  -1.104  55.279  1.00  0.00     0.171 A 
HETATM   17  C9  UNL     1      22.800  -1.543  55.210  1.00  0.00     0.111 A 
HETATM   18  S1  UNL     1      22.264  -0.480  53.774  1.00  0.00    -0.058 SA
BRANCH  16  19
HETATM   19  O1  UNL     1      25.096  -1.592  56.223  1.00  0.00    -0.344 OA
HETATM   20  H6  UNL     1      25.867  -2.184  55.950  1.00  0.00     0.219 HD
ENDBRANCH  16  19
ENDBRANCH  11  14
BRANCH  12  21
HETATM   21  C11 UNL     1      26.418   0.654  52.257  1.00  0.00    -0.033 A 
HETATM   22  C12 UNL     1      27.296   1.471  52.915  1.00  0.00     0.011 A 
HETATM   23  C13 UNL     1      28.412   0.815  53.448  1.00  0.00     0.024 A 
HETATM   24  C14 UNL     1      28.644  -0.544  53.340  1.00  0.00     0.034 A 
HETATM   25 CL2  UNL     1      30.046  -1.292  54.022  1.00  0.00    -0.084 Cl
HETATM   26  C15 UNL     1      27.726  -1.311  52.666  1.00  0.00     0.024 A 
HETATM   27  C16 UNL     1      26.631  -0.705  52.137  1.00  0.00     0.011 A 
ENDBRANCH  12  21
ENDBRANCH   7   9
ENDBRANCH   6   7
ENDBRANCH   5   6
ENDBRANCH   3   5
TORSDOF 7
ENDMDL
MODEL 2
REMARK VINA RESULT:      -7.7      3.500      4.873
REMARK  7 active torsions:
REMARK  status: ('A' for Active; 'I' for Inactive)
REMARK    1  A    between atoms: C3_3  and  C4_5 
REMARK    2  A    between atoms: C4_5  and  C5_6 
REMARK    3  A    between atoms: C5_6  and  N1_7 
REMARK    4  A    between atoms: N1_7  and  C6_8 
REMARK    5  A    between atoms: N3_10  and  C7_11 
REMARK    6  A    between atoms: C8_13  and  O1_14 
REMARK    7  A    between atoms: C10_17  and  C11_18 
ROOT
HETATM    1  C1  UNL     1      31.776   3.547  46.820  1.00  0.00     0.098 C 
HETATM    2  C2  UNL     1      31.217   4.564  47.434  1.00  0.00    -0.131 C 
HETATM    3  C3  UNL     1      30.845   5.609  48.140  1.00  0.00     0.076 C 
HETATM    4 CL1  UNL     1      31.997   6.384  49.168  1.00  0.00    -0.075 Cl
ENDROOT
BRANCH   3   5
HETATM    5  C4  UNL     1      29.457   5.901  47.883  1.00  0.00     0.049 C 
BRANCH   5   6
HETATM    6  C5  UNL     1      28.509   5.280  48.526  1.00  0.00     0.092 C 
BRANCH   6   7
HETATM    7  N1  UNL     1      27.096   5.125  48.545  1.00  0.00    -0.353 N 
HETATM    8  H5  UNL     1      26.426   5.606  47.898  1.00  0.00     0.166 HD
BRANCH   7   9
HETATM    9  C6  UNL     1      26.458   4.255  49.503  1.00  0.00     0.126 C 
HETATM   10  N2  UNL     1      27.141   3.516  50.315  1.00  0.00    -0.156 NA
HETATM   11  N3  UNL     1      26.286   2.773  51.132  1.00  0.00    -0.235 N 
HETATM   12  C10 UNL     1      25.022   3.475  51.136  1.00  0.00     0.152 C 
HETATM   13  C17 UNL     1      25.003   4.046  49.733  1.00  0.00     0.112 C 
BRANCH  11  14
HETATM   14  C7  UNL     1      26.421   1.595  51.872  1.00  0.00     0.192 A 
HETATM   15  N4  UNL     1      26.365   0.355  51.727  1.00  0.00    -0.198 NA
HETATM   16  C8  UNL     1      26.571  -0.447  52.755  1.00  0.00     0.171 A 
HETATM   17  C9  UNL     1      26.868   0.030  54.080  1.00  0.00     0.111 A 
HETATM   18  S1  UNL     1      26.826   1.857  53.707  1.00  0.00    -0.058 SA
BRANCH  16  19
HETATM   19  O1  UNL     1      26.471  -1.814  52.424  1.00  0.00    -0.344 OA
HETATM   20  H6  UNL     1      27.191  -2.474  52.678  1.00  0.00     0.219 HD
ENDBRANCH  16  19
ENDBRANCH  11  14
BRANCH  12  21
HETATM   21  C11 UNL     1      23.856   2.599  51.391  1.00  0.00    -0.033 A 
HETATM   22  C12 UNL     1      23.471   2.340  52.678  1.00  0.00     0.011 A 
HETATM   23  C13 UNL     1      22.358   1.499  52.792  1.00  0.00     0.024 A 
HETATM   24  C14 UNL     1      21.676   0.955  51.720  1.00  0.00     0.034 A 
HETATM   25 CL2  UNL     1      20.306  -0.079  51.932  1.00  0.00    -0.084 Cl
HETATM   26  C15 UNL     1      22.112   1.251  50.452  1.00  0.00     0.024 A 
HETATM   27  C16 UNL     1      23.190   2.065  50.305  1.00  0.00     0.011 A 
ENDBRANCH  12  21
ENDBRANCH   7   9
ENDBRANCH   6   7
ENDBRANCH   5   6
ENDBRANCH   3   5
TORSDOF 7
ENDMDL
MODEL 3
REMARK VINA RESULT:      -7.4      3.075      6.762
REMARK  7 active torsions:
REMARK  status: ('A' for Active; 'I' for Inactive)
REMARK    1  A    between atoms: C3_3  and  C4_5 
REMARK    2  A    between atoms: C4_5  and  C5_6 
REMARK    3  A    between atoms: C5_6  and  N1_7 
REMARK    4  A    between atoms: N1_7  and  C6_8 
REMARK    5  A    between atoms: N3_10  and  C7_11 
REMARK    6  A    between atoms: C8_13  and  O1_14 
REMARK    7  A    between atoms: C10_17  and  C11_18 
ROOT
HETATM    1  C1  UNL     1      30.168  -0.891  53.380  1.00  0.00     0.098 C 
HETATM    2  C2  UNL     1      29.214  -0.143  53.883  1.00  0.00    -0.131 C 
HETATM    3  C3  UNL     1      28.355   0.766  54.290  1.00  0.00     0.076 C 
HETATM    4 CL1  UNL     1      28.566   2.407  53.790  1.00  0.00    -0.075 Cl
ENDROOT
BRANCH   3   5
HETATM    5  C4  UNL     1      27.353   0.152  55.123  1.00  0.00     0.049 C 
BRANCH   5   6
HETATM    6  C5  UNL     1      26.087   0.245  54.831  1.00  0.00     0.092 C 
BRANCH   6   7
HETATM    7  N1  UNL     1      25.152  -0.097  53.815  1.00  0.00    -0.353 N 
HETATM    8  H5  UNL     1      24.886  -1.073  53.543  1.00  0.00     0.166 HD
BRANCH   7   9
HETATM    9  C6  UNL     1      24.476   0.925  53.054  1.00  0.00     0.126 C 
HETATM   10  N2  UNL     1      23.207   0.869  52.813  1.00  0.00    -0.156 NA
HETATM   11  N3  UNL     1      22.805   1.975  52.060  1.00  0.00    -0.235 N 
HETATM   12  C10 UNL     1      23.805   2.996  52.280  1.00  0.00     0.152 C 
HETATM   13  C17 UNL     1      25.052   2.151  52.440  1.00  0.00     0.112 C 
BRANCH  11  14
HETATM   14  C7  UNL     1      21.722   2.243  51.219  1.00  0.00     0.192 A 
HETATM   15  N4  UNL     1      21.315   1.998  50.064  1.00  0.00    -0.198 NA
HETATM   16  C8  UNL     1      20.159   2.480  49.646  1.00  0.00     0.171 A 
HETATM   17  C9  UNL     1      19.305   3.299  50.465  1.00  0.00     0.111 A 
HETATM   18  S1  UNL     1      20.370   3.326  51.996  1.00  0.00    -0.058 SA
BRANCH  16  19
HETATM   19  O1  UNL     1      19.848   2.111  48.321  1.00  0.00    -0.344 OA
HETATM   20  H6  UNL     1      19.928   2.767  47.557  1.00  0.00     0.219 HD
ENDBRANCH  16  19
ENDBRANCH  11  14
BRANCH  12  21
HETATM   21  C11 UNL     1      23.930   3.957  51.162  1.00  0.00    -0.033 A 
HETATM   22  C12 UNL     1      24.474   3.549  49.975  1.00  0.00     0.011 A 
HETATM   23  C13 UNL     1      24.540   4.545  48.994  1.00  0.00     0.024 A 
HETATM   24  C14 UNL     1      24.103   5.845  49.169  1.00  0.00     0.034 A 
HETATM   25 CL2  UNL     1      24.215   7.029  47.913  1.00  0.00    -0.084 Cl
HETATM   26  C15 UNL     1      23.567   6.195  50.384  1.00  0.00     0.024 A 
HETATM   27  C16 UNL     1      23.487   5.251  51.359  1.00  0.00     0.011 A 
ENDBRANCH  12  21
ENDBRANCH   7   9
ENDBRANCH   6   7
ENDBRANCH   5   6
ENDBRANCH   3   5
TORSDOF 7
ENDMDL
MODEL 4
REMARK VINA RESULT:      -7.3      4.112      7.434
REMARK  7 active torsions:
REMARK  status: ('A' for Active; 'I' for Inactive)
REMARK    1  A    between atoms: C3_3  and  C4_5 
REMARK    2  A    between atoms: C4_5  and  C5_6 
REMARK    3  A    between atoms: C5_6  and  N1_7 
REMARK    4  A    between atoms: N1_7  and  C6_8 
REMARK    5  A    between atoms: N3_10  and  C7_11 
REMARK    6  A    between atoms: C8_13  and  O1_14 
REMARK    7  A    between atoms: C10_17  and  C11_18 
ROOT
HETATM    1  C1  UNL     1      30.050  -0.832  53.492  1.00  0.00     0.098 C 
HETATM    2  C2  UNL     1      28.987  -0.137  53.825  1.00  0.00    -0.131 C 
HETATM    3  C3  UNL     1      27.995   0.703  54.024  1.00  0.00     0.076 C 
HETATM    4 CL1  UNL     1      27.966   2.193  53.151  1.00  0.00    -0.075 Cl
ENDROOT
BRANCH   3   5
HETATM    5  C4  UNL     1      27.083   0.158  54.998  1.00  0.00     0.049 C 
BRANCH   5   6
HETATM    6  C5  UNL     1      25.796   0.176  54.796  1.00  0.00     0.092 C 
BRANCH   6   7
HETATM    7  N1  UNL     1      24.788  -0.424  53.991  1.00  0.00    -0.353 N 
HETATM    8  H5  UNL     1      24.569  -1.449  53.961  1.00  0.00     0.166 HD
BRANCH   7   9
HETATM    9  C6  UNL     1      23.962   0.375  53.120  1.00  0.00     0.126 C 
HETATM   10  N2  UNL     1      24.379   1.490  52.617  1.00  0.00    -0.156 NA
HETATM   11  N3  UNL     1      23.390   2.063  51.814  1.00  0.00    -0.235 N 
HETATM   12  C10 UNL     1      22.510   0.982  51.428  1.00  0.00     0.152 C 
HETATM   13  C17 UNL     1      22.573   0.103  52.660  1.00  0.00     0.112 C 
BRANCH  11  14
HETATM   14  C7  UNL     1      23.127   3.359  51.362  1.00  0.00     0.192 A 
HETATM   15  N4  UNL     1      22.586   4.419  51.740  1.00  0.00    -0.198 NA
HETATM   16  C8  UNL     1      22.558   5.474  50.947  1.00  0.00     0.171 A 
HETATM   17  C9  UNL     1      23.132   5.484  49.628  1.00  0.00     0.111 A 
HETATM   18  S1  UNL     1      23.763   3.729  49.612  1.00  0.00    -0.058 SA
BRANCH  16  19
HETATM   19  O1  UNL     1      21.911   6.587  51.523  1.00  0.00    -0.344 OA
HETATM   20  H6  UNL     1      22.205   6.968  52.411  1.00  0.00     0.219 HD
ENDBRANCH  16  19
ENDBRANCH  11  14
BRANCH  12  21
HETATM   21  C11 UNL     1      21.127   1.419  51.133  1.00  0.00    -0.033 A 
HETATM   22  C12 UNL     1      20.291   1.764  52.159  1.00  0.00     0.011 A 
HETATM   23  C13 UNL     1      19.010   2.158  51.757  1.00  0.00     0.024 A 
HETATM   24  C14 UNL     1      18.585   2.210  50.443  1.00  0.00     0.034 A 
HETATM   25 CL2  UNL     1      16.985   2.707  50.014  1.00  0.00    -0.084 Cl
HETATM   26  C15 UNL     1      19.470   1.850  49.456  1.00  0.00     0.024 A 
HETATM   27  C16 UNL     1      20.723   1.462  49.812  1.00  0.00     0.011 A 
ENDBRANCH  12  21
ENDBRANCH   7   9
ENDBRANCH   6   7
ENDBRANCH   5   6
ENDBRANCH   3   5
TORSDOF 7
ENDMDL
MODEL 5
REMARK VINA RESULT:      -7.2      2.981      4.058
REMARK  7 active torsions:
REMARK  status: ('A' for Active; 'I' for Inactive)
REMARK    1  A    between atoms: C3_3  and  C4_5 
REMARK    2  A    between atoms: C4_5  and  C5_6 
REMARK    3  A    between atoms: C5_6  and  N1_7 
REMARK    4  A    between atoms: N1_7  and  C6_8 
REMARK    5  A    between atoms: N3_10  and  C7_11 
REMARK    6  A    between atoms: C8_13  and  O1_14 
REMARK    7  A    between atoms: C10_17  and  C11_18 
ROOT
HETATM    1  C1  UNL     1      27.455   9.711  48.061  1.00  0.00     0.098 C 
HETATM    2  C2  UNL     1      27.282   8.485  48.496  1.00  0.00    -0.131 C 
HETATM    3  C3  UNL     1      27.278   7.209  48.816  1.00  0.00     0.076 C 
HETATM    4 CL1  UNL     1      28.509   6.177  48.179  1.00  0.00    -0.075 Cl
ENDROOT
BRANCH   3   5
HETATM    5  C4  UNL     1      26.168   6.930  49.692  1.00  0.00     0.049 C 
BRANCH   5   6
HETATM    6  C5  UNL     1      25.529   5.797  49.627  1.00  0.00     0.092 C 
BRANCH   6   7
HETATM    7  N1  UNL     1      25.722   4.429  49.290  1.00  0.00    -0.353 N 
HETATM    8  H5  UNL     1      25.943   4.068  48.331  1.00  0.00     0.166 HD
BRANCH   7   9
HETATM    9  C6  UNL     1      25.623   3.398  50.294  1.00  0.00     0.126 C 
HETATM   10  N2  UNL     1      26.660   2.747  50.708  1.00  0.00    -0.156 NA
HETATM   11  N3  UNL     1      26.292   1.808  51.675  1.00  0.00    -0.235 N 
HETATM   12  C10 UNL     1      25.032   2.263  52.218  1.00  0.00     0.152 C 
HETATM   13  C17 UNL     1      24.407   2.909  50.998  1.00  0.00     0.112 C 
BRANCH  11  14
HETATM   14  C7  UNL     1      26.866   0.630  52.162  1.00  0.00     0.192 A 
HETATM   15  N4  UNL     1      26.789  -0.608  52.019  1.00  0.00    -0.198 NA
HETATM   16  C8  UNL     1      27.567  -1.411  52.722  1.00  0.00     0.171 A 
HETATM   17  C9  UNL     1      28.533  -0.934  53.676  1.00  0.00     0.111 A 
HETATM   18  S1  UNL     1      28.215   0.892  53.470  1.00  0.00    -0.058 SA
BRANCH  16  19
HETATM   19  O1  UNL     1      27.356  -2.777  52.444  1.00  0.00    -0.344 OA
HETATM   20  H6  UNL     1      27.461  -3.149  51.511  1.00  0.00     0.219 HD
ENDBRANCH  16  19
ENDBRANCH  11  14
BRANCH  12  21
HETATM   21  C11 UNL     1      24.188   1.173  52.757  1.00  0.00    -0.033 A 
HETATM   22  C12 UNL     1      24.543   0.556  53.925  1.00  0.00     0.011 A 
HETATM   23  C13 UNL     1      23.670  -0.459  54.333  1.00  0.00     0.024 A 
HETATM   24  C14 UNL     1      22.533  -0.837  53.643  1.00  0.00     0.034 A 
HETATM   25 CL2  UNL     1      21.495  -2.101  54.205  1.00  0.00    -0.084 Cl
HETATM   26  C15 UNL     1      22.230  -0.180  52.476  1.00  0.00     0.024 A 
HETATM   27  C16 UNL     1      23.057   0.811  52.050  1.00  0.00     0.011 A 
ENDBRANCH  12  21
ENDBRANCH   7   9
ENDBRANCH   6   7
ENDBRANCH   5   6
ENDBRANCH   3   5
TORSDOF 7
ENDMDL
MODEL 6
REMARK VINA RESULT:      -7.0      3.269      4.578
REMARK  7 active torsions:
REMARK  status: ('A' for Active; 'I' for Inactive)
REMARK    1  A    between atoms: C3_3  and  C4_5 
REMARK    2  A    between atoms: C4_5  and  C5_6 
REMARK    3  A    between atoms: C5_6  and  N1_7 
REMARK    4  A    between atoms: N1_7  and  C6_8 
REMARK    5  A    between atoms: N3_10  and  C7_11 
REMARK    6  A    between atoms: C8_13  and  O1_14 
REMARK    7  A    between atoms: C10_17  and  C11_18 
ROOT
HETATM    1  C1  UNL     1      24.539   8.505  50.062  1.00  0.00     0.098 C 
HETATM    2  C2  UNL     1      25.304   8.445  48.998  1.00  0.00    -0.131 C 
HETATM    3  C3  UNL     1      25.983   8.568  47.879  1.00  0.00     0.076 C 
HETATM    4 CL1  UNL     1      25.742   9.970  46.898  1.00  0.00    -0.075 Cl
ENDROOT
BRANCH   3   5
HETATM    5  C4  UNL     1      26.842   7.425  47.701  1.00  0.00     0.049 C 
BRANCH   5   6
HETATM    6  C5  UNL     1      26.756   6.391  48.488  1.00  0.00     0.092 C 
BRANCH   6   7
HETATM    7  N1  UNL     1      27.176   5.036  48.594  1.00  0.00    -0.353 N 
HETATM    8  H5  UNL     1      27.929   4.590  48.017  1.00  0.00     0.166 HD
BRANCH   7   9
HETATM    9  C6  UNL     1      26.564   4.142  49.545  1.00  0.00     0.126 C 
HETATM   10  N2  UNL     1      27.269   3.382  50.318  1.00  0.00    -0.156 NA
HETATM   11  N3  UNL     1      26.437   2.617  51.140  1.00  0.00    -0.235 N 
HETATM   12  C10 UNL     1      25.174   3.319  51.197  1.00  0.00     0.152 C 
HETATM   13  C17 UNL     1      25.116   3.926  49.811  1.00  0.00     0.112 C 
BRANCH  11  14
HETATM   14  C7  UNL     1      26.592   1.420  51.844  1.00  0.00     0.192 A 
HETATM   15  N4  UNL     1      26.494   0.186  51.679  1.00  0.00    -0.198 NA
HETATM   16  C8  UNL     1      26.749  -0.644  52.674  1.00  0.00     0.171 A 
HETATM   17  C9  UNL     1      27.147  -0.203  53.985  1.00  0.00     0.111 A 
HETATM   18  S1  UNL     1      27.126   1.632  53.653  1.00  0.00    -0.058 SA
BRANCH  16  19
HETATM   19  O1  UNL     1      26.592  -2.000  52.322  1.00  0.00    -0.344 OA
HETATM   20  H6  UNL     1      27.224  -2.711  52.662  1.00  0.00     0.219 HD
ENDBRANCH  16  19
ENDBRANCH  11  14
BRANCH  12  21
HETATM   21  C11 UNL     1      24.015   2.436  51.461  1.00  0.00    -0.033 A 
HETATM   22  C12 UNL     1      23.336   1.878  50.413  1.00  0.00     0.011 A 
HETATM   23  C13 UNL     1      22.260   1.064  50.786  1.00  0.00     0.024 A 
HETATM   24  C14 UNL     1      21.883   0.818  52.093  1.00  0.00     0.034 A 
HETATM   25 CL2  UNL     1      20.540  -0.200  52.485  1.00  0.00    -0.084 Cl
HETATM   26  C15 UNL     1      22.603   1.408  53.102  1.00  0.00     0.024 A 
HETATM   27  C16 UNL     1      23.655   2.205  52.775  1.00  0.00     0.011 A 
ENDBRANCH  12  21
ENDBRANCH   7   9
ENDBRANCH   6   7
ENDBRANCH   5   6
ENDBRANCH   3   5
TORSDOF 7
ENDMDL
MODEL 7
REMARK VINA RESULT:      -7.0      4.361      7.377
REMARK  7 active torsions:
REMARK  status: ('A' for Active; 'I' for Inactive)
REMARK    1  A    between atoms: C3_3  and  C4_5 
REMARK    2  A    between atoms: C4_5  and  C5_6 
REMARK    3  A    between atoms: C5_6  and  N1_7 
REMARK    4  A    between atoms: N1_7  and  C6_8 
REMARK    5  A    between atoms: N3_10  and  C7_11 
REMARK    6  A    between atoms: C8_13  and  O1_14 
REMARK    7  A    between atoms: C10_17  and  C11_18 
ROOT
HETATM    1  C1  UNL     1      29.187  -2.267  53.167  1.00  0.00     0.098 C 
HETATM    2  C2  UNL     1      28.410  -1.212  53.241  1.00  0.00    -0.131 C 
HETATM    3  C3  UNL     1      27.475  -0.293  53.344  1.00  0.00     0.076 C 
HETATM    4 CL1  UNL     1      25.841  -0.781  53.621  1.00  0.00    -0.075 Cl
ENDROOT
BRANCH   3   5
HETATM    5  C4  UNL     1      28.059   1.016  53.191  1.00  0.00     0.049 C 
BRANCH   5   6
HETATM    6  C5  UNL     1      27.318   2.057  52.941  1.00  0.00     0.092 C 
BRANCH   6   7
HETATM    7  N1  UNL     1      26.907   2.897  51.869  1.00  0.00    -0.353 N 
HETATM    8  H5  UNL     1      27.519   3.593  51.378  1.00  0.00     0.166 HD
BRANCH   7   9
HETATM    9  C6  UNL     1      25.558   2.846  51.362  1.00  0.00     0.126 C 
HETATM   10  N2  UNL     1      25.086   3.765  50.585  1.00  0.00    -0.156 NA
HETATM   11  N3  UNL     1      23.763   3.480  50.240  1.00  0.00    -0.235 N 
HETATM   12  C10 UNL     1      23.596   2.056  50.432  1.00  0.00     0.152 C 
HETATM   13  C17 UNL     1      24.517   1.813  51.610  1.00  0.00     0.112 C 
BRANCH  11  14
HETATM   14  C7  UNL     1      22.684   4.244  49.787  1.00  0.00     0.192 A 
HETATM   15  N4  UNL     1      21.784   4.992  50.224  1.00  0.00    -0.198 NA
HETATM   16  C8  UNL     1      20.916   5.545  49.397  1.00  0.00     0.171 A 
HETATM   17  C9  UNL     1      20.940   5.335  47.973  1.00  0.00     0.111 A 
HETATM   18  S1  UNL     1      22.416   4.197  47.909  1.00  0.00    -0.058 SA
BRANCH  16  19
HETATM   19  O1  UNL     1      19.967   6.360  50.048  1.00  0.00    -0.344 OA
HETATM   20  H6  UNL     1      20.055   7.366  50.063  1.00  0.00     0.219 HD
ENDBRANCH  16  19
ENDBRANCH  11  14
BRANCH  12  21
HETATM   21  C11 UNL     1      22.203   1.656  50.731  1.00  0.00    -0.033 A 
HETATM   22  C12 UNL     1      21.420   1.134  49.738  1.00  0.00     0.011 A 
HETATM   23  C13 UNL     1      20.123   0.794  50.139  1.00  0.00     0.024 A 
HETATM   24  C14 UNL     1      19.634   0.956  51.422  1.00  0.00     0.034 A 
HETATM   25 CL2  UNL     1      18.018   0.515  51.852  1.00  0.00    -0.084 Cl
HETATM   26  C15 UNL     1      20.468   1.487  52.376  1.00  0.00     0.024 A 
HETATM   27  C16 UNL     1      21.735   1.828  52.019  1.00  0.00     0.011 A 
ENDBRANCH  12  21
ENDBRANCH   7   9
ENDBRANCH   6   7
ENDBRANCH   5   6
ENDBRANCH   3   5
TORSDOF 7
ENDMDL
MODEL 8
REMARK VINA RESULT:      -7.0      8.580     11.458
REMARK  7 active torsions:
REMARK  status: ('A' for Active; 'I' for Inactive)
REMARK    1  A    between atoms: C3_3  and  C4_5 
REMARK    2  A    between atoms: C4_5  and  C5_6 
REMARK    3  A    between atoms: C5_6  and  N1_7 
REMARK    4  A    between atoms: N1_7  and  C6_8 
REMARK    5  A    between atoms: N3_10  and  C7_11 
REMARK    6  A    between atoms: C8_13  and  O1_14 
REMARK    7  A    between atoms: C10_17  and  C11_18 
ROOT
HETATM    1  C1  UNL     1      35.210   3.390  45.856  1.00  0.00     0.098 C 
HETATM    2  C2  UNL     1      34.006   3.252  46.359  1.00  0.00    -0.131 C 
HETATM    3  C3  UNL     1      32.818   2.912  46.809  1.00  0.00     0.076 C 
HETATM    4 CL1  UNL     1      32.313   1.264  46.691  1.00  0.00    -0.075 Cl
ENDROOT
BRANCH   3   5
HETATM    5  C4  UNL     1      32.148   4.071  47.342  1.00  0.00     0.049 C 
BRANCH   5   6
HETATM    6  C5  UNL     1      32.822   5.106  47.757  1.00  0.00     0.092 C 
BRANCH   6   7
HETATM    7  N1  UNL     1      33.075   6.469  47.439  1.00  0.00    -0.353 N 
HETATM    8  H5  UNL     1      33.913   6.821  46.916  1.00  0.00     0.166 HD
BRANCH   7   9
HETATM    9  C6  UNL     1      32.154   7.506  47.833  1.00  0.00     0.126 C 
HETATM   10  N2  UNL     1      31.033   7.237  48.418  1.00  0.00    -0.156 NA
HETATM   11  N3  UNL     1      30.331   8.414  48.691  1.00  0.00    -0.235 N 
HETATM   12  C10 UNL     1      31.315   9.473  48.706  1.00  0.00     0.152 C 
HETATM   13  C17 UNL     1      32.292   8.977  47.661  1.00  0.00     0.112 C 
BRANCH  11  14
HETATM   14  C7  UNL     1      28.988   8.718  48.929  1.00  0.00     0.192 A 
HETATM   15  N4  UNL     1      28.241   9.129  49.841  1.00  0.00    -0.198 NA
HETATM   16  C8  UNL     1      26.948   9.285  49.626  1.00  0.00     0.171 A 
HETATM   17  C9  UNL     1      26.320   9.003  48.362  1.00  0.00     0.111 A 
HETATM   18  S1  UNL     1      27.844   8.456  47.437  1.00  0.00    -0.058 SA
BRANCH  16  19
HETATM   19  O1  UNL     1      26.247   9.754  50.756  1.00  0.00    -0.344 OA
HETATM   20  H6  UNL     1      25.287  10.061  50.694  1.00  0.00     0.219 HD
ENDBRANCH  16  19
ENDBRANCH  11  14
BRANCH  12  21
HETATM   21  C11 UNL     1      30.762  10.802  48.358  1.00  0.00    -0.033 A 
HETATM   22  C12 UNL     1      30.543  11.725  49.343  1.00  0.00     0.011 A 
HETATM   23  C13 UNL     1      30.019  12.942  48.892  1.00  0.00     0.024 A 
HETATM   24  C14 UNL     1      29.733  13.228  47.571  1.00  0.00     0.034 A 
HETATM   25 CL2  UNL     1      29.085  14.755  47.081  1.00  0.00    -0.084 Cl
HETATM   26  C15 UNL     1      29.974  12.260  46.627  1.00  0.00     0.024 A 
HETATM   27  C16 UNL     1      30.484  11.066  47.030  1.00  0.00     0.011 A 
ENDBRANCH  12  21
ENDBRANCH   7   9
ENDBRANCH   6   7
ENDBRANCH   5   6
ENDBRANCH   3   5
TORSDOF 7
ENDMDL
MODEL 9
REMARK VINA RESULT:      -6.9      5.499      8.023
REMARK  7 active torsions:
REMARK  status: ('A' for Active; 'I' for Inactive)
REMARK    1  A    between atoms: C3_3  and  C4_5 
REMARK    2  A    between atoms: C4_5  and  C5_6 
REMARK    3  A    between atoms: C5_6  and  N1_7 
REMARK    4  A    between atoms: N1_7  and  C6_8 
REMARK    5  A    between atoms: N3_10  and  C7_11 
REMARK    6  A    between atoms: C8_13  and  O1_14 
REMARK    7  A    between atoms: C10_17  and  C11_18 
ROOT
HETATM    1  C1  UNL     1      14.820   1.131  52.823  1.00  0.00     0.098 C 
HETATM    2  C2  UNL     1      15.477   0.085  52.379  1.00  0.00    -0.131 C 
HETATM    3  C3  UNL     1      16.123  -0.870  51.746  1.00  0.00     0.076 C 
HETATM    4 CL1  UNL     1      16.404  -0.715  50.049  1.00  0.00    -0.075 Cl
ENDROOT
BRANCH   3   5
HETATM    5  C4  UNL     1      16.482  -1.913  52.674  1.00  0.00     0.049 C 
BRANCH   5   6
HETATM    6  C5  UNL     1      17.686  -1.990  53.166  1.00  0.00     0.092 C 
BRANCH   6   7
HETATM    7  N1  UNL     1      18.614  -1.255  53.953  1.00  0.00    -0.353 N 
HETATM    8  H5  UNL     1      18.668  -1.274  55.000  1.00  0.00     0.166 HD
BRANCH   7   9
HETATM    9  C6  UNL     1      19.590  -0.390  53.335  1.00  0.00     0.126 C 
HETATM   10  N2  UNL     1      19.335   0.256  52.245  1.00  0.00    -0.156 NA
HETATM   11  N3  UNL     1      20.442   1.017  51.859  1.00  0.00    -0.235 N 
HETATM   12  C10 UNL     1      21.232   1.211  53.055  1.00  0.00     0.152 C 
HETATM   13  C17 UNL     1      20.975  -0.090  53.787  1.00  0.00     0.112 C 
BRANCH  11  14
HETATM   14  C7  UNL     1      20.876   1.567  50.650  1.00  0.00     0.192 A 
HETATM   15  N4  UNL     1      21.568   1.273  49.652  1.00  0.00    -0.198 NA
HETATM   16  C8  UNL     1      21.729   2.144  48.673  1.00  0.00     0.171 A 
HETATM   17  C9  UNL     1      21.139   3.456  48.680  1.00  0.00     0.111 A 
HETATM   18  S1  UNL     1      20.268   3.335  50.325  1.00  0.00    -0.058 SA
BRANCH  16  19
HETATM   19  O1  UNL     1      22.536   1.658  47.623  1.00  0.00    -0.344 OA
HETATM   20  H6  UNL     1      23.034   2.283  47.006  1.00  0.00     0.219 HD
ENDBRANCH  16  19
ENDBRANCH  11  14
BRANCH  12  21
HETATM   21  C11 UNL     1      22.673   1.417  52.787  1.00  0.00    -0.033 A 
HETATM   22  C12 UNL     1      23.508   0.337  52.699  1.00  0.00     0.011 A 
HETATM   23  C13 UNL     1      24.846   0.658  52.445  1.00  0.00     0.024 A 
HETATM   24  C14 UNL     1      25.326   1.945  52.289  1.00  0.00     0.034 A 
HETATM   25 CL2  UNL     1      26.995   2.271  51.976  1.00  0.00    -0.084 Cl
HETATM   26  C15 UNL     1      24.438   2.988  52.389  1.00  0.00     0.024 A 
HETATM   27  C16 UNL     1      23.130   2.712  52.635  1.00  0.00     0.011 A 
ENDBRANCH  12  21
ENDBRANCH   7   9
ENDBRANCH   6   7
ENDBRANCH   5   6
ENDBRANCH   3   5
TORSDOF 7
ENDMDL
