MODEL 1
REMARK VINA RESULT:      -8.6      0.000      0.000
REMARK  6 active torsions:
REMARK  status: ('A' for Active; 'I' for Inactive)
REMARK    1  A    between atoms: O1_2  and  C2_3 
REMARK    2  A    between atoms: C6_9  and  N3_10 
REMARK    3  A    between atoms: N3_10  and  C8_12 
REMARK    4  A    between atoms: C11_15  and  N4_16 
REMARK       I    between atoms: N4_16  and  C12_17 
REMARK       I    between atoms: C12_17  and  N5_19 
REMARK    5  A    between atoms: N5_19  and  C13_20 
REMARK    6  A    between atoms: C22_30  and  O4_31 
ROOT
HETATM    1  C8  UNL     1      25.654   5.607  49.866  1.00  0.00     0.035 A 
HETATM    2  C9  UNL     1      26.051   6.880  49.513  1.00  0.00     0.032 A 
HETATM    3  C10 UNL     1      27.152   7.178  48.736  1.00  0.00     0.032 A 
HETATM    4  C11 UNL     1      27.913   6.121  48.276  1.00  0.00     0.036 A 
HETATM    5  C18 UNL     1      27.587   4.806  48.581  1.00  0.00     0.032 A 
HETATM    6  C19 UNL     1      26.464   4.612  49.368  1.00  0.00     0.032 A 
ENDROOT
BRANCH   1   7
HETATM    7  N3  UNL     1      24.521   5.330  50.664  1.00  0.00    -0.335 N 
HETATM    8  C7  UNL     1      24.001   6.394  51.508  1.00  0.00     0.158 C 
BRANCH   7   9
HETATM    9  C6  UNL     1      23.939   4.030  50.608  1.00  0.00     0.144 A 
HETATM   10  N2  UNL     1      22.970   3.882  49.690  1.00  0.00    -0.223 NA
HETATM   11  C5  UNL     1      22.374   2.692  49.575  1.00  0.00     0.236 A 
HETATM   12  N1  UNL     1      22.697   1.629  50.335  1.00  0.00    -0.241 NA
HETATM   13  C4  UNL     1      23.654   1.743  51.255  1.00  0.00     0.075 A 
HETATM   14  C3  UNL     1      24.073   0.738  52.090  1.00  0.00     0.072 A 
HETATM   15  C20 UNL     1      24.278   2.949  51.392  1.00  0.00     0.042 A 
HETATM   16  C2  UNL     1      25.071   0.884  53.038  1.00  0.00     0.103 A 
HETATM   17  C22 UNL     1      25.683   2.127  53.148  1.00  0.00     0.102 A 
HETATM   18  C21 UNL     1      25.265   3.139  52.311  1.00  0.00     0.057 A 
BRANCH  16  19
HETATM   19  O1  UNL     1      25.441  -0.197  53.854  1.00  0.00    -0.353 OA
HETATM   20  C1  UNL     1      26.312  -1.134  53.271  1.00  0.00     0.210 C 
ENDBRANCH  16  19
BRANCH  17  21
HETATM   21  O4  UNL     1      26.667   2.206  54.109  1.00  0.00    -0.353 OA
HETATM   22  C23 UNL     1      28.015   2.244  53.707  1.00  0.00     0.210 C 
ENDBRANCH  17  21
ENDBRANCH   7   9
ENDBRANCH   1   7
BRANCH   4  23
HETATM   23  N4  UNL     1      29.055   6.408  47.471  1.00  0.00    -0.309 N 
HETATM   24  C12 UNL     1      30.352   6.154  47.993  1.00  0.00     0.326 C 
HETATM   25  O2  UNL     1      30.349   5.687  49.157  1.00  0.00    -0.247 OA
HETATM   26  N5  UNL     1      31.584   6.380  47.330  1.00  0.00    -0.289 N 
HETATM   27  H12 UNL     1      31.389   6.768  46.382  1.00  0.00     0.172 HD
HETATM   28  H11 UNL     1      29.012   6.806  46.484  1.00  0.00     0.170 HD
BRANCH  26  29
HETATM   29  C13 UNL     1      32.888   6.151  47.792  1.00  0.00     0.146 A 
HETATM   30  C14 UNL     1      33.766   7.009  48.228  1.00  0.00     0.056 A 
HETATM   31  C15 UNL     1      35.103   6.712  48.694  1.00  0.00     0.002 A 
HETATM   32  C16 UNL     1      35.452   5.455  48.668  1.00  0.00    -0.000 A 
HETATM   33  C17 UNL     1      34.571   4.385  48.205  1.00  0.00     0.204 A 
HETATM   34  O3  UNL     1      33.310   4.840  47.787  1.00  0.00    -0.332 OA
ENDBRANCH  26  29
ENDBRANCH   4  23
TORSDOF 6
ENDMDL
MODEL 2
REMARK VINA RESULT:      -8.4      2.218      3.269
REMARK  6 active torsions:
REMARK  status: ('A' for Active; 'I' for Inactive)
REMARK    1  A    between atoms: O1_2  and  C2_3 
REMARK    2  A    between atoms: C6_9  and  N3_10 
REMARK    3  A    between atoms: N3_10  and  C8_12 
REMARK    4  A    between atoms: C11_15  and  N4_16 
REMARK       I    between atoms: N4_16  and  C12_17 
REMARK       I    between atoms: C12_17  and  N5_19 
REMARK    5  A    between atoms: N5_19  and  C13_20 
REMARK    6  A    between atoms: C22_30  and  O4_31 
ROOT
HETATM    1  C8  UNL     1      23.622   3.649  49.282  1.00  0.00     0.035 A 
HETATM    2  C9  UNL     1      23.686   4.895  48.692  1.00  0.00     0.032 A 
HETATM    3  C10 UNL     1      24.782   5.732  48.730  1.00  0.00     0.032 A 
HETATM    4  C11 UNL     1      25.900   5.289  49.409  1.00  0.00     0.036 A 
HETATM    5  C18 UNL     1      25.926   4.048  50.032  1.00  0.00     0.032 A 
HETATM    6  C19 UNL     1      24.775   3.283  49.937  1.00  0.00     0.032 A 
ENDROOT
BRANCH   1   7
HETATM    7  N3  UNL     1      22.485   2.812  49.227  1.00  0.00    -0.335 N 
HETATM    8  C7  UNL     1      22.330   1.942  48.073  1.00  0.00     0.158 C 
BRANCH   7   9
HETATM    9  C6  UNL     1      21.546   2.855  50.298  1.00  0.00     0.144 A 
HETATM   10  N2  UNL     1      20.559   3.753  50.152  1.00  0.00    -0.223 NA
HETATM   11  C5  UNL     1      19.638   3.854  51.115  1.00  0.00     0.236 A 
HETATM   12  N1  UNL     1      19.648   3.098  52.229  1.00  0.00    -0.241 NA
HETATM   13  C4  UNL     1      20.614   2.196  52.404  1.00  0.00     0.075 A 
HETATM   14  C3  UNL     1      20.735   1.367  53.491  1.00  0.00     0.072 A 
HETATM   15  C20 UNL     1      21.567   2.074  51.434  1.00  0.00     0.042 A 
HETATM   16  C2  UNL     1      21.749   0.438  53.647  1.00  0.00     0.103 A 
HETATM   17  C22 UNL     1      22.702   0.343  52.638  1.00  0.00     0.102 A 
HETATM   18  C21 UNL     1      22.583   1.173  51.545  1.00  0.00     0.057 A 
BRANCH  16  19
HETATM   19  O1  UNL     1      21.801  -0.373  54.792  1.00  0.00    -0.353 OA
HETATM   20  C1  UNL     1      21.205  -1.640  54.670  1.00  0.00     0.210 C 
ENDBRANCH  16  19
BRANCH  17  21
HETATM   21  O4  UNL     1      23.683  -0.600  52.855  1.00  0.00    -0.353 OA
HETATM   22  C23 UNL     1      24.966  -0.175  53.245  1.00  0.00     0.210 C 
ENDBRANCH  17  21
ENDBRANCH   7   9
ENDBRANCH   1   7
BRANCH   4  23
HETATM   23  N4  UNL     1      27.044   6.139  49.460  1.00  0.00    -0.309 N 
HETATM   24  C12 UNL     1      28.236   5.737  48.799  1.00  0.00     0.326 C 
HETATM   25  O2  UNL     1      28.147   4.629  48.220  1.00  0.00    -0.247 OA
HETATM   26  N5  UNL     1      29.455   6.458  48.751  1.00  0.00    -0.289 N 
HETATM   27  H12 UNL     1      29.341   7.347  49.285  1.00  0.00     0.172 HD
HETATM   28  H11 UNL     1      27.077   7.076  49.965  1.00  0.00     0.170 HD
BRANCH  26  29
HETATM   29  C13 UNL     1      30.659   6.114  48.119  1.00  0.00     0.146 A 
HETATM   30  C14 UNL     1      31.231   6.666  47.087  1.00  0.00     0.056 A 
HETATM   31  C15 UNL     1      32.479   6.265  46.476  1.00  0.00     0.002 A 
HETATM   32  C16 UNL     1      33.083   5.246  47.024  1.00  0.00    -0.000 A 
HETATM   33  C17 UNL     1      32.559   4.530  48.186  1.00  0.00     0.204 A 
HETATM   34  O3  UNL     1      31.339   5.044  48.656  1.00  0.00    -0.332 OA
ENDBRANCH  26  29
ENDBRANCH   4  23
TORSDOF 6
ENDMDL
MODEL 3
REMARK VINA RESULT:      -8.2      3.980      4.928
REMARK  6 active torsions:
REMARK  status: ('A' for Active; 'I' for Inactive)
REMARK    1  A    between atoms: O1_2  and  C2_3 
REMARK    2  A    between atoms: C6_9  and  N3_10 
REMARK    3  A    between atoms: N3_10  and  C8_12 
REMARK    4  A    between atoms: C11_15  and  N4_16 
REMARK       I    between atoms: N4_16  and  C12_17 
REMARK       I    between atoms: C12_17  and  N5_19 
REMARK    5  A    between atoms: N5_19  and  C13_20 
REMARK    6  A    between atoms: C22_30  and  O4_31 
ROOT
HETATM    1  C8  UNL     1      23.306   5.143  49.714  1.00  0.00     0.035 A 
HETATM    2  C9  UNL     1      24.623   4.957  49.344  1.00  0.00     0.032 A 
HETATM    3  C10 UNL     1      25.662   5.806  49.667  1.00  0.00     0.032 A 
HETATM    4  C11 UNL     1      25.361   6.926  50.417  1.00  0.00     0.036 A 
HETATM    5  C18 UNL     1      24.064   7.193  50.834  1.00  0.00     0.032 A 
HETATM    6  C19 UNL     1      23.092   6.280  50.458  1.00  0.00     0.032 A 
ENDROOT
BRANCH   1   7
HETATM    7  N3  UNL     1      22.261   4.256  49.369  1.00  0.00    -0.335 N 
HETATM    8  C7  UNL     1      22.114   3.881  47.972  1.00  0.00     0.158 C 
BRANCH   7   9
HETATM    9  C6  UNL     1      21.403   3.770  50.397  1.00  0.00     0.144 A 
HETATM   10  N2  UNL     1      20.198   4.360  50.456  1.00  0.00    -0.223 NA
HETATM   11  C5  UNL     1      19.335   3.959  51.394  1.00  0.00     0.236 A 
HETATM   12  N1  UNL     1      19.612   2.990  52.287  1.00  0.00    -0.241 NA
HETATM   13  C4  UNL     1      20.798   2.385  52.255  1.00  0.00     0.075 A 
HETATM   14  C3  UNL     1      21.201   1.387  53.106  1.00  0.00     0.072 A 
HETATM   15  C20 UNL     1      21.698   2.776  51.305  1.00  0.00     0.042 A 
HETATM   16  C2  UNL     1      22.441   0.774  53.050  1.00  0.00     0.103 A 
HETATM   17  C22 UNL     1      23.330   1.200  52.070  1.00  0.00     0.102 A 
HETATM   18  C21 UNL     1      22.930   2.202  51.213  1.00  0.00     0.057 A 
BRANCH  16  19
HETATM   19  O1  UNL     1      22.775  -0.241  53.961  1.00  0.00    -0.353 OA
HETATM   20  C1  UNL     1      21.739  -0.664  54.812  1.00  0.00     0.210 C 
ENDBRANCH  16  19
BRANCH  17  21
HETATM   21  O4  UNL     1      24.546   0.551  52.069  1.00  0.00    -0.353 OA
HETATM   22  C23 UNL     1      25.709   1.275  52.390  1.00  0.00     0.210 C 
ENDBRANCH  17  21
ENDBRANCH   7   9
ENDBRANCH   1   7
BRANCH   4  23
HETATM   23  N4  UNL     1      26.421   7.816  50.761  1.00  0.00    -0.309 N 
HETATM   24  C12 UNL     1      26.833   8.799  49.822  1.00  0.00     0.326 C 
HETATM   25  O2  UNL     1      26.191   8.774  48.745  1.00  0.00    -0.247 OA
HETATM   26  N5  UNL     1      27.863   9.756  50.003  1.00  0.00    -0.289 N 
HETATM   27  H12 UNL     1      28.280   9.625  50.949  1.00  0.00     0.172 HD
HETATM   28  H11 UNL     1      26.941   7.802  51.690  1.00  0.00     0.170 HD
BRANCH  26  29
HETATM   29  C13 UNL     1      28.312  10.745  49.117  1.00  0.00     0.146 A 
HETATM   30  C14 UNL     1      29.140  10.636  48.116  1.00  0.00     0.056 A 
HETATM   31  C15 UNL     1      29.569  11.698  47.233  1.00  0.00     0.002 A 
HETATM   32  C16 UNL     1      29.069  12.879  47.473  1.00  0.00    -0.000 A 
HETATM   33  C17 UNL     1      28.129  13.149  48.560  1.00  0.00     0.204 A 
HETATM   34  O3  UNL     1      27.816  12.013  49.324  1.00  0.00    -0.332 OA
ENDBRANCH  26  29
ENDBRANCH   4  23
TORSDOF 6
ENDMDL
MODEL 4
REMARK VINA RESULT:      -8.0      1.980      8.913
REMARK  6 active torsions:
REMARK  status: ('A' for Active; 'I' for Inactive)
REMARK    1  A    between atoms: O1_2  and  C2_3 
REMARK    2  A    between atoms: C6_9  and  N3_10 
REMARK    3  A    between atoms: N3_10  and  C8_12 
REMARK    4  A    between atoms: C11_15  and  N4_16 
REMARK       I    between atoms: N4_16  and  C12_17 
REMARK       I    between atoms: C12_17  and  N5_19 
REMARK    5  A    between atoms: N5_19  and  C13_20 
REMARK    6  A    between atoms: C22_30  and  O4_31 
ROOT
HETATM    1  C8  UNL     1      27.563   6.872  48.159  1.00  0.00     0.035 A 
HETATM    2  C9  UNL     1      27.938   5.547  48.246  1.00  0.00     0.032 A 
HETATM    3  C10 UNL     1      27.206   4.557  48.868  1.00  0.00     0.032 A 
HETATM    4  C11 UNL     1      26.006   4.920  49.449  1.00  0.00     0.036 A 
HETATM    5  C18 UNL     1      25.549   6.231  49.410  1.00  0.00     0.032 A 
HETATM    6  C19 UNL     1      26.357   7.150  48.761  1.00  0.00     0.032 A 
ENDROOT
BRANCH   1   7
HETATM    7  N3  UNL     1      28.333   7.866  47.515  1.00  0.00    -0.335 N 
HETATM    8  C7  UNL     1      27.900   8.327  46.206  1.00  0.00     0.158 C 
BRANCH   7   9
HETATM    9  C6  UNL     1      29.494   8.371  48.170  1.00  0.00     0.144 A 
HETATM   10  N2  UNL     1      29.282   9.441  48.954  1.00  0.00    -0.223 NA
HETATM   11  C5  UNL     1      30.320   9.974  49.603  1.00  0.00     0.236 A 
HETATM   12  N1  UNL     1      31.574   9.492  49.512  1.00  0.00    -0.241 NA
HETATM   13  C4  UNL     1      31.818   8.432  48.743  1.00  0.00     0.075 A 
HETATM   14  C3  UNL     1      33.047   7.848  48.566  1.00  0.00     0.072 A 
HETATM   15  C20 UNL     1      30.773   7.868  48.069  1.00  0.00     0.042 A 
HETATM   16  C2  UNL     1      33.272   6.745  47.760  1.00  0.00     0.103 A 
HETATM   17  C22 UNL     1      32.183   6.200  47.089  1.00  0.00     0.102 A 
HETATM   18  C21 UNL     1      30.948   6.783  47.264  1.00  0.00     0.057 A 
BRANCH  16  19
HETATM   19  O1  UNL     1      34.564   6.208  47.634  1.00  0.00    -0.353 OA
HETATM   20  C1  UNL     1      35.493   6.615  48.607  1.00  0.00     0.210 C 
ENDBRANCH  16  19
BRANCH  17  21
HETATM   21  O4  UNL     1      32.475   5.105  46.305  1.00  0.00    -0.353 OA
HETATM   22  C23 UNL     1      32.180   3.818  46.790  1.00  0.00     0.210 C 
ENDBRANCH  17  21
ENDBRANCH   7   9
ENDBRANCH   1   7
BRANCH   4  23
HETATM   23  N4  UNL     1      25.234   3.911  50.097  1.00  0.00    -0.309 N 
HETATM   24  C12 UNL     1      25.894   2.945  50.903  1.00  0.00     0.326 C 
HETATM   25  O2  UNL     1      27.138   3.090  50.955  1.00  0.00    -0.247 OA
HETATM   26  N5  UNL     1      25.281   1.882  51.612  1.00  0.00    -0.289 N 
HETATM   27  H12 UNL     1      24.251   1.919  51.450  1.00  0.00     0.172 HD
HETATM   28  H11 UNL     1      24.175   3.824  50.025  1.00  0.00     0.170 HD
BRANCH  26  29
HETATM   29  C13 UNL     1      25.876   0.901  52.418  1.00  0.00     0.146 A 
HETATM   30  C14 UNL     1      26.434  -0.222  52.066  1.00  0.00     0.056 A 
HETATM   31  C15 UNL     1      27.035  -1.200  52.948  1.00  0.00     0.002 A 
HETATM   32  C16 UNL     1      27.008  -0.915  54.221  1.00  0.00    -0.000 A 
HETATM   33  C17 UNL     1      26.417   0.309  54.759  1.00  0.00     0.204 A 
HETATM   34  O3  UNL     1      25.876   1.150  53.773  1.00  0.00    -0.332 OA
ENDBRANCH  26  29
ENDBRANCH   4  23
TORSDOF 6
ENDMDL
MODEL 5
REMARK VINA RESULT:      -7.8      4.044      5.261
REMARK  6 active torsions:
REMARK  status: ('A' for Active; 'I' for Inactive)
REMARK    1  A    between atoms: O1_2  and  C2_3 
REMARK    2  A    between atoms: C6_9  and  N3_10 
REMARK    3  A    between atoms: N3_10  and  C8_12 
REMARK    4  A    between atoms: C11_15  and  N4_16 
REMARK       I    between atoms: N4_16  and  C12_17 
REMARK       I    between atoms: C12_17  and  N5_19 
REMARK    5  A    between atoms: N5_19  and  C13_20 
REMARK    6  A    between atoms: C22_30  and  O4_31 
ROOT
HETATM    1  C8  UNL     1      22.875   3.126  50.688  1.00  0.00     0.035 A 
HETATM    2  C9  UNL     1      22.271   4.189  51.328  1.00  0.00     0.032 A 
HETATM    3  C10 UNL     1      22.888   5.386  51.629  1.00  0.00     0.032 A 
HETATM    4  C11 UNL     1      24.212   5.531  51.262  1.00  0.00     0.036 A 
HETATM    5  C18 UNL     1      24.900   4.514  50.614  1.00  0.00     0.032 A 
HETATM    6  C19 UNL     1      24.191   3.351  50.357  1.00  0.00     0.032 A 
ENDROOT
BRANCH   1   7
HETATM    7  N3  UNL     1      22.218   1.911  50.392  1.00  0.00    -0.335 N 
HETATM    8  C7  UNL     1      22.051   1.545  48.995  1.00  0.00     0.158 C 
BRANCH   7   9
HETATM    9  C6  UNL     1      21.750   1.101  51.467  1.00  0.00     0.144 A 
HETATM   10  N2  UNL     1      20.417   0.960  51.533  1.00  0.00    -0.223 NA
HETATM   11  C5  UNL     1      19.900   0.215  52.514  1.00  0.00     0.236 A 
HETATM   12  N1  UNL     1      20.650  -0.406  53.443  1.00  0.00    -0.241 NA
HETATM   13  C4  UNL     1      21.977  -0.287  53.405  1.00  0.00     0.075 A 
HETATM   14  C3  UNL     1      22.850  -0.868  54.291  1.00  0.00     0.072 A 
HETATM   15  C20 UNL     1      22.530   0.469  52.413  1.00  0.00     0.042 A 
HETATM   16  C2  UNL     1      24.225  -0.728  54.228  1.00  0.00     0.103 A 
HETATM   17  C22 UNL     1      24.751   0.051  53.204  1.00  0.00     0.102 A 
HETATM   18  C21 UNL     1      23.878   0.635  52.312  1.00  0.00     0.057 A 
BRANCH  16  19
HETATM   19  O1  UNL     1      25.049  -1.357  55.176  1.00  0.00    -0.353 OA
HETATM   20  C1  UNL     1      25.094  -0.751  56.444  1.00  0.00     0.210 C 
ENDBRANCH  16  19
BRANCH  17  21
HETATM   21  O4  UNL     1      26.125   0.150  53.198  1.00  0.00    -0.353 OA
HETATM   22  C23 UNL     1      26.853  -0.497  52.182  1.00  0.00     0.210 C 
ENDBRANCH  17  21
ENDBRANCH   7   9
ENDBRANCH   1   7
BRANCH   4  23
HETATM   23  N4  UNL     1      24.869   6.760  51.564  1.00  0.00    -0.309 N 
HETATM   24  C12 UNL     1      25.499   7.484  50.517  1.00  0.00     0.326 C 
HETATM   25  O2  UNL     1      25.406   6.937  49.393  1.00  0.00    -0.247 OA
HETATM   26  N5  UNL     1      26.192   8.714  50.644  1.00  0.00    -0.289 N 
HETATM   27  H12 UNL     1      26.167   9.012  51.643  1.00  0.00     0.172 HD
HETATM   28  H11 UNL     1      24.925   7.190  52.537  1.00  0.00     0.170 HD
BRANCH  26  29
HETATM   29  C13 UNL     1      26.832   9.471  49.652  1.00  0.00     0.146 A 
HETATM   30  C14 UNL     1      28.005   9.294  49.114  1.00  0.00     0.056 A 
HETATM   31  C15 UNL     1      28.616  10.113  48.089  1.00  0.00     0.002 A 
HETATM   32  C16 UNL     1      27.910  11.128  47.672  1.00  0.00    -0.000 A 
HETATM   33  C17 UNL     1      26.580  11.448  48.186  1.00  0.00     0.204 A 
HETATM   34  O3  UNL     1      26.132  10.557  49.175  1.00  0.00    -0.332 OA
ENDBRANCH  26  29
ENDBRANCH   4  23
TORSDOF 6
ENDMDL
MODEL 6
REMARK VINA RESULT:      -7.8      7.303     10.449
REMARK  6 active torsions:
REMARK  status: ('A' for Active; 'I' for Inactive)
REMARK    1  A    between atoms: O1_2  and  C2_3 
REMARK    2  A    between atoms: C6_9  and  N3_10 
REMARK    3  A    between atoms: N3_10  and  C8_12 
REMARK    4  A    between atoms: C11_15  and  N4_16 
REMARK       I    between atoms: N4_16  and  C12_17 
REMARK       I    between atoms: C12_17  and  N5_19 
REMARK    5  A    between atoms: N5_19  and  C13_20 
REMARK    6  A    between atoms: C22_30  and  O4_31 
ROOT
HETATM    1  C8  UNL     1      18.998   1.236  51.906  1.00  0.00     0.035 A 
HETATM    2  C9  UNL     1      19.943   2.020  52.537  1.00  0.00     0.032 A 
HETATM    3  C10 UNL     1      20.959   1.542  53.339  1.00  0.00     0.032 A 
HETATM    4  C11 UNL     1      21.038   0.176  53.523  1.00  0.00     0.036 A 
HETATM    5  C18 UNL     1      20.131  -0.690  52.926  1.00  0.00     0.032 A 
HETATM    6  C19 UNL     1      19.147  -0.112  52.140  1.00  0.00     0.032 A 
ENDROOT
BRANCH   1   7
HETATM    7  N3  UNL     1      17.967   1.752  51.090  1.00  0.00    -0.335 N 
HETATM    8  C7  UNL     1      18.088   1.593  49.650  1.00  0.00     0.158 C 
BRANCH   7   9
HETATM    9  C6  UNL     1      16.859   2.401  51.708  1.00  0.00     0.144 A 
HETATM   10  N2  UNL     1      16.958   3.737  51.792  1.00  0.00    -0.223 NA
HETATM   11  C5  UNL     1      15.959   4.419  52.358  1.00  0.00     0.236 A 
HETATM   12  N1  UNL     1      14.852   3.832  52.853  1.00  0.00    -0.241 NA
HETATM   13  C4  UNL     1      14.723   2.508  52.785  1.00  0.00     0.075 A 
HETATM   14  C3  UNL     1      13.648   1.793  53.251  1.00  0.00     0.072 A 
HETATM   15  C20 UNL     1      15.730   1.789  52.210  1.00  0.00     0.042 A 
HETATM   16  C2  UNL     1      13.539   0.415  53.167  1.00  0.00     0.103 A 
HETATM   17  C22 UNL     1      14.586  -0.282  52.576  1.00  0.00     0.102 A 
HETATM   18  C21 UNL     1      15.666   0.432  52.106  1.00  0.00     0.057 A 
BRANCH  16  19
HETATM   19  O1  UNL     1      12.403  -0.240  53.669  1.00  0.00    -0.353 OA
HETATM   20  C1  UNL     1      11.894   0.261  54.880  1.00  0.00     0.210 C 
ENDBRANCH  16  19
BRANCH  17  21
HETATM   21  O4  UNL     1      14.415  -1.649  52.524  1.00  0.00    -0.353 OA
HETATM   22  C23 UNL     1      14.797  -2.342  51.362  1.00  0.00     0.210 C 
ENDBRANCH  17  21
ENDBRANCH   7   9
ENDBRANCH   1   7
BRANCH   4  23
HETATM   23  N4  UNL     1      22.082  -0.339  54.348  1.00  0.00    -0.309 N 
HETATM   24  C12 UNL     1      23.423  -0.286  53.881  1.00  0.00     0.326 C 
HETATM   25  O2  UNL     1      23.546   0.227  52.744  1.00  0.00    -0.247 OA
HETATM   26  N5  UNL     1      24.571  -0.750  54.570  1.00  0.00    -0.289 N 
HETATM   27  H12 UNL     1      24.276  -1.143  55.490  1.00  0.00     0.172 HD
HETATM   28  H11 UNL     1      21.932  -0.769  55.310  1.00  0.00     0.170 HD
BRANCH  26  29
HETATM   29  C13 UNL     1      25.913  -0.726  54.163  1.00  0.00     0.146 A 
HETATM   30  C14 UNL     1      26.454  -1.234  53.092  1.00  0.00     0.056 A 
HETATM   31  C15 UNL     1      27.852  -1.178  52.723  1.00  0.00     0.002 A 
HETATM   32  C16 UNL     1      28.638  -0.553  53.555  1.00  0.00    -0.000 A 
HETATM   33  C17 UNL     1      28.170   0.066  54.794  1.00  0.00     0.204 A 
HETATM   34  O3  UNL     1      26.789  -0.079  55.005  1.00  0.00    -0.332 OA
ENDBRANCH  26  29
ENDBRANCH   4  23
TORSDOF 6
ENDMDL
MODEL 7
REMARK VINA RESULT:      -7.5      5.862     11.891
REMARK  6 active torsions:
REMARK  status: ('A' for Active; 'I' for Inactive)
REMARK    1  A    between atoms: O1_2  and  C2_3 
REMARK    2  A    between atoms: C6_9  and  N3_10 
REMARK    3  A    between atoms: N3_10  and  C8_12 
REMARK    4  A    between atoms: C11_15  and  N4_16 
REMARK       I    between atoms: N4_16  and  C12_17 
REMARK       I    between atoms: C12_17  and  N5_19 
REMARK    5  A    between atoms: N5_19  and  C13_20 
REMARK    6  A    between atoms: C22_30  and  O4_31 
ROOT
HETATM    1  C8  UNL     1      20.454   2.751  49.944  1.00  0.00     0.035 A 
HETATM    2  C9  UNL     1      20.267   3.339  51.178  1.00  0.00     0.032 A 
HETATM    3  C10 UNL     1      19.106   3.960  51.591  1.00  0.00     0.032 A 
HETATM    4  C11 UNL     1      18.051   3.996  50.701  1.00  0.00     0.036 A 
HETATM    5  C18 UNL     1      18.149   3.429  49.437  1.00  0.00     0.032 A 
HETATM    6  C19 UNL     1      19.356   2.829  49.118  1.00  0.00     0.032 A 
ENDROOT
BRANCH   1   7
HETATM    7  N3  UNL     1      21.655   2.121  49.548  1.00  0.00    -0.335 N 
HETATM    8  C7  UNL     1      21.565   0.967  48.668  1.00  0.00     0.158 C 
BRANCH   7   9
HETATM    9  C6  UNL     1      22.894   2.640  50.022  1.00  0.00     0.144 A 
HETATM   10  N2  UNL     1      23.353   3.711  49.355  1.00  0.00    -0.223 NA
HETATM   11  C5  UNL     1      24.510   4.257  49.739  1.00  0.00     0.236 A 
HETATM   12  N1  UNL     1      25.244   3.787  50.766  1.00  0.00    -0.241 NA
HETATM   13  C4  UNL     1      24.816   2.725  51.448  1.00  0.00     0.075 A 
HETATM   14  C3  UNL     1      25.469   2.152  52.511  1.00  0.00     0.072 A 
HETATM   15  C20 UNL     1      23.636   2.150  51.075  1.00  0.00     0.042 A 
HETATM   16  C2  UNL     1      25.001   1.048  53.203  1.00  0.00     0.103 A 
HETATM   17  C22 UNL     1      23.796   0.489  52.793  1.00  0.00     0.102 A 
HETATM   18  C21 UNL     1      23.138   1.062  51.727  1.00  0.00     0.057 A 
BRANCH  16  19
HETATM   19  O1  UNL     1      25.732   0.522  54.280  1.00  0.00    -0.353 OA
HETATM   20  C1  UNL     1      27.119   0.745  54.245  1.00  0.00     0.210 C 
ENDBRANCH  16  19
BRANCH  17  21
HETATM   21  O4  UNL     1      23.388  -0.606  53.523  1.00  0.00    -0.353 OA
HETATM   22  C23 UNL     1      22.039  -1.001  53.466  1.00  0.00     0.210 C 
ENDBRANCH  17  21
ENDBRANCH   7   9
ENDBRANCH   1   7
BRANCH   4  23
HETATM   23  N4  UNL     1      16.841   4.633  51.108  1.00  0.00    -0.309 N 
HETATM   24  C12 UNL     1      15.915   3.913  51.909  1.00  0.00     0.326 C 
HETATM   25  O2  UNL     1      16.278   2.745  52.180  1.00  0.00    -0.247 OA
HETATM   26  N5  UNL     1      14.674   4.395  52.397  1.00  0.00    -0.289 N 
HETATM   27  H12 UNL     1      14.543   5.377  52.071  1.00  0.00     0.172 HD
HETATM   28  H11 UNL     1      16.571   5.631  50.853  1.00  0.00     0.170 HD
BRANCH  26  29
HETATM   29  C13 UNL     1      13.722   3.735  53.187  1.00  0.00     0.146 A 
HETATM   30  C14 UNL     1      12.845   4.239  54.008  1.00  0.00     0.056 A 
HETATM   31  C15 UNL     1      11.884   3.504  54.800  1.00  0.00     0.002 A 
HETATM   32  C16 UNL     1      11.907   2.206  54.670  1.00  0.00    -0.000 A 
HETATM   33  C17 UNL     1      12.835   1.503  53.786  1.00  0.00     0.204 A 
HETATM   34  O3  UNL     1      13.702   2.361  53.089  1.00  0.00    -0.332 OA
ENDBRANCH  26  29
ENDBRANCH   4  23
TORSDOF 6
ENDMDL
MODEL 8
REMARK VINA RESULT:      -7.5      2.550      8.456
REMARK  6 active torsions:
REMARK  status: ('A' for Active; 'I' for Inactive)
REMARK    1  A    between atoms: O1_2  and  C2_3 
REMARK    2  A    between atoms: C6_9  and  N3_10 
REMARK    3  A    between atoms: N3_10  and  C8_12 
REMARK    4  A    between atoms: C11_15  and  N4_16 
REMARK       I    between atoms: N4_16  and  C12_17 
REMARK       I    between atoms: C12_17  and  N5_19 
REMARK    5  A    between atoms: N5_19  and  C13_20 
REMARK    6  A    between atoms: C22_30  and  O4_31 
ROOT
HETATM    1  C8  UNL     1      26.186   6.949  49.226  1.00  0.00     0.035 A 
HETATM    2  C9  UNL     1      26.765   5.757  48.841  1.00  0.00     0.032 A 
HETATM    3  C10 UNL     1      26.412   4.514  49.325  1.00  0.00     0.032 A 
HETATM    4  C11 UNL     1      25.404   4.459  50.267  1.00  0.00     0.036 A 
HETATM    5  C18 UNL     1      24.764   5.608  50.713  1.00  0.00     0.032 A 
HETATM    6  C19 UNL     1      25.190   6.807  50.165  1.00  0.00     0.032 A 
ENDROOT
BRANCH   1   7
HETATM    7  N3  UNL     1      26.567   8.209  48.712  1.00  0.00    -0.335 N 
HETATM    8  C7  UNL     1      26.481   9.362  49.593  1.00  0.00     0.158 C 
BRANCH   7   9
HETATM    9  C6  UNL     1      27.017   8.296  47.363  1.00  0.00     0.144 A 
HETATM   10  N2  UNL     1      26.044   8.437  46.448  1.00  0.00    -0.223 NA
HETATM   11  C5  UNL     1      26.385   8.526  45.160  1.00  0.00     0.236 A 
HETATM   12  N1  UNL     1      27.660   8.481  44.729  1.00  0.00    -0.241 NA
HETATM   13  C4  UNL     1      28.649   8.342  45.611  1.00  0.00     0.075 A 
HETATM   14  C3  UNL     1      29.985   8.283  45.300  1.00  0.00     0.072 A 
HETATM   15  C20 UNL     1      28.326   8.250  46.934  1.00  0.00     0.042 A 
HETATM   16  C2  UNL     1      30.992   8.138  46.238  1.00  0.00     0.103 A 
HETATM   17  C22 UNL     1      30.624   8.046  47.576  1.00  0.00     0.102 A 
HETATM   18  C21 UNL     1      29.285   8.106  47.892  1.00  0.00     0.057 A 
BRANCH  16  19
HETATM   19  O1  UNL     1      32.337   8.086  45.836  1.00  0.00    -0.353 OA
HETATM   20  C1  UNL     1      32.939   9.325  45.558  1.00  0.00     0.210 C 
ENDBRANCH  16  19
BRANCH  17  21
HETATM   21  O4  UNL     1      31.674   7.904  48.457  1.00  0.00    -0.353 OA
HETATM   22  C23 UNL     1      31.687   6.803  49.333  1.00  0.00     0.210 C 
ENDBRANCH  17  21
ENDBRANCH   7   9
ENDBRANCH   1   7
BRANCH   4  23
HETATM   23  N4  UNL     1      25.024   3.184  50.781  1.00  0.00    -0.309 N 
HETATM   24  C12 UNL     1      26.028   2.315  51.289  1.00  0.00     0.326 C 
HETATM   25  O2  UNL     1      27.187   2.786  51.225  1.00  0.00    -0.247 OA
HETATM   26  N5  UNL     1      25.824   1.023  51.832  1.00  0.00    -0.289 N 
HETATM   27  H12 UNL     1      24.805   0.802  51.802  1.00  0.00     0.172 HD
HETATM   28  H11 UNL     1      24.023   2.822  50.815  1.00  0.00     0.170 HD
BRANCH  26  29
HETATM   29  C13 UNL     1      26.769   0.123  52.346  1.00  0.00     0.146 A 
HETATM   30  C14 UNL     1      26.792  -1.177  52.268  1.00  0.00     0.056 A 
HETATM   31  C15 UNL     1      27.798  -2.057  52.820  1.00  0.00     0.002 A 
HETATM   32  C16 UNL     1      28.776  -1.476  53.460  1.00  0.00    -0.000 A 
HETATM   33  C17 UNL     1      28.881  -0.028  53.626  1.00  0.00     0.204 A 
HETATM   34  O3  UNL     1      27.824   0.682  53.032  1.00  0.00    -0.332 OA
ENDBRANCH  26  29
ENDBRANCH   4  23
TORSDOF 6
ENDMDL
MODEL 9
REMARK VINA RESULT:      -7.4      2.440      9.451
REMARK  6 active torsions:
REMARK  status: ('A' for Active; 'I' for Inactive)
REMARK    1  A    between atoms: O1_2  and  C2_3 
REMARK    2  A    between atoms: C6_9  and  N3_10 
REMARK    3  A    between atoms: N3_10  and  C8_12 
REMARK    4  A    between atoms: C11_15  and  N4_16 
REMARK       I    between atoms: N4_16  and  C12_17 
REMARK       I    between atoms: C12_17  and  N5_19 
REMARK    5  A    between atoms: N5_19  and  C13_20 
REMARK    6  A    between atoms: C22_30  and  O4_31 
ROOT
HETATM    1  C8  UNL     1      27.760   8.319  47.920  1.00  0.00     0.035 A 
HETATM    2  C9  UNL     1      27.739   8.976  49.133  1.00  0.00     0.032 A 
HETATM    3  C10 UNL     1      26.890   8.679  50.179  1.00  0.00     0.032 A 
HETATM    4  C11 UNL     1      25.993   7.644  49.998  1.00  0.00     0.036 A 
HETATM    5  C18 UNL     1      25.943   6.926  48.811  1.00  0.00     0.032 A 
HETATM    6  C19 UNL     1      26.837   7.302  47.821  1.00  0.00     0.032 A 
ENDROOT
BRANCH   1   7
HETATM    7  N3  UNL     1      28.641   8.644  46.865  1.00  0.00    -0.335 N 
HETATM    8  C7  UNL     1      28.167   8.479  45.501  1.00  0.00     0.158 C 
BRANCH   7   9
HETATM    9  C6  UNL     1      29.948   9.120  47.180  1.00  0.00     0.144 A 
HETATM   10  N2  UNL     1      30.121  10.442  47.031  1.00  0.00    -0.223 NA
HETATM   11  C5  UNL     1      31.319  10.966  47.307  1.00  0.00     0.236 A 
HETATM   12  N1  UNL     1      32.366  10.232  47.729  1.00  0.00    -0.241 NA
HETATM   13  C4  UNL     1      32.226   8.916  47.887  1.00  0.00     0.075 A 
HETATM   14  C3  UNL     1      33.213   8.060  48.310  1.00  0.00     0.072 A 
HETATM   15  C20 UNL     1      31.011   8.357  47.612  1.00  0.00     0.042 A 
HETATM   16  C2  UNL     1      33.040   6.696  48.466  1.00  0.00     0.103 A 
HETATM   17  C22 UNL     1      31.789   6.164  48.175  1.00  0.00     0.102 A 
HETATM   18  C21 UNL     1      30.796   7.019  47.752  1.00  0.00     0.057 A 
BRANCH  16  19
HETATM   19  O1  UNL     1      34.103   5.890  48.904  1.00  0.00    -0.353 OA
HETATM   20  C1  UNL     1      35.392   6.403  48.677  1.00  0.00     0.210 C 
ENDBRANCH  16  19
BRANCH  17  21
HETATM   21  O4  UNL     1      31.684   4.801  48.352  1.00  0.00    -0.353 OA
HETATM   22  C23 UNL     1      31.750   3.959  47.227  1.00  0.00     0.210 C 
ENDBRANCH  17  21
ENDBRANCH   7   9
ENDBRANCH   1   7
BRANCH   4  23
HETATM   23  N4  UNL     1      25.106   7.320  51.068  1.00  0.00    -0.309 N 
HETATM   24  C12 UNL     1      24.629   5.988  51.193  1.00  0.00     0.326 C 
HETATM   25  O2  UNL     1      25.057   5.210  50.309  1.00  0.00    -0.247 OA
HETATM   26  N5  UNL     1      23.748   5.501  52.190  1.00  0.00    -0.289 N 
HETATM   27  H12 UNL     1      23.500   6.285  52.832  1.00  0.00     0.172 HD
HETATM   28  H11 UNL     1      24.766   8.016  51.799  1.00  0.00     0.170 HD
BRANCH  26  29
HETATM   29  C13 UNL     1      23.244   4.204  52.364  1.00  0.00     0.146 A 
HETATM   30  C14 UNL     1      22.035   3.761  52.166  1.00  0.00     0.056 A 
HETATM   31  C15 UNL     1      21.571   2.405  52.363  1.00  0.00     0.002 A 
HETATM   32  C16 UNL     1      22.463   1.550  52.782  1.00  0.00    -0.000 A 
HETATM   33  C17 UNL     1      23.856   1.905  53.045  1.00  0.00     0.204 A 
HETATM   34  O3  UNL     1      24.143   3.259  52.806  1.00  0.00    -0.332 OA
ENDBRANCH  26  29
ENDBRANCH   4  23
TORSDOF 6
ENDMDL
