MODEL 1
REMARK VINA RESULT:      -9.7      0.000      0.000
REMARK  1 active torsions:
REMARK  status: ('A' for Active; 'I' for Inactive)
REMARK    1  A    between atoms: C6_6  and  N1_7 
ROOT
HETATM    1  C1  UNL     1      20.490   0.069  54.311  1.00  0.00     0.139 C 
HETATM    2  C2  UNL     1      21.730  -0.768  54.522  1.00  0.00    -0.005 C 
HETATM    3  C3  UNL     1      22.672  -0.123  53.806  1.00  0.00     0.026 C 
HETATM    4  C4  UNL     1      24.052  -0.721  53.808  1.00  0.00     0.036 C 
HETATM    5  C5  UNL     1      25.236  -0.475  53.303  1.00  0.00     0.026 C 
HETATM    6  C6  UNL     1      26.397   0.037  52.627  1.00  0.00     0.019 C 
HETATM    7  C10 UNL     1      26.811   1.012  51.869  1.00  0.00     0.044 C 
HETATM    8  C11 UNL     1      26.345   2.202  51.229  1.00  0.00     0.112 C 
HETATM    9  N3  UNL     1      26.768   3.158  50.481  1.00  0.00    -0.298 NA
HETATM   10  C12 UNL     1      25.861   4.199  50.069  1.00  0.00     0.175 C 
HETATM   11  C13 UNL     1      24.616   4.055  50.819  1.00  0.00    -0.003 C 
HETATM   12  C14 UNL     1      23.333   3.862  50.704  1.00  0.00     0.030 C 
HETATM   13  C15 UNL     1      21.985   3.688  51.171  1.00  0.00     0.077 A 
HETATM   14  C16 UNL     1      20.925   4.453  50.824  1.00  0.00     0.052 A 
HETATM   15  C17 UNL     1      19.761   4.020  51.430  1.00  0.00     0.139 A 
HETATM   16  N4  UNL     1      19.748   2.963  52.253  1.00  0.00    -0.075 NA
HETATM   17  C18 UNL     1      20.840   2.248  52.554  1.00  0.00     0.722 A 
HETATM   18  N5  UNL     1      22.015   2.643  51.975  1.00  0.00    -0.063 NA
HETATM   19  N6  UNL     1      20.665   1.162  53.432  1.00  0.00    -0.222 N 
HETATM   20  H18 UNL     1      20.916   0.549  52.613  1.00  0.00     0.177 HD
ENDROOT
BRANCH   6  21
HETATM   21  N1  UNL     1      27.427  -0.922  52.853  1.00  0.00    -0.319 N 
HETATM   22  C7  UNL     1      28.697  -0.629  53.279  1.00  0.00     0.117 A 
HETATM   23  C8  UNL     1      29.501  -1.722  53.480  1.00  0.00     0.135 A 
HETATM   24  N2  UNL     1      28.698  -2.772  53.165  1.00  0.00    -0.254 NA
HETATM   25  C9  UNL     1      27.517  -2.266  52.811  1.00  0.00     0.213 A 
ENDBRANCH   6  21
TORSDOF 1
ENDMDL
MODEL 2
REMARK VINA RESULT:      -9.1      1.312      4.237
REMARK  1 active torsions:
REMARK  status: ('A' for Active; 'I' for Inactive)
REMARK    1  A    between atoms: C6_6  and  N1_7 
ROOT
HETATM    1  C1  UNL     1      25.249   4.984  49.314  1.00  0.00     0.139 C 
HETATM    2  C2  UNL     1      26.384   4.055  49.676  1.00  0.00    -0.005 C 
HETATM    3  C3  UNL     1      25.797   3.134  50.466  1.00  0.00     0.026 C 
HETATM    4  C4  UNL     1      26.681   2.044  51.008  1.00  0.00     0.036 C 
HETATM    5  C5  UNL     1      26.585   0.979  51.765  1.00  0.00     0.026 C 
HETATM    6  C6  UNL     1      26.187  -0.112  52.613  1.00  0.00     0.019 C 
HETATM    7  C10 UNL     1      25.156  -0.640  53.210  1.00  0.00     0.044 C 
HETATM    8  C11 UNL     1      23.751  -0.446  53.388  1.00  0.00     0.112 C 
HETATM    9  N3  UNL     1      22.743  -0.978  53.983  1.00  0.00    -0.298 NA
HETATM   10  C12 UNL     1      21.439  -0.378  53.856  1.00  0.00     0.175 C 
HETATM   11  C13 UNL     1      21.501   0.659  52.829  1.00  0.00    -0.003 C 
HETATM   12  C14 UNL     1      21.334   1.931  52.605  1.00  0.00     0.030 C 
HETATM   13  C15 UNL     1      21.312   3.133  51.818  1.00  0.00     0.077 A 
HETATM   14  C16 UNL     1      20.245   3.947  51.650  1.00  0.00     0.052 A 
HETATM   15  C17 UNL     1      20.549   5.030  50.849  1.00  0.00     0.139 A 
HETATM   16  N4  UNL     1      21.772   5.199  50.328  1.00  0.00    -0.075 NA
HETATM   17  C18 UNL     1      22.787   4.350  50.536  1.00  0.00     0.722 A 
HETATM   18  N5  UNL     1      22.529   3.262  51.326  1.00  0.00    -0.063 NA
HETATM   19  N6  UNL     1      24.014   4.666  49.924  1.00  0.00    -0.222 N 
HETATM   20  H18 UNL     1      24.387   4.801  50.900  1.00  0.00     0.177 HD
ENDROOT
BRANCH   6  21
HETATM   21  N1  UNL     1      27.387  -0.812  52.929  1.00  0.00    -0.319 N 
HETATM   22  C7  UNL     1      28.525  -0.237  53.431  1.00  0.00     0.117 A 
HETATM   23  C8  UNL     1      29.538  -1.119  53.711  1.00  0.00     0.135 A 
HETATM   24  N2  UNL     1      29.015  -2.326  53.367  1.00  0.00    -0.254 NA
HETATM   25  C9  UNL     1      27.779  -2.102  52.924  1.00  0.00     0.213 A 
ENDBRANCH   6  21
TORSDOF 1
ENDMDL
MODEL 3
REMARK VINA RESULT:      -9.0      2.216      7.630
REMARK  1 active torsions:
REMARK  status: ('A' for Active; 'I' for Inactive)
REMARK    1  A    between atoms: C6_6  and  N1_7 
ROOT
HETATM    1  C1  UNL     1      26.413   3.529  50.329  1.00  0.00     0.139 C 
HETATM    2  C2  UNL     1      24.976   3.402  49.881  1.00  0.00    -0.005 C 
HETATM    3  C3  UNL     1      24.450   2.520  50.754  1.00  0.00     0.026 C 
HETATM    4  C4  UNL     1      22.999   2.169  50.572  1.00  0.00     0.036 C 
HETATM    5  C5  UNL     1      22.086   1.415  51.135  1.00  0.00     0.026 C 
HETATM    6  C6  UNL     1      21.310   0.515  51.943  1.00  0.00     0.019 C 
HETATM    7  C10 UNL     1      21.377  -0.268  52.983  1.00  0.00     0.044 C 
HETATM    8  C11 UNL     1      22.296  -0.718  53.981  1.00  0.00     0.112 C 
HETATM    9  N3  UNL     1      22.347  -1.493  55.005  1.00  0.00    -0.298 NA
HETATM   10  C12 UNL     1      23.579  -1.627  55.740  1.00  0.00     0.175 C 
HETATM   11  C13 UNL     1      24.519  -0.616  55.262  1.00  0.00    -0.003 C 
HETATM   12  C14 UNL     1      25.685  -0.439  54.712  1.00  0.00     0.030 C 
HETATM   13  C15 UNL     1      26.779   0.320  54.171  1.00  0.00     0.077 A 
HETATM   14  C16 UNL     1      28.062   0.270  54.599  1.00  0.00     0.052 A 
HETATM   15  C17 UNL     1      28.879   1.107  53.865  1.00  0.00     0.139 A 
HETATM   16  N4  UNL     1      28.400   1.855  52.861  1.00  0.00    -0.075 NA
HETATM   17  C18 UNL     1      27.114   1.855  52.489  1.00  0.00     0.722 A 
HETATM   18  N5  UNL     1      26.268   1.039  53.191  1.00  0.00    -0.063 NA
HETATM   19  N6  UNL     1      26.765   2.692  51.413  1.00  0.00    -0.222 N 
HETATM   20  H18 UNL     1      26.555   1.806  50.882  1.00  0.00     0.177 HD
ENDROOT
BRANCH   6  21
HETATM   21  N1  UNL     1      20.031   0.444  51.319  1.00  0.00    -0.319 N 
HETATM   22  C7  UNL     1      18.930  -0.180  51.846  1.00  0.00     0.117 A 
HETATM   23  C8  UNL     1      17.791  -0.071  51.090  1.00  0.00     0.135 A 
HETATM   24  N2  UNL     1      18.188   0.666  50.019  1.00  0.00    -0.254 NA
HETATM   25  C9  UNL     1      19.480   0.940  50.193  1.00  0.00     0.213 A 
ENDBRANCH   6  21
TORSDOF 1
ENDMDL
MODEL 4
REMARK VINA RESULT:      -9.0      1.940      6.626
REMARK  1 active torsions:
REMARK  status: ('A' for Active; 'I' for Inactive)
REMARK    1  A    between atoms: C6_6  and  N1_7 
ROOT
HETATM    1  C1  UNL     1      24.229  -1.519  55.619  1.00  0.00     0.139 C 
HETATM    2  C2  UNL     1      22.880  -1.249  54.996  1.00  0.00    -0.005 C 
HETATM    3  C3  UNL     1      23.159  -0.382  54.002  1.00  0.00     0.026 C 
HETATM    4  C4  UNL     1      21.998   0.095  53.173  1.00  0.00     0.036 C 
HETATM    5  C5  UNL     1      21.773   0.884  52.151  1.00  0.00     0.026 C 
HETATM    6  C6  UNL     1      21.825   1.793  51.038  1.00  0.00     0.019 C 
HETATM    7  C10 UNL     1      22.644   2.502  50.315  1.00  0.00     0.044 C 
HETATM    8  C11 UNL     1      24.033   2.814  50.186  1.00  0.00     0.112 C 
HETATM    9  N3  UNL     1      24.830   3.518  49.464  1.00  0.00    -0.298 NA
HETATM   10  C12 UNL     1      26.244   3.507  49.739  1.00  0.00     0.175 C 
HETATM   11  C13 UNL     1      26.521   2.454  50.713  1.00  0.00    -0.003 C 
HETATM   12  C14 UNL     1      27.002   2.218  51.900  1.00  0.00     0.030 C 
HETATM   13  C15 UNL     1      27.376   1.407  53.026  1.00  0.00     0.077 A 
HETATM   14  C16 UNL     1      28.616   1.327  53.562  1.00  0.00     0.052 A 
HETATM   15  C17 UNL     1      28.649   0.473  54.648  1.00  0.00     0.139 A 
HETATM   16  N4  UNL     1      27.552  -0.170  55.071  1.00  0.00    -0.075 NA
HETATM   17  C18 UNL     1      26.352  -0.043  54.490  1.00  0.00     0.722 A 
HETATM   18  N5  UNL     1      26.274   0.794  53.410  1.00  0.00    -0.063 NA
HETATM   19  N6  UNL     1      25.294  -0.781  55.053  1.00  0.00    -0.222 N 
HETATM   20  H18 UNL     1      24.876   0.149  55.316  1.00  0.00     0.177 HD
ENDROOT
BRANCH   6  21
HETATM   21  N1  UNL     1      20.470   2.005  50.651  1.00  0.00    -0.319 N 
HETATM   22  C7  UNL     1      19.499   2.554  51.447  1.00  0.00     0.117 A 
HETATM   23  C8  UNL     1      18.280   2.712  50.840  1.00  0.00     0.135 A 
HETATM   24  N2  UNL     1      18.484   2.236  49.584  1.00  0.00    -0.254 NA
HETATM   25  C9  UNL     1      19.756   1.841  49.520  1.00  0.00     0.213 A 
ENDBRANCH   6  21
TORSDOF 1
ENDMDL
MODEL 5
REMARK VINA RESULT:      -8.8      2.049      5.653
REMARK  1 active torsions:
REMARK  status: ('A' for Active; 'I' for Inactive)
REMARK    1  A    between atoms: C6_6  and  N1_7 
ROOT
HETATM    1  C1  UNL     1      20.143   1.070  50.624  1.00  0.00     0.139 C 
HETATM    2  C2  UNL     1      20.928   2.073  49.812  1.00  0.00    -0.005 C 
HETATM    3  C3  UNL     1      22.164   2.013  50.345  1.00  0.00     0.026 C 
HETATM    4  C4  UNL     1      23.206   2.916  49.745  1.00  0.00     0.036 C 
HETATM    5  C5  UNL     1      24.476   3.199  49.900  1.00  0.00     0.026 C 
HETATM    6  C6  UNL     1      25.856   3.301  50.291  1.00  0.00     0.019 C 
HETATM    7  C10 UNL     1      26.739   2.819  51.120  1.00  0.00     0.044 C 
HETATM    8  C11 UNL     1      26.872   1.865  52.176  1.00  0.00     0.112 C 
HETATM    9  N3  UNL     1      27.754   1.400  52.987  1.00  0.00    -0.298 NA
HETATM   10  C12 UNL     1      27.386   0.377  53.933  1.00  0.00     0.175 C 
HETATM   11  C13 UNL     1      26.047  -0.103  53.603  1.00  0.00    -0.003 C 
HETATM   12  C14 UNL     1      24.833  -0.233  54.057  1.00  0.00     0.030 C 
HETATM   13  C15 UNL     1      23.447  -0.611  54.007  1.00  0.00     0.077 A 
HETATM   14  C16 UNL     1      22.828  -1.453  54.866  1.00  0.00     0.052 A 
HETATM   15  C17 UNL     1      21.489  -1.600  54.561  1.00  0.00     0.139 A 
HETATM   16  N4  UNL     1      20.928  -0.961  53.526  1.00  0.00    -0.075 NA
HETATM   17  C18 UNL     1      21.604  -0.139  52.712  1.00  0.00     0.722 A 
HETATM   18  N5  UNL     1      22.935   0.036  52.979  1.00  0.00    -0.063 NA
HETATM   19  N6  UNL     1      20.875   0.462  51.669  1.00  0.00    -0.222 N 
HETATM   20  H18 UNL     1      21.051   1.375  52.165  1.00  0.00     0.177 HD
ENDROOT
BRANCH   6  21
HETATM   21  N1  UNL     1      26.404   4.351  49.498  1.00  0.00    -0.319 N 
HETATM   22  C7  UNL     1      25.822   5.576  49.301  1.00  0.00     0.117 A 
HETATM   23  C8  UNL     1      26.561   6.447  48.543  1.00  0.00     0.135 A 
HETATM   24  N2  UNL     1      27.679   5.737  48.239  1.00  0.00    -0.254 NA
HETATM   25  C9  UNL     1      27.547   4.540  48.808  1.00  0.00     0.213 A 
ENDBRANCH   6  21
TORSDOF 1
ENDMDL
MODEL 6
REMARK VINA RESULT:      -8.2      2.682      5.135
REMARK  1 active torsions:
REMARK  status: ('A' for Active; 'I' for Inactive)
REMARK    1  A    between atoms: C6_6  and  N1_7 
ROOT
HETATM    1  C1  UNL     1      20.555   2.875  47.980  1.00  0.00     0.139 C 
HETATM    2  C2  UNL     1      22.002   3.132  48.329  1.00  0.00    -0.005 C 
HETATM    3  C3  UNL     1      22.179   2.440  49.472  1.00  0.00     0.026 C 
HETATM    4  C4  UNL     1      23.547   2.495  50.094  1.00  0.00     0.036 C 
HETATM    5  C5  UNL     1      24.179   2.014  51.136  1.00  0.00     0.026 C 
HETATM    6  C6  UNL     1      24.606   1.353  52.339  1.00  0.00     0.019 C 
HETATM    7  C10 UNL     1      24.197   0.561  53.290  1.00  0.00     0.044 C 
HETATM    8  C11 UNL     1      23.037  -0.153  53.724  1.00  0.00     0.112 C 
HETATM    9  N3  UNL     1      22.648  -0.933  54.669  1.00  0.00    -0.298 NA
HETATM   10  C12 UNL     1      21.296  -1.428  54.675  1.00  0.00     0.175 C 
HETATM   11  C13 UNL     1      20.669  -1.089  53.400  1.00  0.00    -0.003 C 
HETATM   12  C14 UNL     1      19.682  -0.439  52.852  1.00  0.00     0.030 C 
HETATM   13  C15 UNL     1      18.872   0.045  51.768  1.00  0.00     0.077 A 
HETATM   14  C16 UNL     1      17.545  -0.170  51.618  1.00  0.00     0.052 A 
HETATM   15  C17 UNL     1      17.053   0.442  50.481  1.00  0.00     0.139 A 
HETATM   16  N4  UNL     1      17.845   1.149  49.664  1.00  0.00    -0.075 NA
HETATM   17  C18 UNL     1      19.156   1.323  49.874  1.00  0.00     0.722 A 
HETATM   18  N5  UNL     1      19.685   0.733  50.991  1.00  0.00    -0.063 NA
HETATM   19  N6  UNL     1      19.854   2.095  48.928  1.00  0.00    -0.222 N 
HETATM   20  H18 UNL     1      19.993   2.795  49.703  1.00  0.00     0.177 HD
ENDROOT
BRANCH   6  21
HETATM   21  N1  UNL     1      25.945   1.786  52.561  1.00  0.00    -0.319 N 
HETATM   22  C7  UNL     1      26.559   1.855  53.785  1.00  0.00     0.117 A 
HETATM   23  C8  UNL     1      27.872   2.250  53.748  1.00  0.00     0.135 A 
HETATM   24  N2  UNL     1      28.110   2.443  52.424  1.00  0.00    -0.254 NA
HETATM   25  C9  UNL     1      26.977   2.165  51.780  1.00  0.00     0.213 A 
ENDBRANCH   6  21
TORSDOF 1
ENDMDL
MODEL 7
REMARK VINA RESULT:      -8.0      2.515      6.674
REMARK  1 active torsions:
REMARK  status: ('A' for Active; 'I' for Inactive)
REMARK    1  A    between atoms: C6_6  and  N1_7 
ROOT
HETATM    1  C1  UNL     1      25.851   0.537  53.492  1.00  0.00     0.139 C 
HETATM    2  C2  UNL     1      24.547  -0.118  53.883  1.00  0.00    -0.005 C 
HETATM    3  C3  UNL     1      23.679   0.329  52.953  1.00  0.00     0.026 C 
HETATM    4  C4  UNL     1      22.257  -0.150  53.067  1.00  0.00     0.036 C 
HETATM    5  C5  UNL     1      21.115  -0.014  52.439  1.00  0.00     0.026 C 
HETATM    6  C6  UNL     1      20.022   0.314  51.565  1.00  0.00     0.019 C 
HETATM    7  C10 UNL     1      19.717   0.992  50.494  1.00  0.00     0.044 C 
HETATM    8  C11 UNL     1      20.305   1.846  49.510  1.00  0.00     0.112 C 
HETATM    9  N3  UNL     1      19.988   2.510  48.456  1.00  0.00    -0.298 NA
HETATM   10  C12 UNL     1      20.995   3.270  47.760  1.00  0.00     0.175 C 
HETATM   11  C13 UNL     1      22.302   2.930  48.316  1.00  0.00    -0.003 C 
HETATM   12  C14 UNL     1      23.351   3.416  48.915  1.00  0.00     0.030 C 
HETATM   13  C15 UNL     1      24.651   3.372  49.527  1.00  0.00     0.077 A 
HETATM   14  C16 UNL     1      25.729   4.094  49.144  1.00  0.00     0.052 A 
HETATM   15  C17 UNL     1      26.826   3.839  49.944  1.00  0.00     0.139 A 
HETATM   16  N4  UNL     1      26.768   2.970  50.962  1.00  0.00    -0.075 NA
HETATM   17  C18 UNL     1      25.663   2.286  51.287  1.00  0.00     0.722 A 
HETATM   18  N5  UNL     1      24.551   2.509  50.520  1.00  0.00    -0.063 NA
HETATM   19  N6  UNL     1      25.758   1.413  52.386  1.00  0.00    -0.222 N 
HETATM   20  H18 UNL     1      25.079   2.057  52.869  1.00  0.00     0.177 HD
ENDROOT
BRANCH   6  21
HETATM   21  N1  UNL     1      18.872  -0.301  52.139  1.00  0.00    -0.319 N 
HETATM   22  C7  UNL     1      17.616  -0.286  51.592  1.00  0.00     0.117 A 
HETATM   23  C8  UNL     1      16.675  -0.994  52.297  1.00  0.00     0.135 A 
HETATM   24  N2  UNL     1      17.372  -1.488  53.354  1.00  0.00    -0.254 NA
HETATM   25  C9  UNL     1      18.629  -1.065  53.222  1.00  0.00     0.213 A 
ENDBRANCH   6  21
TORSDOF 1
ENDMDL
MODEL 8
REMARK VINA RESULT:      -8.0      2.616      5.466
REMARK  1 active torsions:
REMARK  status: ('A' for Active; 'I' for Inactive)
REMARK    1  A    between atoms: C6_6  and  N1_7 
ROOT
HETATM    1  C1  UNL     1      26.988   6.110  48.287  1.00  0.00     0.139 C 
HETATM    2  C2  UNL     1      27.472   4.806  48.878  1.00  0.00    -0.005 C 
HETATM    3  C3  UNL     1      26.405   4.358  49.569  1.00  0.00     0.026 C 
HETATM    4  C4  UNL     1      26.568   3.050  50.294  1.00  0.00     0.036 C 
HETATM    5  C5  UNL     1      25.862   2.244  51.048  1.00  0.00     0.026 C 
HETATM    6  C6  UNL     1      24.869   1.565  51.835  1.00  0.00     0.019 C 
HETATM    7  C10 UNL     1      23.634   1.648  52.244  1.00  0.00     0.044 C 
HETATM    8  C11 UNL     1      22.484   2.491  52.153  1.00  0.00     0.112 C 
HETATM    9  N3  UNL     1      21.268   2.559  52.564  1.00  0.00    -0.298 NA
HETATM   10  C12 UNL     1      20.444   3.678  52.182  1.00  0.00     0.175 C 
HETATM   11  C13 UNL     1      21.148   4.446  51.158  1.00  0.00    -0.003 C 
HETATM   12  C14 UNL     1      21.645   5.615  50.874  1.00  0.00     0.030 C 
HETATM   13  C15 UNL     1      22.319   6.593  50.065  1.00  0.00     0.077 A 
HETATM   14  C16 UNL     1      21.809   7.786  49.681  1.00  0.00     0.052 A 
HETATM   15  C17 UNL     1      22.710   8.507  48.921  1.00  0.00     0.139 A 
HETATM   16  N4  UNL     1      23.928   8.029  48.633  1.00  0.00    -0.075 NA
HETATM   17  C18 UNL     1      24.370   6.834  49.048  1.00  0.00     0.722 A 
HETATM   18  N5  UNL     1      23.508   6.086  49.804  1.00  0.00    -0.063 NA
HETATM   19  N6  UNL     1      25.675   6.473  48.666  1.00  0.00    -0.222 N 
HETATM   20  H18 UNL     1      25.915   6.526  49.691  1.00  0.00     0.177 HD
ENDROOT
BRANCH   6  21
HETATM   21  N1  UNL     1      25.526   0.427  52.387  1.00  0.00    -0.319 N 
HETATM   22  C7  UNL     1      26.786   0.006  52.053  1.00  0.00     0.117 A 
HETATM   23  C8  UNL     1      27.232  -1.083  52.756  1.00  0.00     0.135 A 
HETATM   24  N2  UNL     1      26.197  -1.374  53.586  1.00  0.00    -0.254 NA
HETATM   25  C9  UNL     1      25.239  -0.481  53.341  1.00  0.00     0.213 A 
ENDBRANCH   6  21
TORSDOF 1
ENDMDL
MODEL 9
REMARK VINA RESULT:      -7.7      2.584      7.783
REMARK  1 active torsions:
REMARK  status: ('A' for Active; 'I' for Inactive)
REMARK    1  A    between atoms: C6_6  and  N1_7 
ROOT
HETATM    1  C1  UNL     1      24.018   3.559  49.499  1.00  0.00     0.139 C 
HETATM    2  C2  UNL     1      22.551   3.255  49.300  1.00  0.00    -0.005 C 
HETATM    3  C3  UNL     1      22.286   2.343  50.256  1.00  0.00     0.026 C 
HETATM    4  C4  UNL     1      20.875   1.823  50.324  1.00  0.00     0.036 C 
HETATM    5  C5  UNL     1      20.165   0.986  51.039  1.00  0.00     0.026 C 
HETATM    6  C6  UNL     1      19.644   0.026  51.973  1.00  0.00     0.019 C 
HETATM    7  C10 UNL     1      19.976  -0.715  52.994  1.00  0.00     0.044 C 
HETATM    8  C11 UNL     1      21.094  -1.029  53.827  1.00  0.00     0.112 C 
HETATM    9  N3  UNL     1      21.406  -1.765  54.833  1.00  0.00    -0.298 NA
HETATM   10  C12 UNL     1      22.750  -1.736  55.351  1.00  0.00     0.175 C 
HETATM   11  C13 UNL     1      23.471  -0.638  54.714  1.00  0.00    -0.003 C 
HETATM   12  C14 UNL     1      24.501  -0.343  53.973  1.00  0.00     0.030 C 
HETATM   13  C15 UNL     1      25.393   0.521  53.250  1.00  0.00     0.077 A 
HETATM   14  C16 UNL     1      26.726   0.630  53.456  1.00  0.00     0.052 A 
HETATM   15  C17 UNL     1      27.305   1.535  52.588  1.00  0.00     0.139 A 
HETATM   16  N4  UNL     1      26.582   2.194  51.673  1.00  0.00    -0.075 NA
HETATM   17  C18 UNL     1      25.260   2.037  51.523  1.00  0.00     0.722 A 
HETATM   18  N5  UNL     1      24.645   1.149  52.364  1.00  0.00    -0.063 NA
HETATM   19  N6  UNL     1      24.641   2.798  50.514  1.00  0.00    -0.222 N 
HETATM   20  H18 UNL     1      24.452   1.880  50.033  1.00  0.00     0.177 HD
ENDROOT
BRANCH   6  21
HETATM   21  N1  UNL     1      18.297  -0.209  51.575  1.00  0.00    -0.319 N 
HETATM   22  C7  UNL     1      17.364  -0.889  52.312  1.00  0.00     0.117 A 
HETATM   23  C8  UNL     1      16.114  -0.941  51.749  1.00  0.00     0.135 A 
HETATM   24  N2  UNL     1      16.259  -0.255  50.586  1.00  0.00    -0.254 NA
HETATM   25  C9  UNL     1      17.527   0.149  50.527  1.00  0.00     0.213 A 
ENDBRANCH   6  21
TORSDOF 1
ENDMDL
