MODEL 1
REMARK VINA RESULT:      -8.6      0.000      0.000
REMARK  6 active torsions:
REMARK  status: ('A' for Active; 'I' for Inactive)
REMARK    1  A    between atoms: O1_2  and  C2_3 
REMARK    2  A    between atoms: C5_6  and  N1_7 
REMARK    3  A    between atoms: C9_13  and  O3_14 
REMARK    4  A    between atoms: O3_14  and  N3_15 
REMARK    5  A    between atoms: C14_21  and  N5_22 
REMARK    6  A    between atoms: N5_22  and  C15_23 
ROOT
HETATM    1  N1  UNL     1      23.264   4.297  51.225  1.00  0.00    -0.291 N 
HETATM    2  C6  UNL     1      23.633   4.051  52.633  1.00  0.00     0.326 C 
HETATM    3  O2  UNL     1      23.640   5.072  53.415  1.00  0.00    -0.247 OA
HETATM    4  N2  UNL     1      23.868   2.626  52.600  1.00  0.00    -0.318 N 
HETATM    5  C7  UNL     1      23.394   1.290  53.024  1.00  0.00     0.131 C 
HETATM    6  C8  UNL     1      22.558   0.703  51.891  1.00  0.00     0.054 C 
HETATM    7  C9  UNL     1      22.078   1.813  50.969  1.00  0.00     0.148 C 
HETATM    8  C10 UNL     1      23.041   2.225  49.911  1.00  0.00     0.064 C 
HETATM    9  C11 UNL     1      23.848   3.445  50.148  1.00  0.00     0.130 C 
HETATM   10  C12 UNL     1      25.212   3.117  50.651  1.00  0.00    -0.009 A 
HETATM   11  C13 UNL     1      26.498   3.254  50.525  1.00  0.00     0.126 A 
HETATM   12  N4  UNL     1      27.151   2.528  51.555  1.00  0.00    -0.245 NA
HETATM   13  C14 UNL     1      26.271   1.927  52.330  1.00  0.00     0.131 A 
HETATM   14  C21 UNL     1      24.963   2.161  51.795  1.00  0.00     0.191 A 
ENDROOT
BRANCH   1  15
HETATM   15  C5  UNL     1      22.388   5.345  50.736  1.00  0.00     0.040 A 
HETATM   16  C4  UNL     1      23.240   6.420  50.436  1.00  0.00     0.032 A 
HETATM   17  C3  UNL     1      22.724   7.621  49.933  1.00  0.00     0.039 A 
HETATM   18  C2  UNL     1      21.359   7.753  49.728  1.00  0.00     0.068 A 
HETATM   19  C23 UNL     1      20.558   6.673  50.036  1.00  0.00     0.039 A 
HETATM   20  C22 UNL     1      21.050   5.498  50.526  1.00  0.00     0.032 A 
BRANCH  18  21
HETATM   21  O1  UNL     1      20.779   8.912  49.232  1.00  0.00    -0.356 OA
HETATM   22  C1  UNL     1      19.623   9.470  49.795  1.00  0.00     0.210 C 
ENDBRANCH  18  21
ENDBRANCH   1  15
BRANCH   7  23
HETATM   23  O3  UNL     1      20.921   1.270  50.355  1.00  0.00    -0.303 OA
BRANCH  23  24
HETATM   24  N3  UNL     1      20.989   1.242  49.027  1.00  0.00    -0.215 NA
HETATM   25  H11 UNL     1      22.005   1.395  48.759  1.00  0.00     0.150 HD
HETATM   26  H12 UNL     1      20.482   2.032  48.564  1.00  0.00     0.150 HD
ENDBRANCH  23  24
ENDBRANCH   7  23
BRANCH  13  27
HETATM   27  N5  UNL     1      26.781   1.166  53.419  1.00  0.00    -0.342 N 
HETATM   28  H17 UNL     1      26.675   1.540  54.388  1.00  0.00     0.167 HD
BRANCH  27  29
HETATM   29  C15 UNL     1      27.433  -0.089  53.257  1.00  0.00     0.033 A 
HETATM   30  C16 UNL     1      28.788  -0.245  53.576  1.00  0.00     0.029 A 
HETATM   31  C17 UNL     1      29.453  -1.425  53.436  1.00  0.00     0.002 A 
HETATM   32  C18 UNL     1      28.801  -2.545  52.963  1.00  0.00     0.000 A 
HETATM   33  C19 UNL     1      27.465  -2.434  52.638  1.00  0.00     0.002 A 
HETATM   34  C20 UNL     1      26.828  -1.218  52.793  1.00  0.00     0.029 A 
ENDBRANCH  27  29
ENDBRANCH  13  27
TORSDOF 6
ENDMDL
MODEL 2
REMARK VINA RESULT:      -8.6      3.478      6.794
REMARK  6 active torsions:
REMARK  status: ('A' for Active; 'I' for Inactive)
REMARK    1  A    between atoms: O1_2  and  C2_3 
REMARK    2  A    between atoms: C5_6  and  N1_7 
REMARK    3  A    between atoms: C9_13  and  O3_14 
REMARK    4  A    between atoms: O3_14  and  N3_15 
REMARK    5  A    between atoms: C14_21  and  N5_22 
REMARK    6  A    between atoms: N5_22  and  C15_23 
ROOT
HETATM    1  N1  UNL     1      21.273   1.565  51.853  1.00  0.00    -0.291 N 
HETATM    2  C6  UNL     1      21.286   3.023  52.082  1.00  0.00     0.326 C 
HETATM    3  O2  UNL     1      20.149   3.584  52.297  1.00  0.00    -0.247 OA
HETATM    4  N2  UNL     1      22.700   3.297  51.970  1.00  0.00    -0.318 N 
HETATM    5  C7  UNL     1      23.938   3.689  52.678  1.00  0.00     0.131 C 
HETATM    6  C8  UNL     1      24.693   2.417  53.053  1.00  0.00     0.054 C 
HETATM    7  C9  UNL     1      23.746   1.228  53.044  1.00  0.00     0.148 C 
HETATM    8  C10 UNL     1      23.532   0.592  51.716  1.00  0.00     0.064 C 
HETATM    9  C11 UNL     1      22.304   0.946  50.967  1.00  0.00     0.130 C 
HETATM   10  C12 UNL     1      22.565   1.992  49.938  1.00  0.00    -0.009 A 
HETATM   11  C13 UNL     1      22.471   2.368  48.698  1.00  0.00     0.126 A 
HETATM   12  N4  UNL     1      23.026   3.668  48.558  1.00  0.00    -0.245 NA
HETATM   13  C14 UNL     1      23.473   4.109  49.717  1.00  0.00     0.131 A 
HETATM   14  C21 UNL     1      23.311   3.070  50.690  1.00  0.00     0.191 A 
ENDROOT
BRANCH   1  15
HETATM   15  C5  UNL     1      20.308   0.619  52.381  1.00  0.00     0.040 A 
HETATM   16  C4  UNL     1      19.322   0.513  51.387  1.00  0.00     0.032 A 
HETATM   17  C3  UNL     1      18.218  -0.330  51.565  1.00  0.00     0.039 A 
HETATM   18  C2  UNL     1      18.093  -1.066  52.734  1.00  0.00     0.068 A 
HETATM   19  C23 UNL     1      19.082  -0.931  53.685  1.00  0.00     0.039 A 
HETATM   20  C22 UNL     1      20.164  -0.114  53.521  1.00  0.00     0.032 A 
BRANCH  18  21
HETATM   21  O1  UNL     1      17.026  -1.919  52.977  1.00  0.00    -0.356 OA
HETATM   22  C1  UNL     1      17.201  -3.201  53.515  1.00  0.00     0.210 C 
ENDBRANCH  18  21
ENDBRANCH   1  15
BRANCH   7  23
HETATM   23  O3  UNL     1      24.365   0.292  53.911  1.00  0.00    -0.303 OA
BRANCH  23  24
HETATM   24  N3  UNL     1      25.143  -0.581  53.279  1.00  0.00    -0.215 NA
HETATM   25  H11 UNL     1      26.150  -0.312  53.481  1.00  0.00     0.150 HD
HETATM   26  H12 UNL     1      25.070  -0.531  52.236  1.00  0.00     0.150 HD
ENDBRANCH  23  24
ENDBRANCH   7  23
BRANCH  13  27
HETATM   27  N5  UNL     1      24.050   5.410  49.734  1.00  0.00    -0.342 N 
HETATM   28  H17 UNL     1      23.507   6.196  50.156  1.00  0.00     0.167 HD
BRANCH  27  29
HETATM   29  C15 UNL     1      25.338   5.701  49.201  1.00  0.00     0.033 A 
HETATM   30  C16 UNL     1      26.355   4.739  49.207  1.00  0.00     0.029 A 
HETATM   31  C17 UNL     1      27.601   4.972  48.709  1.00  0.00     0.002 A 
HETATM   32  C18 UNL     1      27.919   6.199  48.163  1.00  0.00     0.000 A 
HETATM   33  C19 UNL     1      26.944   7.175  48.138  1.00  0.00     0.002 A 
HETATM   34  C20 UNL     1      25.693   6.897  48.654  1.00  0.00     0.029 A 
ENDBRANCH  27  29
ENDBRANCH  13  27
TORSDOF 6
ENDMDL
MODEL 3
REMARK VINA RESULT:      -8.4      3.228      6.569
REMARK  6 active torsions:
REMARK  status: ('A' for Active; 'I' for Inactive)
REMARK    1  A    between atoms: O1_2  and  C2_3 
REMARK    2  A    between atoms: C5_6  and  N1_7 
REMARK    3  A    between atoms: C9_13  and  O3_14 
REMARK    4  A    between atoms: O3_14  and  N3_15 
REMARK    5  A    between atoms: C14_21  and  N5_22 
REMARK    6  A    between atoms: N5_22  and  C15_23 
ROOT
HETATM    1  N1  UNL     1      24.089   3.162  50.824  1.00  0.00    -0.291 N 
HETATM    2  C6  UNL     1      23.249   2.053  50.329  1.00  0.00     0.326 C 
HETATM    3  O2  UNL     1      23.057   1.997  49.059  1.00  0.00    -0.247 OA
HETATM    4  N2  UNL     1      22.931   1.388  51.571  1.00  0.00    -0.318 N 
HETATM    5  C7  UNL     1      23.130   0.185  52.410  1.00  0.00     0.131 C 
HETATM    6  C8  UNL     1      24.252   0.480  53.401  1.00  0.00     0.054 C 
HETATM    7  C9  UNL     1      25.098   1.640  52.900  1.00  0.00     0.148 C 
HETATM    8  C10 UNL     1      24.583   2.996  53.232  1.00  0.00     0.064 C 
HETATM    9  C11 UNL     1      23.839   3.730  52.182  1.00  0.00     0.130 C 
HETATM   10  C12 UNL     1      22.364   3.604  52.357  1.00  0.00    -0.009 A 
HETATM   11  C13 UNL     1      21.211   4.192  52.465  1.00  0.00     0.126 A 
HETATM   12  N4  UNL     1      20.195   3.211  52.608  1.00  0.00    -0.245 NA
HETATM   13  C14 UNL     1      20.713   1.999  52.594  1.00  0.00     0.131 A 
HETATM   14  C21 UNL     1      22.139   2.118  52.522  1.00  0.00     0.191 A 
ENDROOT
BRANCH   1  15
HETATM   15  C5  UNL     1      25.156   3.823  50.098  1.00  0.00     0.040 A 
HETATM   16  C4  UNL     1      24.686   5.127  49.869  1.00  0.00     0.032 A 
HETATM   17  C3  UNL     1      25.473   6.058  49.180  1.00  0.00     0.039 A 
HETATM   18  C2  UNL     1      26.729   5.693  48.717  1.00  0.00     0.068 A 
HETATM   19  C23 UNL     1      27.151   4.403  48.962  1.00  0.00     0.039 A 
HETATM   20  C22 UNL     1      26.392   3.487  49.633  1.00  0.00     0.032 A 
BRANCH  18  21
HETATM   21  O1  UNL     1      27.561   6.563  48.027  1.00  0.00    -0.356 OA
HETATM   22  C1  UNL     1      27.095   7.760  47.469  1.00  0.00     0.210 C 
ENDBRANCH  18  21
ENDBRANCH   1  15
BRANCH   7  23
HETATM   23  O3  UNL     1      26.349   1.451  53.540  1.00  0.00    -0.303 OA
BRANCH  23  24
HETATM   24  N3  UNL     1      26.943   2.588  53.887  1.00  0.00    -0.215 NA
HETATM   25  H11 UNL     1      27.841   2.661  53.324  1.00  0.00     0.150 HD
HETATM   26  H12 UNL     1      27.265   2.607  54.883  1.00  0.00     0.150 HD
ENDBRANCH  23  24
ENDBRANCH   7  23
BRANCH  13  27
HETATM   27  N5  UNL     1      19.809   0.907  52.718  1.00  0.00    -0.342 N 
HETATM   28  H17 UNL     1      19.866   0.300  53.566  1.00  0.00     0.167 HD
BRANCH  27  29
HETATM   29  C15 UNL     1      18.822   0.595  51.741  1.00  0.00     0.033 A 
HETATM   30  C16 UNL     1      17.773  -0.286  52.030  1.00  0.00     0.029 A 
HETATM   31  C17 UNL     1      16.808  -0.615  51.128  1.00  0.00     0.002 A 
HETATM   32  C18 UNL     1      16.825  -0.076  49.857  1.00  0.00     0.000 A 
HETATM   33  C19 UNL     1      17.842   0.797  49.531  1.00  0.00     0.002 A 
HETATM   34  C20 UNL     1      18.802   1.102  50.477  1.00  0.00     0.029 A 
ENDBRANCH  27  29
ENDBRANCH  13  27
TORSDOF 6
ENDMDL
MODEL 4
REMARK VINA RESULT:      -8.2      2.998      7.891
REMARK  6 active torsions:
REMARK  status: ('A' for Active; 'I' for Inactive)
REMARK    1  A    between atoms: O1_2  and  C2_3 
REMARK    2  A    between atoms: C5_6  and  N1_7 
REMARK    3  A    between atoms: C9_13  and  O3_14 
REMARK    4  A    between atoms: O3_14  and  N3_15 
REMARK    5  A    between atoms: C14_21  and  N5_22 
REMARK    6  A    between atoms: N5_22  and  C15_23 
ROOT
HETATM    1  N1  UNL     1      23.608   1.444  51.575  1.00  0.00    -0.291 N 
HETATM    2  C6  UNL     1      22.276   0.955  51.984  1.00  0.00     0.326 C 
HETATM    3  O2  UNL     1      22.211  -0.255  52.411  1.00  0.00    -0.247 OA
HETATM    4  N2  UNL     1      21.474   2.130  51.728  1.00  0.00    -0.318 N 
HETATM    5  C7  UNL     1      20.686   3.235  52.316  1.00  0.00     0.131 C 
HETATM    6  C8  UNL     1      21.594   4.456  52.428  1.00  0.00     0.054 C 
HETATM    7  C9  UNL     1      23.052   4.027  52.389  1.00  0.00     0.148 C 
HETATM    8  C10 UNL     1      23.628   3.846  51.029  1.00  0.00     0.064 C 
HETATM    9  C11 UNL     1      23.721   2.467  50.494  1.00  0.00     0.130 C 
HETATM   10  C12 UNL     1      22.587   2.150  49.581  1.00  0.00    -0.009 A 
HETATM   11  C13 UNL     1      22.191   1.720  48.420  1.00  0.00     0.126 A 
HETATM   12  N4  UNL     1      20.772   1.725  48.377  1.00  0.00    -0.245 NA
HETATM   13  C14 UNL     1      20.274   2.164  49.516  1.00  0.00     0.131 A 
HETATM   14  C21 UNL     1      21.359   2.560  50.362  1.00  0.00     0.191 A 
ENDROOT
BRANCH   1  15
HETATM   15  C5  UNL     1      24.885   0.997  52.098  1.00  0.00     0.040 A 
HETATM   16  C4  UNL     1      24.625   0.634  53.429  1.00  0.00     0.032 A 
HETATM   17  C3  UNL     1      25.650   0.149  54.251  1.00  0.00     0.039 A 
HETATM   18  C2  UNL     1      26.937   0.026  53.747  1.00  0.00     0.068 A 
HETATM   19  C23 UNL     1      27.150   0.395  52.435  1.00  0.00     0.039 A 
HETATM   20  C22 UNL     1      26.157   0.868  51.626  1.00  0.00     0.032 A 
BRANCH  18  21
HETATM   21  O1  UNL     1      28.001  -0.446  54.503  1.00  0.00    -0.356 OA
HETATM   22  C1  UNL     1      29.251  -0.730  53.939  1.00  0.00     0.210 C 
ENDBRANCH  18  21
ENDBRANCH   1  15
BRANCH   7  23
HETATM   23  O3  UNL     1      23.736   5.082  53.044  1.00  0.00    -0.303 OA
BRANCH  23  24
HETATM   24  N3  UNL     1      24.065   6.084  52.235  1.00  0.00    -0.215 NA
HETATM   25  H11 UNL     1      23.852   6.988  52.748  1.00  0.00     0.150 HD
HETATM   26  H12 UNL     1      23.476   6.136  51.370  1.00  0.00     0.150 HD
ENDBRANCH  23  24
ENDBRANCH   7  23
BRANCH  13  27
HETATM   27  N5  UNL     1      18.855   2.215  49.624  1.00  0.00    -0.342 N 
HETATM   28  H17 UNL     1      18.356   3.068  49.290  1.00  0.00     0.167 HD
BRANCH  27  29
HETATM   29  C15 UNL     1      18.075   1.156  50.169  1.00  0.00     0.033 A 
HETATM   30  C16 UNL     1      18.501   0.456  51.304  1.00  0.00     0.029 A 
HETATM   31  C17 UNL     1      17.788  -0.564  51.859  1.00  0.00     0.002 A 
HETATM   32  C18 UNL     1      16.584  -0.956  51.311  1.00  0.00     0.000 A 
HETATM   33  C19 UNL     1      16.128  -0.291  50.192  1.00  0.00     0.002 A 
HETATM   34  C20 UNL     1      16.883   0.737  49.660  1.00  0.00     0.029 A 
ENDBRANCH  27  29
ENDBRANCH  13  27
TORSDOF 6
ENDMDL
MODEL 5
REMARK VINA RESULT:      -8.2      2.466      4.170
REMARK  6 active torsions:
REMARK  status: ('A' for Active; 'I' for Inactive)
REMARK    1  A    between atoms: O1_2  and  C2_3 
REMARK    2  A    between atoms: C5_6  and  N1_7 
REMARK    3  A    between atoms: C9_13  and  O3_14 
REMARK    4  A    between atoms: O3_14  and  N3_15 
REMARK    5  A    between atoms: C14_21  and  N5_22 
REMARK    6  A    between atoms: N5_22  and  C15_23 
ROOT
HETATM    1  N1  UNL     1      21.474   2.774  50.776  1.00  0.00    -0.291 N 
HETATM    2  C6  UNL     1      22.435   2.008  49.958  1.00  0.00     0.326 C 
HETATM    3  O2  UNL     1      21.943   1.276  49.023  1.00  0.00    -0.247 OA
HETATM    4  N2  UNL     1      23.681   2.406  50.572  1.00  0.00    -0.318 N 
HETATM    5  C7  UNL     1      24.941   3.168  50.421  1.00  0.00     0.131 C 
HETATM    6  C8  UNL     1      24.737   4.546  51.042  1.00  0.00     0.054 C 
HETATM    7  C9  UNL     1      23.253   4.859  51.142  1.00  0.00     0.148 C 
HETATM    8  C10 UNL     1      22.567   4.323  52.349  1.00  0.00     0.064 C 
HETATM    9  C11 UNL     1      21.789   3.070  52.204  1.00  0.00     0.130 C 
HETATM   10  C12 UNL     1      22.567   1.881  52.653  1.00  0.00    -0.009 A 
HETATM   11  C13 UNL     1      22.627   0.819  53.399  1.00  0.00     0.126 A 
HETATM   12  N4  UNL     1      23.869   0.164  53.184  1.00  0.00    -0.245 NA
HETATM   13  C14 UNL     1      24.594   0.822  52.302  1.00  0.00     0.131 A 
HETATM   14  C21 UNL     1      23.892   2.016  51.939  1.00  0.00     0.191 A 
ENDROOT
BRANCH   1  15
HETATM   15  C5  UNL     1      20.179   3.265  50.345  1.00  0.00     0.040 A 
HETATM   16  C4  UNL     1      19.305   2.958  51.401  1.00  0.00     0.032 A 
HETATM   17  C3  UNL     1      17.948   3.295  51.324  1.00  0.00     0.039 A 
HETATM   18  C2  UNL     1      17.458   3.937  50.196  1.00  0.00     0.068 A 
HETATM   19  C23 UNL     1      18.350   4.218  49.182  1.00  0.00     0.039 A 
HETATM   20  C22 UNL     1      19.675   3.896  49.247  1.00  0.00     0.032 A 
BRANCH  18  21
HETATM   21  O1  UNL     1      16.127   4.299  50.052  1.00  0.00    -0.356 OA
HETATM   22  C1  UNL     1      15.554   4.561  48.801  1.00  0.00     0.210 C 
ENDBRANCH  18  21
ENDBRANCH   1  15
BRANCH   7  23
HETATM   23  O3  UNL     1      23.204   6.276  51.173  1.00  0.00    -0.303 OA
BRANCH  23  24
HETATM   24  N3  UNL     1      24.200   6.825  51.861  1.00  0.00    -0.215 NA
HETATM   25  H11 UNL     1      23.770   7.343  52.682  1.00  0.00     0.150 HD
HETATM   26  H12 UNL     1      24.715   7.568  51.332  1.00  0.00     0.150 HD
ENDBRANCH  23  24
ENDBRANCH   7  23
BRANCH  13  27
HETATM   27  N5  UNL     1      25.868   0.276  51.976  1.00  0.00    -0.342 N 
HETATM   28  H17 UNL     1      25.939  -0.393  51.178  1.00  0.00     0.167 HD
BRANCH  27  29
HETATM   29  C15 UNL     1      27.059   0.595  52.687  1.00  0.00     0.033 A 
HETATM   30  C16 UNL     1      27.877  -0.412  53.214  1.00  0.00     0.029 A 
HETATM   31  C17 UNL     1      29.025  -0.155  53.901  1.00  0.00     0.002 A 
HETATM   32  C18 UNL     1      29.439   1.145  54.110  1.00  0.00     0.000 A 
HETATM   33  C19 UNL     1      28.661   2.167  53.606  1.00  0.00     0.002 A 
HETATM   34  C20 UNL     1      27.504   1.862  52.916  1.00  0.00     0.029 A 
ENDBRANCH  27  29
ENDBRANCH  13  27
TORSDOF 6
ENDMDL
MODEL 6
REMARK VINA RESULT:      -8.1      3.015      5.507
REMARK  6 active torsions:
REMARK  status: ('A' for Active; 'I' for Inactive)
REMARK    1  A    between atoms: O1_2  and  C2_3 
REMARK    2  A    between atoms: C5_6  and  N1_7 
REMARK    3  A    between atoms: C9_13  and  O3_14 
REMARK    4  A    between atoms: O3_14  and  N3_15 
REMARK    5  A    between atoms: C14_21  and  N5_22 
REMARK    6  A    between atoms: N5_22  and  C15_23 
ROOT
HETATM    1  N1  UNL     1      24.646   4.660  49.630  1.00  0.00    -0.291 N 
HETATM    2  C6  UNL     1      24.547   3.812  50.835  1.00  0.00     0.326 C 
HETATM    3  O2  UNL     1      25.642   3.299  51.272  1.00  0.00    -0.247 OA
HETATM    4  N2  UNL     1      23.128   3.887  51.095  1.00  0.00    -0.318 N 
HETATM    5  C7  UNL     1      22.064   4.396  51.989  1.00  0.00     0.131 C 
HETATM    6  C8  UNL     1      21.550   5.711  51.411  1.00  0.00     0.054 C 
HETATM    7  C9  UNL     1      22.579   6.299  50.458  1.00  0.00     0.148 C 
HETATM    8  C10 UNL     1      22.527   5.781  49.064  1.00  0.00     0.064 C 
HETATM    9  C11 UNL     1      23.498   4.730  48.679  1.00  0.00     0.130 C 
HETATM   10  C12 UNL     1      22.896   3.369  48.744  1.00  0.00    -0.009 A 
HETATM   11  C13 UNL     1      22.650   2.241  48.148  1.00  0.00     0.126 A 
HETATM   12  N4  UNL     1      21.955   1.381  49.038  1.00  0.00    -0.245 NA
HETATM   13  C14 UNL     1      21.758   1.974  50.199  1.00  0.00     0.131 A 
HETATM   14  C21 UNL     1      22.251   3.316  50.110  1.00  0.00     0.191 A 
ENDROOT
BRANCH   1  15
HETATM   15  C5  UNL     1      25.798   5.442  49.222  1.00  0.00     0.040 A 
HETATM   16  C4  UNL     1      26.797   4.496  48.940  1.00  0.00     0.032 A 
HETATM   17  C3  UNL     1      28.066   4.904  48.510  1.00  0.00     0.039 A 
HETATM   18  C2  UNL     1      28.342   6.256  48.362  1.00  0.00     0.068 A 
HETATM   19  C23 UNL     1      27.333   7.151  48.650  1.00  0.00     0.039 A 
HETATM   20  C22 UNL     1      26.093   6.763  49.069  1.00  0.00     0.032 A 
BRANCH  18  21
HETATM   21  O1  UNL     1      29.575   6.732  47.941  1.00  0.00    -0.356 OA
HETATM   22  C1  UNL     1      30.252   7.756  48.617  1.00  0.00     0.210 C 
ENDBRANCH  18  21
ENDBRANCH   1  15
BRANCH   7  23
HETATM   23  O3  UNL     1      22.282   7.685  50.448  1.00  0.00    -0.303 OA
BRANCH  23  24
HETATM   24  N3  UNL     1      21.000   7.951  50.217  1.00  0.00    -0.215 NA
HETATM   25  H11 UNL     1      20.930   8.345  49.234  1.00  0.00     0.150 HD
HETATM   26  H12 UNL     1      20.613   8.710  50.825  1.00  0.00     0.150 HD
ENDBRANCH  23  24
ENDBRANCH   7  23
BRANCH  13  27
HETATM   27  N5  UNL     1      21.078   1.226  51.200  1.00  0.00    -0.342 N 
HETATM   28  H17 UNL     1      20.036   1.184  51.176  1.00  0.00     0.167 HD
BRANCH  27  29
HETATM   29  C15 UNL     1      21.749   0.525  52.242  1.00  0.00     0.033 A 
HETATM   30  C16 UNL     1      23.133   0.644  52.417  1.00  0.00     0.029 A 
HETATM   31  C17 UNL     1      23.817  -0.008  53.399  1.00  0.00     0.002 A 
HETATM   32  C18 UNL     1      23.154  -0.832  54.285  1.00  0.00     0.000 A 
HETATM   33  C19 UNL     1      21.789  -0.976  54.147  1.00  0.00     0.002 A 
HETATM   34  C20 UNL     1      21.134  -0.298  53.137  1.00  0.00     0.029 A 
ENDBRANCH  27  29
ENDBRANCH  13  27
TORSDOF 6
ENDMDL
MODEL 7
REMARK VINA RESULT:      -7.9      2.308      8.497
REMARK  6 active torsions:
REMARK  status: ('A' for Active; 'I' for Inactive)
REMARK    1  A    between atoms: O1_2  and  C2_3 
REMARK    2  A    between atoms: C5_6  and  N1_7 
REMARK    3  A    between atoms: C9_13  and  O3_14 
REMARK    4  A    between atoms: O3_14  and  N3_15 
REMARK    5  A    between atoms: C14_21  and  N5_22 
REMARK    6  A    between atoms: N5_22  and  C15_23 
ROOT
HETATM    1  N1  UNL     1      24.277   2.983  51.797  1.00  0.00    -0.291 N 
HETATM    2  C6  UNL     1      24.111   4.211  52.600  1.00  0.00     0.326 C 
HETATM    3  O2  UNL     1      24.061   4.064  53.877  1.00  0.00    -0.247 OA
HETATM    4  N2  UNL     1      24.063   5.207  51.555  1.00  0.00    -0.318 N 
HETATM    5  C7  UNL     1      24.755   6.339  50.900  1.00  0.00     0.131 C 
HETATM    6  C8  UNL     1      25.523   5.795  49.700  1.00  0.00     0.054 C 
HETATM    7  C9  UNL     1      25.741   4.299  49.856  1.00  0.00     0.148 C 
HETATM    8  C10 UNL     1      24.616   3.438  49.400  1.00  0.00     0.064 C 
HETATM    9  C11 UNL     1      23.688   2.910  50.428  1.00  0.00     0.130 C 
HETATM   10  C12 UNL     1      22.448   3.730  50.527  1.00  0.00    -0.009 A 
HETATM   11  C13 UNL     1      21.149   3.772  50.521  1.00  0.00     0.126 A 
HETATM   12  N4  UNL     1      20.722   5.112  50.712  1.00  0.00    -0.245 NA
HETATM   13  C14 UNL     1      21.758   5.917  50.835  1.00  0.00     0.131 A 
HETATM   14  C21 UNL     1      22.953   5.150  50.645  1.00  0.00     0.191 A 
ENDROOT
BRANCH   1  15
HETATM   15  C5  UNL     1      24.944   1.766  52.216  1.00  0.00     0.040 A 
HETATM   16  C4  UNL     1      26.308   2.098  52.268  1.00  0.00     0.032 A 
HETATM   17  C3  UNL     1      27.262   1.144  52.642  1.00  0.00     0.039 A 
HETATM   18  C2  UNL     1      26.860  -0.143  52.965  1.00  0.00     0.068 A 
HETATM   19  C23 UNL     1      25.512  -0.429  52.901  1.00  0.00     0.039 A 
HETATM   20  C22 UNL     1      24.574   0.494  52.538  1.00  0.00     0.032 A 
BRANCH  18  21
HETATM   21  O1  UNL     1      27.749  -1.139  53.344  1.00  0.00    -0.356 OA
HETATM   22  C1  UNL     1      29.107  -0.881  53.572  1.00  0.00     0.210 C 
ENDBRANCH  18  21
ENDBRANCH   1  15
BRANCH   7  23
HETATM   23  O3  UNL     1      26.880   4.034  49.053  1.00  0.00    -0.303 OA
BRANCH  23  24
HETATM   24  N3  UNL     1      27.898   4.856  49.290  1.00  0.00    -0.215 NA
HETATM   25  H11 UNL     1      27.818   5.176  50.299  1.00  0.00     0.150 HD
HETATM   26  H12 UNL     1      27.859   5.743  48.736  1.00  0.00     0.150 HD
ENDBRANCH  23  24
ENDBRANCH   7  23
BRANCH  13  27
HETATM   27  N5  UNL     1      21.483   7.298  51.044  1.00  0.00    -0.342 N 
HETATM   28  H17 UNL     1      21.309   7.635  52.016  1.00  0.00     0.167 HD
BRANCH  27  29
HETATM   29  C15 UNL     1      21.432   8.253  49.989  1.00  0.00     0.033 A 
HETATM   30  C16 UNL     1      20.232   8.887  49.647  1.00  0.00     0.029 A 
HETATM   31  C17 UNL     1      20.136   9.806  48.646  1.00  0.00     0.002 A 
HETATM   32  C18 UNL     1      21.249  10.158  47.910  1.00  0.00     0.000 A 
HETATM   33  C19 UNL     1      22.452   9.556  48.215  1.00  0.00     0.002 A 
HETATM   34  C20 UNL     1      22.505   8.629  49.238  1.00  0.00     0.029 A 
ENDBRANCH  27  29
ENDBRANCH  13  27
TORSDOF 6
ENDMDL
MODEL 8
REMARK VINA RESULT:      -7.9      2.699      7.852
REMARK  6 active torsions:
REMARK  status: ('A' for Active; 'I' for Inactive)
REMARK    1  A    between atoms: O1_2  and  C2_3 
REMARK    2  A    between atoms: C5_6  and  N1_7 
REMARK    3  A    between atoms: C9_13  and  O3_14 
REMARK    4  A    between atoms: O3_14  and  N3_15 
REMARK    5  A    between atoms: C14_21  and  N5_22 
REMARK    6  A    between atoms: N5_22  and  C15_23 
ROOT
HETATM    1  N1  UNL     1      25.200   2.751  51.697  1.00  0.00    -0.291 N 
HETATM    2  C6  UNL     1      25.376   3.128  50.280  1.00  0.00     0.326 C 
HETATM    3  O2  UNL     1      26.585   3.215  49.851  1.00  0.00    -0.247 OA
HETATM    4  N2  UNL     1      23.997   3.268  49.871  1.00  0.00    -0.318 N 
HETATM    5  C7  UNL     1      22.892   2.715  49.058  1.00  0.00     0.131 C 
HETATM    6  C8  UNL     1      22.043   1.822  49.957  1.00  0.00     0.054 C 
HETATM    7  C9  UNL     1      22.844   1.400  51.178  1.00  0.00     0.148 C 
HETATM    8  C10 UNL     1      22.845   2.369  52.308  1.00  0.00     0.064 C 
HETATM    9  C11 UNL     1      24.020   3.258  52.457  1.00  0.00     0.130 C 
HETATM   10  C12 UNL     1      23.771   4.607  51.873  1.00  0.00    -0.009 A 
HETATM   11  C13 UNL     1      23.776   5.896  52.031  1.00  0.00     0.126 A 
HETATM   12  N4  UNL     1      23.359   6.519  50.825  1.00  0.00    -0.245 NA
HETATM   13  C14 UNL     1      23.088   5.614  49.905  1.00  0.00     0.131 A 
HETATM   14  C21 UNL     1      23.233   4.315  50.490  1.00  0.00     0.191 A 
ENDROOT
BRANCH   1  15
HETATM   15  C5  UNL     1      26.103   1.937  52.488  1.00  0.00     0.040 A 
HETATM   16  C4  UNL     1      26.128   0.690  51.842  1.00  0.00     0.032 A 
HETATM   17  C3  UNL     1      26.912  -0.358  52.342  1.00  0.00     0.039 A 
HETATM   18  C2  UNL     1      27.671  -0.166  53.487  1.00  0.00     0.068 A 
HETATM   19  C23 UNL     1      27.617   1.073  54.091  1.00  0.00     0.039 A 
HETATM   20  C22 UNL     1      26.857   2.101  53.611  1.00  0.00     0.032 A 
BRANCH  18  21
HETATM   21  O1  UNL     1      28.469  -1.158  54.038  1.00  0.00    -0.356 OA
HETATM   22  C1  UNL     1      29.806  -1.337  53.662  1.00  0.00     0.210 C 
ENDBRANCH  18  21
ENDBRANCH   1  15
BRANCH   7  23
HETATM   23  O3  UNL     1      22.219   0.199  51.599  1.00  0.00    -0.303 OA
BRANCH  23  24
HETATM   24  N3  UNL     1      22.613  -0.211  52.800  1.00  0.00    -0.215 NA
HETATM   25  H11 UNL     1      23.597   0.156  52.954  1.00  0.00     0.150 HD
HETATM   26  H12 UNL     1      22.714  -1.250  52.877  1.00  0.00     0.150 HD
ENDBRANCH  23  24
ENDBRANCH   7  23
BRANCH  13  27
HETATM   27  N5  UNL     1      22.665   6.093  48.633  1.00  0.00    -0.342 N 
HETATM   28  H17 UNL     1      21.685   5.909  48.326  1.00  0.00     0.167 HD
BRANCH  27  29
HETATM   29  C15 UNL     1      23.515   6.815  47.748  1.00  0.00     0.033 A 
HETATM   30  C16 UNL     1      24.866   7.023  48.054  1.00  0.00     0.029 A 
HETATM   31  C17 UNL     1      25.715   7.707  47.239  1.00  0.00     0.002 A 
HETATM   32  C18 UNL     1      25.267   8.237  46.046  1.00  0.00     0.000 A 
HETATM   33  C19 UNL     1      23.942   8.055  45.707  1.00  0.00     0.002 A 
HETATM   34  C20 UNL     1      23.114   7.355  46.563  1.00  0.00     0.029 A 
ENDBRANCH  27  29
ENDBRANCH  13  27
TORSDOF 6
ENDMDL
MODEL 9
REMARK VINA RESULT:      -7.8      2.666      7.732
REMARK  6 active torsions:
REMARK  status: ('A' for Active; 'I' for Inactive)
REMARK    1  A    between atoms: O1_2  and  C2_3 
REMARK    2  A    between atoms: C5_6  and  N1_7 
REMARK    3  A    between atoms: C9_13  and  O3_14 
REMARK    4  A    between atoms: O3_14  and  N3_15 
REMARK    5  A    between atoms: C14_21  and  N5_22 
REMARK    6  A    between atoms: N5_22  and  C15_23 
ROOT
HETATM    1  N1  UNL     1      24.649   2.138  51.732  1.00  0.00    -0.291 N 
HETATM    2  C6  UNL     1      24.354   2.538  50.342  1.00  0.00     0.326 C 
HETATM    3  O2  UNL     1      25.364   2.766  49.580  1.00  0.00    -0.247 OA
HETATM    4  N2  UNL     1      22.909   2.521  50.363  1.00  0.00    -0.318 N 
HETATM    5  C7  UNL     1      21.679   1.848  49.891  1.00  0.00     0.131 C 
HETATM    6  C8  UNL     1      21.238   0.860  50.966  1.00  0.00     0.054 C 
HETATM    7  C9  UNL     1      22.406   0.528  51.879  1.00  0.00     0.148 C 
HETATM    8  C10 UNL     1      22.637   1.485  52.995  1.00  0.00     0.064 C 
HETATM    9  C11 UNL     1      23.700   2.504  52.824  1.00  0.00     0.130 C 
HETATM   10  C12 UNL     1      23.144   3.817  52.391  1.00  0.00    -0.009 A 
HETATM   11  C13 UNL     1      23.055   5.098  52.590  1.00  0.00     0.126 A 
HETATM   12  N4  UNL     1      22.235   5.673  51.584  1.00  0.00    -0.245 NA
HETATM   13  C14 UNL     1      21.802   4.747  50.752  1.00  0.00     0.131 A 
HETATM   14  C21 UNL     1      22.255   3.471  51.218  1.00  0.00     0.191 A 
ENDROOT
BRANCH   1  15
HETATM   15  C5  UNL     1      25.829   1.430  52.191  1.00  0.00     0.040 A 
HETATM   16  C4  UNL     1      26.567   2.382  52.913  1.00  0.00     0.032 A 
HETATM   17  C3  UNL     1      27.787   2.039  53.508  1.00  0.00     0.039 A 
HETATM   18  C2  UNL     1      28.275   0.746  53.384  1.00  0.00     0.068 A 
HETATM   19  C23 UNL     1      27.520  -0.158  52.666  1.00  0.00     0.039 A 
HETATM   20  C22 UNL     1      26.329   0.167  52.083  1.00  0.00     0.032 A 
BRANCH  18  21
HETATM   21  O1  UNL     1      29.475   0.336  53.946  1.00  0.00    -0.356 OA
HETATM   22  C1  UNL     1      29.996  -0.949  53.744  1.00  0.00     0.210 C 
ENDBRANCH  18  21
ENDBRANCH   1  15
BRANCH   7  23
HETATM   23  O3  UNL     1      22.068  -0.739  52.420  1.00  0.00    -0.303 OA
BRANCH  23  24
HETATM   24  N3  UNL     1      22.711  -1.022  53.548  1.00  0.00    -0.215 NA
HETATM   25  H11 UNL     1      22.490  -0.249  54.242  1.00  0.00     0.150 HD
HETATM   26  H12 UNL     1      23.753  -0.992  53.456  1.00  0.00     0.150 HD
ENDBRANCH  23  24
ENDBRANCH   7  23
BRANCH  13  27
HETATM   27  N5  UNL     1      20.972   5.180  49.679  1.00  0.00    -0.342 N 
HETATM   28  H17 UNL     1      19.968   5.390  49.874  1.00  0.00     0.167 HD
BRANCH  27  29
HETATM   29  C15 UNL     1      21.440   5.341  48.345  1.00  0.00     0.033 A 
HETATM   30  C16 UNL     1      21.220   4.352  47.378  1.00  0.00     0.029 A 
HETATM   31  C17 UNL     1      21.649   4.463  46.090  1.00  0.00     0.002 A 
HETATM   32  C18 UNL     1      22.336   5.586  45.675  1.00  0.00     0.000 A 
HETATM   33  C19 UNL     1      22.574   6.584  46.597  1.00  0.00     0.002 A 
HETATM   34  C20 UNL     1      22.121   6.431  47.894  1.00  0.00     0.029 A 
ENDBRANCH  27  29
ENDBRANCH  13  27
TORSDOF 6
ENDMDL
