MODEL 1
REMARK VINA RESULT:      -7.9      0.000      0.000
REMARK  8 active torsions:
REMARK  status: ('A' for Active; 'I' for Inactive)
REMARK    1  A    between atoms: O1_2  and  C2_3 
REMARK    2  A    between atoms: C6_9  and  N3_10 
REMARK    3  A    between atoms: C14_19  and  O2_20 
REMARK    4  A    between atoms: O2_20  and  C15_21 
REMARK    5  A    between atoms: C15_21  and  C16_22 
REMARK    6  A    between atoms: C16_22  and  O3_23 
REMARK    7  A    between atoms: C16_22  and  C17_24 
REMARK    8  A    between atoms: C17_24  and  N4_25 
ROOT
HETATM    1  C2  UNL     1      22.037   1.142  52.258  1.00  0.00     0.103 A 
HETATM    2  C3  UNL     1      21.987   0.275  53.323  1.00  0.00     0.072 A 
HETATM    3  C4  UNL     1      23.133  -0.197  53.933  1.00  0.00     0.075 A 
HETATM    4  N1  UNL     1      23.149  -1.045  54.977  1.00  0.00    -0.241 NA
HETATM    5  C5  UNL     1      24.342  -1.448  55.503  1.00  0.00     0.236 A 
HETATM    6  N2  UNL     1      25.514  -0.991  54.973  1.00  0.00    -0.224 NA
HETATM    7  C6  UNL     1      25.511  -0.137  53.924  1.00  0.00     0.142 A 
HETATM    8  C12 UNL     1      24.309   0.274  53.386  1.00  0.00     0.041 A 
HETATM    9  C13 UNL     1      24.421   1.136  52.329  1.00  0.00     0.057 A 
HETATM   10  C14 UNL     1      23.246   1.589  51.741  1.00  0.00     0.103 A 
ENDROOT
BRANCH  10  11
HETATM   11  O2  UNL     1      23.220   2.459  50.670  1.00  0.00    -0.346 OA
BRANCH  11  12
HETATM   12  C15 UNL     1      23.962   3.671  50.719  1.00  0.00     0.209 C 
BRANCH  12  13
HETATM   13  C16 UNL     1      23.374   4.675  51.680  1.00  0.00     0.170 C 
BRANCH  13  14
HETATM   14  O3  UNL     1      24.071   4.642  52.874  1.00  0.00    -0.392 OA
HETATM   15  H17 UNL     1      24.274   5.560  53.217  1.00  0.00     0.210 HD
ENDBRANCH  13  14
BRANCH  13  16
HETATM   16  C17 UNL     1      23.517   6.095  51.145  1.00  0.00     0.300 C 
BRANCH  16  17
HETATM   17  N4  UNL     1      24.377   6.896  51.955  1.00  0.00     0.080 N 
HETATM   18  H20 UNL     1      25.130   6.356  52.435  1.00  0.00     0.312 HD
HETATM   19  H21 UNL     1      23.878   7.546  52.599  1.00  0.00     0.312 HD
ENDBRANCH  16  17
ENDBRANCH  13  16
ENDBRANCH  12  13
ENDBRANCH  11  12
ENDBRANCH  10  11
BRANCH   1  20
HETATM   20  O1  UNL     1      20.857   1.586  51.681  1.00  0.00    -0.353 OA
HETATM   21  C1  UNL     1      20.068   2.576  52.284  1.00  0.00     0.210 C 
ENDBRANCH   1  20
BRANCH   7  22
HETATM   22  N3  UNL     1      26.835   0.224  53.515  1.00  0.00    -0.331 N 
HETATM   23  C7  UNL     1      27.720   1.339  53.883  1.00  0.00     0.154 C 
HETATM   24  C8  UNL     1      29.040   0.821  54.347  1.00  0.00    -0.011 C 
HETATM   25  C9  UNL     1      29.342  -0.431  54.060  1.00  0.00    -0.024 C 
HETATM   26  C10 UNL     1      28.527  -1.429  53.314  1.00  0.00     0.086 C 
HETATM   27  C11 UNL     1      27.474  -0.667  52.538  1.00  0.00     0.276 C 
HETATM   28  F1  UNL     1      26.561  -1.551  51.980  1.00  0.00    -0.226 F 
ENDBRANCH   7  22
TORSDOF 8
ENDMDL
MODEL 2
REMARK VINA RESULT:      -7.6      2.710      5.571
REMARK  8 active torsions:
REMARK  status: ('A' for Active; 'I' for Inactive)
REMARK    1  A    between atoms: O1_2  and  C2_3 
REMARK    2  A    between atoms: C6_9  and  N3_10 
REMARK    3  A    between atoms: C14_19  and  O2_20 
REMARK    4  A    between atoms: O2_20  and  C15_21 
REMARK    5  A    between atoms: C15_21  and  C16_22 
REMARK    6  A    between atoms: C16_22  and  O3_23 
REMARK    7  A    between atoms: C16_22  and  C17_24 
REMARK    8  A    between atoms: C17_24  and  N4_25 
ROOT
HETATM    1  C2  UNL     1      25.406  -0.566  53.450  1.00  0.00     0.103 A 
HETATM    2  C3  UNL     1      24.213  -0.900  54.044  1.00  0.00     0.072 A 
HETATM    3  C4  UNL     1      23.048  -0.204  53.784  1.00  0.00     0.075 A 
HETATM    4  N1  UNL     1      21.852  -0.482  54.333  1.00  0.00    -0.241 NA
HETATM    5  C5  UNL     1      20.764   0.272  54.004  1.00  0.00     0.236 A 
HETATM    6  N2  UNL     1      20.889   1.305  53.121  1.00  0.00    -0.224 NA
HETATM    7  C6  UNL     1      22.086   1.595  52.561  1.00  0.00     0.142 A 
HETATM    8  C12 UNL     1      23.191   0.836  52.889  1.00  0.00     0.041 A 
HETATM    9  C13 UNL     1      24.350   1.216  52.267  1.00  0.00     0.057 A 
HETATM   10  C14 UNL     1      25.500   0.492  52.555  1.00  0.00     0.103 A 
ENDROOT
BRANCH  10  11
HETATM   11  O2  UNL     1      26.731   0.770  51.997  1.00  0.00    -0.346 OA
BRANCH  11  12
HETATM   12  C15 UNL     1      27.214   2.108  51.966  1.00  0.00     0.209 C 
BRANCH  12  13
HETATM   13  C16 UNL     1      28.204   2.394  53.069  1.00  0.00     0.170 C 
BRANCH  13  14
HETATM   14  O3  UNL     1      27.538   2.880  54.179  1.00  0.00    -0.392 OA
HETATM   15  H17 UNL     1      26.596   3.146  53.966  1.00  0.00     0.210 HD
ENDBRANCH  13  14
BRANCH  13  16
HETATM   16  C17 UNL     1      28.907   1.120  53.520  1.00  0.00     0.300 C 
BRANCH  16  17
HETATM   17  N4  UNL     1      28.504   0.712  54.827  1.00  0.00     0.080 N 
HETATM   18  H20 UNL     1      28.055  -0.230  54.857  1.00  0.00     0.312 HD
HETATM   19  H21 UNL     1      27.962   1.431  55.352  1.00  0.00     0.312 HD
ENDBRANCH  16  17
ENDBRANCH  13  16
ENDBRANCH  12  13
ENDBRANCH  11  12
ENDBRANCH  10  11
BRANCH   1  20
HETATM   20  O1  UNL     1      26.546  -1.296  53.746  1.00  0.00    -0.353 OA
HETATM   21  C1  UNL     1      27.115  -2.183  52.820  1.00  0.00     0.210 C 
ENDBRANCH   1  20
BRANCH   7  22
HETATM   22  N3  UNL     1      22.010   2.710  51.665  1.00  0.00    -0.331 N 
HETATM   23  C7  UNL     1      22.263   4.147  51.843  1.00  0.00     0.154 C 
HETATM   24  C8  UNL     1      23.245   4.630  50.830  1.00  0.00    -0.011 C 
HETATM   25  C9  UNL     1      23.470   3.861  49.781  1.00  0.00    -0.024 C 
HETATM   26  C10 UNL     1      22.863   2.541  49.456  1.00  0.00     0.086 C 
HETATM   27  C11 UNL     1      21.605   2.404  50.287  1.00  0.00     0.276 C 
HETATM   28  F1  UNL     1      21.100   1.116  50.178  1.00  0.00    -0.226 F 
ENDBRANCH   7  22
TORSDOF 8
ENDMDL
MODEL 3
REMARK VINA RESULT:      -7.5      3.018      6.304
REMARK  8 active torsions:
REMARK  status: ('A' for Active; 'I' for Inactive)
REMARK    1  A    between atoms: O1_2  and  C2_3 
REMARK    2  A    between atoms: C6_9  and  N3_10 
REMARK    3  A    between atoms: C14_19  and  O2_20 
REMARK    4  A    between atoms: O2_20  and  C15_21 
REMARK    5  A    between atoms: C15_21  and  C16_22 
REMARK    6  A    between atoms: C16_22  and  O3_23 
REMARK    7  A    between atoms: C16_22  and  C17_24 
REMARK    8  A    between atoms: C17_24  and  N4_25 
ROOT
HETATM    1  C2  UNL     1      24.833   0.162  53.808  1.00  0.00     0.103 A 
HETATM    2  C3  UNL     1      23.648  -0.169  53.195  1.00  0.00     0.072 A 
HETATM    3  C4  UNL     1      23.025   0.684  52.304  1.00  0.00     0.075 A 
HETATM    4  N1  UNL     1      21.868   0.418  51.673  1.00  0.00    -0.241 NA
HETATM    5  C5  UNL     1      21.341   1.335  50.811  1.00  0.00     0.236 A 
HETATM    6  N2  UNL     1      21.986   2.517  50.590  1.00  0.00    -0.224 NA
HETATM    7  C6  UNL     1      23.151   2.796  51.218  1.00  0.00     0.142 A 
HETATM    8  C12 UNL     1      23.690   1.874  52.091  1.00  0.00     0.041 A 
HETATM    9  C13 UNL     1      24.869   2.258  52.671  1.00  0.00     0.057 A 
HETATM   10  C14 UNL     1      25.465   1.373  53.562  1.00  0.00     0.103 A 
ENDROOT
BRANCH  10  11
HETATM   11  O2  UNL     1      26.652   1.638  54.214  1.00  0.00    -0.346 OA
BRANCH  11  12
HETATM   12  C15 UNL     1      27.788   2.074  53.477  1.00  0.00     0.209 C 
BRANCH  12  13
HETATM   13  C16 UNL     1      29.076   1.469  53.981  1.00  0.00     0.170 C 
BRANCH  13  14
HETATM   14  O3  UNL     1      29.714   2.364  54.820  1.00  0.00    -0.392 OA
HETATM   15  H17 UNL     1      29.308   2.377  55.735  1.00  0.00     0.210 HD
ENDBRANCH  13  14
BRANCH  13  16
HETATM   16  C17 UNL     1      28.806   0.223  54.815  1.00  0.00     0.300 C 
BRANCH  16  17
HETATM   17  N4  UNL     1      28.360  -0.875  54.020  1.00  0.00     0.080 N 
HETATM   18  H20 UNL     1      27.372  -1.156  54.202  1.00  0.00     0.312 HD
HETATM   19  H21 UNL     1      29.013  -1.688  54.008  1.00  0.00     0.312 HD
ENDBRANCH  16  17
ENDBRANCH  13  16
ENDBRANCH  12  13
ENDBRANCH  11  12
ENDBRANCH  10  11
BRANCH   1  20
HETATM   20  O1  UNL     1      25.416  -0.730  54.695  1.00  0.00    -0.353 OA
HETATM   21  C1  UNL     1      24.716  -1.235  55.800  1.00  0.00     0.210 C 
ENDBRANCH   1  20
BRANCH   7  22
HETATM   22  N3  UNL     1      23.668   4.082  50.854  1.00  0.00    -0.331 N 
HETATM   23  C7  UNL     1      24.624   4.513  49.823  1.00  0.00     0.154 C 
HETATM   24  C8  UNL     1      24.022   5.582  48.975  1.00  0.00    -0.011 C 
HETATM   25  C9  UNL     1      22.947   6.196  49.434  1.00  0.00    -0.024 C 
HETATM   26  C10 UNL     1      22.231   5.965  50.718  1.00  0.00     0.086 C 
HETATM   27  C11 UNL     1      23.175   5.221  51.637  1.00  0.00     0.276 C 
HETATM   28  F1  UNL     1      22.501   4.803  52.777  1.00  0.00    -0.226 F 
ENDBRANCH   7  22
TORSDOF 8
ENDMDL
MODEL 4
REMARK VINA RESULT:      -7.4      2.807      5.745
REMARK  8 active torsions:
REMARK  status: ('A' for Active; 'I' for Inactive)
REMARK    1  A    between atoms: O1_2  and  C2_3 
REMARK    2  A    between atoms: C6_9  and  N3_10 
REMARK    3  A    between atoms: C14_19  and  O2_20 
REMARK    4  A    between atoms: O2_20  and  C15_21 
REMARK    5  A    between atoms: C15_21  and  C16_22 
REMARK    6  A    between atoms: C16_22  and  O3_23 
REMARK    7  A    between atoms: C16_22  and  C17_24 
REMARK    8  A    between atoms: C17_24  and  N4_25 
ROOT
HETATM    1  C2  UNL     1      24.233  -0.032  53.539  1.00  0.00     0.103 A 
HETATM    2  C3  UNL     1      22.974  -0.386  53.115  1.00  0.00     0.072 A 
HETATM    3  C4  UNL     1      22.252   0.399  52.238  1.00  0.00     0.075 A 
HETATM    4  N1  UNL     1      21.020   0.107  51.787  1.00  0.00    -0.241 NA
HETATM    5  C5  UNL     1      20.397   0.958  50.921  1.00  0.00     0.236 A 
HETATM    6  N2  UNL     1      21.022   2.100  50.513  1.00  0.00    -0.224 NA
HETATM    7  C6  UNL     1      22.262   2.405  50.959  1.00  0.00     0.142 A 
HETATM    8  C12 UNL     1      22.899   1.550  51.835  1.00  0.00     0.041 A 
HETATM    9  C13 UNL     1      24.147   1.955  52.223  1.00  0.00     0.057 A 
HETATM   10  C14 UNL     1      24.842   1.138  53.106  1.00  0.00     0.103 A 
ENDROOT
BRANCH  10  11
HETATM   11  O2  UNL     1      26.108   1.430  53.574  1.00  0.00    -0.346 OA
BRANCH  11  12
HETATM   12  C15 UNL     1      27.245   1.178  52.758  1.00  0.00     0.209 C 
BRANCH  12  13
HETATM   13  C16 UNL     1      28.536   1.612  53.410  1.00  0.00     0.170 C 
BRANCH  13  14
HETATM   14  O3  UNL     1      28.329   2.778  54.123  1.00  0.00    -0.392 OA
HETATM   15  H17 UNL     1      27.979   3.517  53.545  1.00  0.00     0.210 HD
ENDBRANCH  13  14
BRANCH  13  16
HETATM   16  C17 UNL     1      29.016   0.576  54.419  1.00  0.00     0.300 C 
BRANCH  16  17
HETATM   17  N4  UNL     1      27.946  -0.223  54.926  1.00  0.00     0.080 N 
HETATM   18  H20 UNL     1      27.668   0.012  55.903  1.00  0.00     0.312 HD
HETATM   19  H21 UNL     1      28.070  -1.247  54.780  1.00  0.00     0.312 HD
ENDBRANCH  16  17
ENDBRANCH  13  16
ENDBRANCH  12  13
ENDBRANCH  11  12
ENDBRANCH  10  11
BRANCH   1  20
HETATM   20  O1  UNL     1      24.915  -0.856  54.421  1.00  0.00    -0.353 OA
HETATM   21  C1  UNL     1      24.359  -1.244  55.649  1.00  0.00     0.210 C 
ENDBRANCH   1  20
BRANCH   7  22
HETATM   22  N3  UNL     1      22.744   3.641  50.418  1.00  0.00    -0.331 N 
HETATM   23  C7  UNL     1      22.722   5.022  50.921  1.00  0.00     0.154 C 
HETATM   24  C8  UNL     1      24.099   5.595  50.922  1.00  0.00    -0.011 C 
HETATM   25  C9  UNL     1      25.020   4.976  50.207  1.00  0.00    -0.024 C 
HETATM   26  C10 UNL     1      24.874   3.750  49.375  1.00  0.00     0.086 C 
HETATM   27  C11 UNL     1      23.397   3.559  49.105  1.00  0.00     0.276 C 
HETATM   28  F1  UNL     1      23.177   2.329  48.502  1.00  0.00    -0.226 F 
ENDBRANCH   7  22
TORSDOF 8
ENDMDL
MODEL 5
REMARK VINA RESULT:      -7.3      3.182      6.620
REMARK  8 active torsions:
REMARK  status: ('A' for Active; 'I' for Inactive)
REMARK    1  A    between atoms: O1_2  and  C2_3 
REMARK    2  A    between atoms: C6_9  and  N3_10 
REMARK    3  A    between atoms: C14_19  and  O2_20 
REMARK    4  A    between atoms: O2_20  and  C15_21 
REMARK    5  A    between atoms: C15_21  and  C16_22 
REMARK    6  A    between atoms: C16_22  and  O3_23 
REMARK    7  A    between atoms: C16_22  and  C17_24 
REMARK    8  A    between atoms: C17_24  and  N4_25 
ROOT
HETATM    1  C2  UNL     1      26.370   0.378  53.267  1.00  0.00     0.103 A 
HETATM    2  C3  UNL     1      27.054   1.317  52.532  1.00  0.00     0.072 A 
HETATM    3  C4  UNL     1      26.421   2.115  51.600  1.00  0.00     0.075 A 
HETATM    4  N1  UNL     1      27.034   3.050  50.852  1.00  0.00    -0.241 NA
HETATM    5  C5  UNL     1      26.309   3.783  49.958  1.00  0.00     0.236 A 
HETATM    6  N2  UNL     1      24.968   3.570  49.824  1.00  0.00    -0.224 NA
HETATM    7  C6  UNL     1      24.340   2.633  50.570  1.00  0.00     0.142 A 
HETATM    8  C12 UNL     1      25.066   1.887  51.476  1.00  0.00     0.041 A 
HETATM    9  C13 UNL     1      24.332   0.969  52.178  1.00  0.00     0.057 A 
HETATM   10  C14 UNL     1      25.005   0.184  53.107  1.00  0.00     0.103 A 
ENDROOT
BRANCH  10  11
HETATM   11  O2  UNL     1      24.384  -0.777  53.879  1.00  0.00    -0.346 OA
BRANCH  11  12
HETATM   12  C15 UNL     1      23.107  -1.278  53.503  1.00  0.00     0.209 C 
BRANCH  12  13
HETATM   13  C16 UNL     1      22.186  -1.470  54.683  1.00  0.00     0.170 C 
BRANCH  13  14
HETATM   14  O3  UNL     1      22.933  -1.657  55.832  1.00  0.00    -0.392 OA
HETATM   15  H17 UNL     1      22.792  -0.921  56.496  1.00  0.00     0.210 HD
ENDBRANCH  13  14
BRANCH  13  16
HETATM   16  C17 UNL     1      21.339  -0.226  54.925  1.00  0.00     0.300 C 
BRANCH  16  17
HETATM   17  N4  UNL     1      20.040  -0.334  54.344  1.00  0.00     0.080 N 
HETATM   18  H20 UNL     1      19.900  -1.198  53.777  1.00  0.00     0.312 HD
HETATM   19  H21 UNL     1      19.718   0.526  53.851  1.00  0.00     0.312 HD
ENDBRANCH  16  17
ENDBRANCH  13  16
ENDBRANCH  12  13
ENDBRANCH  11  12
ENDBRANCH  10  11
BRANCH   1  20
HETATM   20  O1  UNL     1      27.053  -0.399  54.190  1.00  0.00    -0.353 OA
HETATM   21  C1  UNL     1      28.208   0.068  54.835  1.00  0.00     0.210 C 
ENDBRANCH   1  20
BRANCH   7  22
HETATM   22  N3  UNL     1      22.938   2.562  50.283  1.00  0.00    -0.331 N 
HETATM   23  C7  UNL     1      22.157   1.745  49.343  1.00  0.00     0.154 C 
HETATM   24  C8  UNL     1      21.068   1.025  50.063  1.00  0.00    -0.011 C 
HETATM   25  C9  UNL     1      20.751   1.446  51.274  1.00  0.00    -0.024 C 
HETATM   26  C10 UNL     1      21.346   2.574  52.043  1.00  0.00     0.086 C 
HETATM   27  C11 UNL     1      22.074   3.461  51.058  1.00  0.00     0.276 C 
HETATM   28  F1  UNL     1      22.814   4.421  51.736  1.00  0.00    -0.226 F 
ENDBRANCH   7  22
TORSDOF 8
ENDMDL
MODEL 6
REMARK VINA RESULT:      -7.2      2.683      5.165
REMARK  8 active torsions:
REMARK  status: ('A' for Active; 'I' for Inactive)
REMARK    1  A    between atoms: O1_2  and  C2_3 
REMARK    2  A    between atoms: C6_9  and  N3_10 
REMARK    3  A    between atoms: C14_19  and  O2_20 
REMARK    4  A    between atoms: O2_20  and  C15_21 
REMARK    5  A    between atoms: C15_21  and  C16_22 
REMARK    6  A    between atoms: C16_22  and  O3_23 
REMARK    7  A    between atoms: C16_22  and  C17_24 
REMARK    8  A    between atoms: C17_24  and  N4_25 
ROOT
HETATM    1  C2  UNL     1      26.145  -0.134  53.003  1.00  0.00     0.103 A 
HETATM    2  C3  UNL     1      25.307  -0.747  53.905  1.00  0.00     0.072 A 
HETATM    3  C4  UNL     1      23.958  -0.459  53.959  1.00  0.00     0.075 A 
HETATM    4  N1  UNL     1      23.089  -1.024  54.815  1.00  0.00    -0.241 NA
HETATM    5  C5  UNL     1      21.773  -0.663  54.782  1.00  0.00     0.236 A 
HETATM    6  N2  UNL     1      21.341   0.267  53.883  1.00  0.00    -0.224 NA
HETATM    7  C6  UNL     1      22.204   0.843  53.015  1.00  0.00     0.142 A 
HETATM    8  C12 UNL     1      23.536   0.483  53.043  1.00  0.00     0.041 A 
HETATM    9  C13 UNL     1      24.321   1.127  52.124  1.00  0.00     0.057 A 
HETATM   10  C14 UNL     1      25.674   0.810  52.100  1.00  0.00     0.103 A 
ENDROOT
BRANCH  10  11
HETATM   11  O2  UNL     1      26.572   1.385  51.225  1.00  0.00    -0.346 OA
BRANCH  11  12
HETATM   12  C15 UNL     1      26.818   2.785  51.273  1.00  0.00     0.209 C 
BRANCH  12  13
HETATM   13  C16 UNL     1      26.044   3.548  50.226  1.00  0.00     0.170 C 
BRANCH  13  14
HETATM   14  O3  UNL     1      25.361   4.593  50.820  1.00  0.00    -0.392 OA
HETATM   15  H17 UNL     1      24.414   4.654  50.499  1.00  0.00     0.210 HD
ENDBRANCH  13  14
BRANCH  13  16
HETATM   16  C17 UNL     1      26.981   4.180  49.203  1.00  0.00     0.300 C 
BRANCH  16  17
HETATM   17  N4  UNL     1      27.140   5.583  49.410  1.00  0.00     0.080 N 
HETATM   18  H20 UNL     1      27.868   6.021  48.804  1.00  0.00     0.312 HD
HETATM   19  H21 UNL     1      27.232   5.862  50.410  1.00  0.00     0.312 HD
ENDBRANCH  16  17
ENDBRANCH  13  16
ENDBRANCH  12  13
ENDBRANCH  11  12
ENDBRANCH  10  11
BRANCH   1  20
HETATM   20  O1  UNL     1      27.492  -0.459  52.991  1.00  0.00    -0.353 OA
HETATM   21  C1  UNL     1      28.335  -0.153  54.070  1.00  0.00     0.210 C 
ENDBRANCH   1  20
BRANCH   7  22
HETATM   22  N3  UNL     1      21.559   1.790  52.156  1.00  0.00    -0.331 N 
HETATM   23  C7  UNL     1      21.371   3.245  52.244  1.00  0.00     0.154 C 
HETATM   24  C8  UNL     1      21.869   3.908  51.005  1.00  0.00    -0.011 C 
HETATM   25  C9  UNL     1      22.069   3.150  49.943  1.00  0.00    -0.024 C 
HETATM   26  C10 UNL     1      21.859   1.683  49.803  1.00  0.00     0.086 C 
HETATM   27  C11 UNL     1      20.954   1.245  50.934  1.00  0.00     0.276 C 
HETATM   28  F1  UNL     1      20.879  -0.140  50.976  1.00  0.00    -0.226 F 
ENDBRANCH   7  22
TORSDOF 8
ENDMDL
MODEL 7
REMARK VINA RESULT:      -7.1      3.344      5.876
REMARK  8 active torsions:
REMARK  status: ('A' for Active; 'I' for Inactive)
REMARK    1  A    between atoms: O1_2  and  C2_3 
REMARK    2  A    between atoms: C6_9  and  N3_10 
REMARK    3  A    between atoms: C14_19  and  O2_20 
REMARK    4  A    between atoms: O2_20  and  C15_21 
REMARK    5  A    between atoms: C15_21  and  C16_22 
REMARK    6  A    between atoms: C16_22  and  O3_23 
REMARK    7  A    between atoms: C16_22  and  C17_24 
REMARK    8  A    between atoms: C17_24  and  N4_25 
ROOT
HETATM    1  C2  UNL     1      22.539   0.584  52.087  1.00  0.00     0.103 A 
HETATM    2  C3  UNL     1      21.834   0.962  50.970  1.00  0.00     0.072 A 
HETATM    3  C4  UNL     1      22.306   1.928  50.102  1.00  0.00     0.075 A 
HETATM    4  N1  UNL     1      21.665   2.340  48.995  1.00  0.00    -0.241 NA
HETATM    5  C5  UNL     1      22.225   3.303  48.207  1.00  0.00     0.236 A 
HETATM    6  N2  UNL     1      23.431   3.845  48.541  1.00  0.00    -0.224 NA
HETATM    7  C6  UNL     1      24.087   3.439  49.652  1.00  0.00     0.142 A 
HETATM    8  C12 UNL     1      23.527   2.466  50.454  1.00  0.00     0.041 A 
HETATM    9  C13 UNL     1      24.274   2.130  51.551  1.00  0.00     0.057 A 
HETATM   10  C14 UNL     1      23.765   1.155  52.401  1.00  0.00     0.103 A 
ENDROOT
BRANCH  10  11
HETATM   11  O2  UNL     1      24.417   0.726  53.539  1.00  0.00    -0.346 OA
BRANCH  11  12
HETATM   12  C15 UNL     1      25.482  -0.211  53.440  1.00  0.00     0.209 C 
BRANCH  12  13
HETATM   13  C16 UNL     1      26.708   0.219  54.209  1.00  0.00     0.170 C 
BRANCH  13  14
HETATM   14  O3  UNL     1      27.612  -0.826  54.268  1.00  0.00    -0.392 OA
HETATM   15  H17 UNL     1      27.207  -1.652  54.666  1.00  0.00     0.210 HD
ENDBRANCH  13  14
BRANCH  13  16
HETATM   16  C17 UNL     1      27.426   1.362  53.501  1.00  0.00     0.300 C 
BRANCH  16  17
HETATM   17  N4  UNL     1      26.957   2.641  53.926  1.00  0.00     0.080 N 
HETATM   18  H20 UNL     1      27.289   2.920  54.875  1.00  0.00     0.312 HD
HETATM   19  H21 UNL     1      25.932   2.785  53.801  1.00  0.00     0.312 HD
ENDBRANCH  16  17
ENDBRANCH  13  16
ENDBRANCH  12  13
ENDBRANCH  11  12
ENDBRANCH  10  11
BRANCH   1  20
HETATM   20  O1  UNL     1      22.020  -0.390  52.926  1.00  0.00    -0.353 OA
HETATM   21  C1  UNL     1      21.148  -0.069  53.978  1.00  0.00     0.210 C 
ENDBRANCH   1  20
BRANCH   7  22
HETATM   22  N3  UNL     1      25.332   4.126  49.829  1.00  0.00    -0.331 N 
HETATM   23  C7  UNL     1      26.724   3.749  49.543  1.00  0.00     0.154 C 
HETATM   24  C8  UNL     1      27.376   4.785  48.690  1.00  0.00    -0.011 C 
HETATM   25  C9  UNL     1      26.790   5.965  48.604  1.00  0.00    -0.024 C 
HETATM   26  C10 UNL     1      25.534   6.421  49.259  1.00  0.00     0.086 C 
HETATM   27  C11 UNL     1      25.249   5.474  50.405  1.00  0.00     0.276 C 
HETATM   28  F1  UNL     1      23.990   5.727  50.932  1.00  0.00    -0.226 F 
ENDBRANCH   7  22
TORSDOF 8
ENDMDL
MODEL 8
REMARK VINA RESULT:      -7.1      2.291      4.680
REMARK  8 active torsions:
REMARK  status: ('A' for Active; 'I' for Inactive)
REMARK    1  A    between atoms: O1_2  and  C2_3 
REMARK    2  A    between atoms: C6_9  and  N3_10 
REMARK    3  A    between atoms: C14_19  and  O2_20 
REMARK    4  A    between atoms: O2_20  and  C15_21 
REMARK    5  A    between atoms: C15_21  and  C16_22 
REMARK    6  A    between atoms: C16_22  and  O3_23 
REMARK    7  A    between atoms: C16_22  and  C17_24 
REMARK    8  A    between atoms: C17_24  and  N4_25 
ROOT
HETATM    1  C2  UNL     1      21.946   2.417  51.329  1.00  0.00     0.103 A 
HETATM    2  C3  UNL     1      22.895   3.083  50.592  1.00  0.00     0.072 A 
HETATM    3  C4  UNL     1      24.243   2.813  50.724  1.00  0.00     0.075 A 
HETATM    4  N1  UNL     1      25.218   3.429  50.032  1.00  0.00    -0.241 NA
HETATM    5  C5  UNL     1      26.521   3.083  50.244  1.00  0.00     0.236 A 
HETATM    6  N2  UNL     1      26.833   2.115  51.153  1.00  0.00    -0.224 NA
HETATM    7  C6  UNL     1      25.862   1.487  51.855  1.00  0.00     0.142 A 
HETATM    8  C12 UNL     1      24.542   1.832  51.647  1.00  0.00     0.041 A 
HETATM    9  C13 UNL     1      23.643   1.136  52.409  1.00  0.00     0.057 A 
HETATM   10  C14 UNL     1      22.296   1.437  52.247  1.00  0.00     0.103 A 
ENDROOT
BRANCH  10  11
HETATM   11  O2  UNL     1      21.289   0.809  52.953  1.00  0.00    -0.346 OA
BRANCH  11  12
HETATM   12  C15 UNL     1      21.568   0.211  54.213  1.00  0.00     0.209 C 
BRANCH  12  13
HETATM   13  C16 UNL     1      21.583  -1.297  54.151  1.00  0.00     0.170 C 
BRANCH  13  14
HETATM   14  O3  UNL     1      22.180  -1.805  55.290  1.00  0.00    -0.392 OA
HETATM   15  H17 UNL     1      23.041  -1.339  55.503  1.00  0.00     0.210 HD
ENDBRANCH  13  14
BRANCH  13  16
HETATM   16  C17 UNL     1      20.167  -1.859  54.127  1.00  0.00     0.300 C 
BRANCH  16  17
HETATM   17  N4  UNL     1      19.201  -0.878  53.749  1.00  0.00     0.080 N 
HETATM   18  H20 UNL     1      18.537  -0.621  54.511  1.00  0.00     0.312 HD
HETATM   19  H21 UNL     1      18.718  -1.078  52.847  1.00  0.00     0.312 HD
ENDBRANCH  16  17
ENDBRANCH  13  16
ENDBRANCH  12  13
ENDBRANCH  11  12
ENDBRANCH  10  11
BRANCH   1  20
HETATM   20  O1  UNL     1      20.606   2.727  51.159  1.00  0.00    -0.353 OA
HETATM   21  C1  UNL     1      20.193   3.978  50.679  1.00  0.00     0.210 C 
ENDBRANCH   1  20
BRANCH   7  22
HETATM   22  N3  UNL     1      26.391   0.507  52.755  1.00  0.00    -0.331 N 
HETATM   23  C7  UNL     1      26.674  -0.928  52.608  1.00  0.00     0.154 C 
HETATM   24  C8  UNL     1      28.088  -1.219  52.984  1.00  0.00    -0.011 C 
HETATM   25  C9  UNL     1      28.739  -0.301  53.673  1.00  0.00    -0.024 C 
HETATM   26  C10 UNL     1      28.247   1.023  54.143  1.00  0.00     0.086 C 
HETATM   27  C11 UNL     1      26.734   0.985  54.101  1.00  0.00     0.276 C 
HETATM   28  F1  UNL     1      26.218   2.251  54.339  1.00  0.00    -0.226 F 
ENDBRANCH   7  22
TORSDOF 8
ENDMDL
MODEL 9
REMARK VINA RESULT:      -6.9      1.669      2.038
REMARK  8 active torsions:
REMARK  status: ('A' for Active; 'I' for Inactive)
REMARK    1  A    between atoms: O1_2  and  C2_3 
REMARK    2  A    between atoms: C6_9  and  N3_10 
REMARK    3  A    between atoms: C14_19  and  O2_20 
REMARK    4  A    between atoms: O2_20  and  C15_21 
REMARK    5  A    between atoms: C15_21  and  C16_22 
REMARK    6  A    between atoms: C16_22  and  O3_23 
REMARK    7  A    between atoms: C16_22  and  C17_24 
REMARK    8  A    between atoms: C17_24  and  N4_25 
ROOT
HETATM    1  C2  UNL     1      21.101   2.113  52.559  1.00  0.00     0.103 A 
HETATM    2  C3  UNL     1      20.893   1.108  53.474  1.00  0.00     0.072 A 
HETATM    3  C4  UNL     1      21.927   0.315  53.933  1.00  0.00     0.075 A 
HETATM    4  N1  UNL     1      21.788  -0.681  54.825  1.00  0.00    -0.241 NA
HETATM    5  C5  UNL     1      22.880  -1.403  55.209  1.00  0.00     0.236 A 
HETATM    6  N2  UNL     1      24.109  -1.116  54.691  1.00  0.00    -0.224 NA
HETATM    7  C6  UNL     1      24.262  -0.115  53.793  1.00  0.00     0.142 A 
HETATM    8  C12 UNL     1      23.162   0.619  53.399  1.00  0.00     0.041 A 
HETATM    9  C13 UNL     1      23.430   1.605  52.488  1.00  0.00     0.057 A 
HETATM   10  C14 UNL     1      22.364   2.382  52.050  1.00  0.00     0.103 A 
ENDROOT
BRANCH  10  11
HETATM   11  O2  UNL     1      22.498   3.406  51.135  1.00  0.00    -0.346 OA
BRANCH  11  12
HETATM   12  C15 UNL     1      23.672   4.209  51.129  1.00  0.00     0.209 C 
BRANCH  12  13
HETATM   13  C16 UNL     1      23.463   5.550  51.789  1.00  0.00     0.170 C 
BRANCH  13  14
HETATM   14  O3  UNL     1      24.050   5.551  53.040  1.00  0.00    -0.392 OA
HETATM   15  H17 UNL     1      23.552   6.129  53.689  1.00  0.00     0.210 HD
ENDBRANCH  13  14
BRANCH  13  16
HETATM   16  C17 UNL     1      24.144   6.661  50.999  1.00  0.00     0.300 C 
BRANCH  16  17
HETATM   17  N4  UNL     1      25.491   6.337  50.658  1.00  0.00     0.080 N 
HETATM   18  H20 UNL     1      25.924   6.991  49.971  1.00  0.00     0.312 HD
HETATM   19  H21 UNL     1      25.641   5.336  50.408  1.00  0.00     0.312 HD
ENDBRANCH  16  17
ENDBRANCH  13  16
ENDBRANCH  12  13
ENDBRANCH  11  12
ENDBRANCH  10  11
BRANCH   1  20
HETATM   20  O1  UNL     1      20.029   2.880  52.131  1.00  0.00    -0.353 OA
HETATM   21  C1  UNL     1      19.038   2.357  51.288  1.00  0.00     0.210 C 
ENDBRANCH   1  20
BRANCH   7  22
HETATM   22  N3  UNL     1      25.623   0.029  53.369  1.00  0.00    -0.331 N 
HETATM   23  C7  UNL     1      26.321  -0.336  52.128  1.00  0.00     0.154 C 
HETATM   24  C8  UNL     1      27.028   0.850  51.563  1.00  0.00    -0.011 C 
HETATM   25  C9  UNL     1      27.214   1.888  52.358  1.00  0.00    -0.024 C 
HETATM   26  C10 UNL     1      26.807   2.044  53.782  1.00  0.00     0.086 C 
HETATM   27  C11 UNL     1      26.535   0.660  54.331  1.00  0.00     0.276 C 
HETATM   28  F1  UNL     1      25.963   0.752  55.592  1.00  0.00    -0.226 F 
ENDBRANCH   7  22
TORSDOF 8
ENDMDL
