MODEL 1
REMARK VINA RESULT:      -7.7      0.000      0.000
REMARK  5 active torsions:
REMARK  status: ('A' for Active; 'I' for Inactive)
REMARK    1  A    between atoms: C2_2  and  C3_4 
REMARK    2  A    between atoms: C3_4  and  C4_5 
REMARK    3  A    between atoms: N1_6  and  C5_7 
REMARK    4  A    between atoms: C10_14  and  N4_15 
REMARK       I    between atoms: N4_15  and  C11_16 
REMARK    5  A    between atoms: C11_16  and  C12_18 
ROOT
HETATM    1  C12 UNL     1      27.439   4.830  48.942  1.00  0.00    -0.006 C 
HETATM    2  C13 UNL     1      28.203   5.602  48.381  1.00  0.00    -0.101 C 
HETATM    3  C14 UNL     1      29.105   6.547  47.694  1.00  0.00     0.112 C 
ENDROOT
BRANCH   1   4
HETATM    4  C11 UNL     1      26.541   3.898  49.589  1.00  0.00     0.300 C 
HETATM    5  N4  UNL     1      25.442   4.348  50.399  1.00  0.00    -0.316 N 
HETATM    6  H9  UNL     1      25.316   5.397  50.495  1.00  0.00     0.170 HD
HETATM    7  O1  UNL     1      26.828   2.693  49.369  1.00  0.00    -0.258 OA
BRANCH   5   8
HETATM    8  C10 UNL     1      24.710   3.247  50.930  1.00  0.00     0.036 A 
HETATM    9  C9  UNL     1      23.504   2.991  50.262  1.00  0.00     0.032 A 
HETATM   10  C8  UNL     1      22.679   1.959  50.659  1.00  0.00     0.035 A 
HETATM   11  C7  UNL     1      23.087   1.188  51.735  1.00  0.00     0.072 A 
HETATM   12  N3  UNL     1      22.307   0.177  52.141  1.00  0.00    -0.241 NA
HETATM   13  C16 UNL     1      24.263   1.392  52.430  1.00  0.00     0.043 A 
HETATM   14  C6  UNL     1      22.684  -0.586  53.188  1.00  0.00     0.236 A 
HETATM   15  N2  UNL     1      23.826  -0.379  53.857  1.00  0.00    -0.222 NA
HETATM   16  C5  UNL     1      24.656   0.613  53.504  1.00  0.00     0.162 A 
HETATM   17  C15 UNL     1      25.058   2.428  52.007  1.00  0.00     0.047 A 
BRANCH  16  18
HETATM   18  N1  UNL     1      25.891   0.951  54.111  1.00  0.00    -0.245 NA
HETATM   19  C4  UNL     1      26.970   0.284  53.894  1.00  0.00     0.093 C 
BRANCH  19  20
HETATM   20  C3  UNL     1      27.331  -0.880  53.087  1.00  0.00     0.063 C 
BRANCH  20  21
HETATM   21  C2  UNL     1      28.721  -1.365  53.302  1.00  0.00     0.010 C 
HETATM   22  C1  UNL     1      28.991  -2.685  53.183  1.00  0.00     0.069 C 
HETATM   23 BR1  UNL     1      29.611   0.275  53.684  1.00  0.00    -0.090 Br
ENDBRANCH  20  21
ENDBRANCH  19  20
ENDBRANCH  16  18
ENDBRANCH   5   8
ENDBRANCH   1   4
TORSDOF 5
ENDMDL
MODEL 2
REMARK VINA RESULT:      -7.2      2.715      5.658
REMARK  5 active torsions:
REMARK  status: ('A' for Active; 'I' for Inactive)
REMARK    1  A    between atoms: C2_2  and  C3_4 
REMARK    2  A    between atoms: C3_4  and  C4_5 
REMARK    3  A    between atoms: N1_6  and  C5_7 
REMARK    4  A    between atoms: C10_14  and  N4_15 
REMARK       I    between atoms: N4_15  and  C11_16 
REMARK    5  A    between atoms: C11_16  and  C12_18 
ROOT
HETATM    1  C12 UNL     1      27.635  -0.416  53.162  1.00  0.00    -0.006 C 
HETATM    2  C13 UNL     1      28.769  -0.783  53.433  1.00  0.00    -0.101 C 
HETATM    3  C14 UNL     1      30.129  -1.250  53.766  1.00  0.00     0.112 C 
ENDROOT
BRANCH   1   4
HETATM    4  C11 UNL     1      26.293   0.032  52.862  1.00  0.00     0.300 C 
HETATM    5  N4  UNL     1      25.249   0.004  53.851  1.00  0.00    -0.316 N 
HETATM    6  H9  UNL     1      25.512  -0.356  54.814  1.00  0.00     0.170 HD
HETATM    7  O1  UNL     1      26.152   0.433  51.678  1.00  0.00    -0.258 OA
BRANCH   5   8
HETATM    8  C10 UNL     1      24.021   0.488  53.316  1.00  0.00     0.036 A 
HETATM    9  C9  UNL     1      23.056  -0.509  53.113  1.00  0.00     0.032 A 
HETATM   10  C8  UNL     1      21.815  -0.200  52.597  1.00  0.00     0.035 A 
HETATM   11  C7  UNL     1      21.559   1.127  52.290  1.00  0.00     0.072 A 
HETATM   12  N3  UNL     1      20.361   1.457  51.789  1.00  0.00    -0.241 NA
HETATM   13  C16 UNL     1      22.469   2.150  52.469  1.00  0.00     0.043 A 
HETATM   14  C6  UNL     1      20.090   2.743  51.483  1.00  0.00     0.236 A 
HETATM   15  N2  UNL     1      20.980   3.729  51.658  1.00  0.00    -0.222 NA
HETATM   16  C5  UNL     1      22.198   3.471  52.156  1.00  0.00     0.162 A 
HETATM   17  C15 UNL     1      23.694   1.805  52.984  1.00  0.00     0.047 A 
BRANCH  16  18
HETATM   18  N1  UNL     1      23.237   4.404  52.398  1.00  0.00    -0.245 NA
HETATM   19  C4  UNL     1      23.865   4.997  51.444  1.00  0.00     0.093 C 
BRANCH  19  20
HETATM   20  C3  UNL     1      23.800   4.979  49.984  1.00  0.00     0.063 C 
BRANCH  20  21
HETATM   21  C2  UNL     1      24.215   3.690  49.369  1.00  0.00     0.010 C 
HETATM   22  C1  UNL     1      23.283   2.899  48.789  1.00  0.00     0.069 C 
HETATM   23 BR1  UNL     1      26.090   3.729  49.700  1.00  0.00    -0.090 Br
ENDBRANCH  20  21
ENDBRANCH  19  20
ENDBRANCH  16  18
ENDBRANCH   5   8
ENDBRANCH   1   4
TORSDOF 5
ENDMDL
MODEL 3
REMARK VINA RESULT:      -6.9      3.128      5.107
REMARK  5 active torsions:
REMARK  status: ('A' for Active; 'I' for Inactive)
REMARK    1  A    between atoms: C2_2  and  C3_4 
REMARK    2  A    between atoms: C3_4  and  C4_5 
REMARK    3  A    between atoms: N1_6  and  C5_7 
REMARK    4  A    between atoms: C10_14  and  N4_15 
REMARK       I    between atoms: N4_15  and  C11_16 
REMARK    5  A    between atoms: C11_16  and  C12_18 
ROOT
HETATM    1  C12 UNL     1      27.108   4.595  49.137  1.00  0.00    -0.006 C 
HETATM    2  C13 UNL     1      27.719   5.442  48.500  1.00  0.00    -0.101 C 
HETATM    3  C14 UNL     1      28.474   6.448  47.728  1.00  0.00     0.112 C 
ENDROOT
BRANCH   1   4
HETATM    4  C11 UNL     1      26.392   3.605  49.911  1.00  0.00     0.300 C 
HETATM    5  N4  UNL     1      26.809   3.238  51.237  1.00  0.00    -0.316 N 
HETATM    6  H9  UNL     1      27.665   3.731  51.624  1.00  0.00     0.170 HD
HETATM    7  O1  UNL     1      25.399   3.122  49.308  1.00  0.00    -0.258 OA
BRANCH   5   8
HETATM    8  C10 UNL     1      25.950   2.244  51.789  1.00  0.00     0.036 A 
HETATM    9  C9  UNL     1      26.605   1.051  52.128  1.00  0.00     0.032 A 
HETATM   10  C8  UNL     1      25.910  -0.009  52.671  1.00  0.00     0.035 A 
HETATM   11  C7  UNL     1      24.547   0.149  52.868  1.00  0.00     0.072 A 
HETATM   12  N3  UNL     1      23.847  -0.864  53.396  1.00  0.00    -0.241 NA
HETATM   13  C16 UNL     1      23.850   1.299  52.554  1.00  0.00     0.043 A 
HETATM   14  C6  UNL     1      22.519  -0.732  53.596  1.00  0.00     0.236 A 
HETATM   15  N2  UNL     1      21.850   0.387  53.286  1.00  0.00    -0.222 NA
HETATM   16  C5  UNL     1      22.488   1.441  52.757  1.00  0.00     0.162 A 
HETATM   17  C15 UNL     1      24.574   2.333  52.016  1.00  0.00     0.047 A 
BRANCH  16  18
HETATM   18  N1  UNL     1      21.920   2.684  52.382  1.00  0.00    -0.245 NA
HETATM   19  C4  UNL     1      20.999   2.778  51.489  1.00  0.00     0.093 C 
BRANCH  19  20
HETATM   20  C3  UNL     1      20.274   1.838  50.635  1.00  0.00     0.063 C 
BRANCH  20  21
HETATM   21  C2  UNL     1      18.911   1.497  51.123  1.00  0.00     0.010 C 
HETATM   22  C1  UNL     1      18.554   0.198  51.245  1.00  0.00     0.069 C 
HETATM   23 BR1  UNL     1      18.190   3.237  51.401  1.00  0.00    -0.090 Br
ENDBRANCH  20  21
ENDBRANCH  19  20
ENDBRANCH  16  18
ENDBRANCH   5   8
ENDBRANCH   1   4
TORSDOF 5
ENDMDL
MODEL 4
REMARK VINA RESULT:      -6.6      3.735      6.005
REMARK  5 active torsions:
REMARK  status: ('A' for Active; 'I' for Inactive)
REMARK    1  A    between atoms: C2_2  and  C3_4 
REMARK    2  A    between atoms: C3_4  and  C4_5 
REMARK    3  A    between atoms: N1_6  and  C5_7 
REMARK    4  A    between atoms: C10_14  and  N4_15 
REMARK       I    between atoms: N4_15  and  C11_16 
REMARK    5  A    between atoms: C11_16  and  C12_18 
ROOT
HETATM    1  C12 UNL     1      26.734   0.870  53.764  1.00  0.00    -0.006 C 
HETATM    2  C13 UNL     1      27.944   0.953  53.921  1.00  0.00    -0.101 C 
HETATM    3  C14 UNL     1      29.404   1.077  54.101  1.00  0.00     0.112 C 
ENDROOT
BRANCH   1   4
HETATM    4  C11 UNL     1      25.307   0.756  53.559  1.00  0.00     0.300 C 
HETATM    5  N4  UNL     1      24.652  -0.523  53.507  1.00  0.00    -0.316 N 
HETATM    6  H9  UNL     1      25.265  -1.380  53.633  1.00  0.00     0.170 HD
HETATM    7  O1  UNL     1      24.730   1.867  53.435  1.00  0.00    -0.258 OA
BRANCH   5   8
HETATM    8  C10 UNL     1      23.252  -0.374  53.292  1.00  0.00     0.036 A 
HETATM    9  C9  UNL     1      22.471  -0.640  54.426  1.00  0.00     0.032 A 
HETATM   10  C8  UNL     1      21.096  -0.543  54.378  1.00  0.00     0.035 A 
HETATM   11  C7  UNL     1      20.519  -0.174  53.173  1.00  0.00     0.072 A 
HETATM   12  N3  UNL     1      19.185  -0.070  53.098  1.00  0.00    -0.241 NA
HETATM   13  C16 UNL     1      21.237   0.101  52.026  1.00  0.00     0.043 A 
HETATM   14  C6  UNL     1      18.602   0.288  51.935  1.00  0.00     0.236 A 
HETATM   15  N2  UNL     1      19.307   0.551  50.826  1.00  0.00    -0.222 NA
HETATM   16  C5  UNL     1      20.645   0.468  50.830  1.00  0.00     0.162 A 
HETATM   17  C15 UNL     1      22.602  -0.006  52.111  1.00  0.00     0.047 A 
BRANCH  16  18
HETATM   18  N1  UNL     1      21.520   0.716  49.742  1.00  0.00    -0.245 NA
HETATM   19  C4  UNL     1      21.914   1.901  49.434  1.00  0.00     0.093 C 
BRANCH  19  20
HETATM   20  C3  UNL     1      21.687   3.246  49.959  1.00  0.00     0.063 C 
BRANCH  20  21
HETATM   21  C2  UNL     1      22.630   3.649  51.036  1.00  0.00     0.010 C 
HETATM   22  C1  UNL     1      22.142   4.038  52.236  1.00  0.00     0.069 C 
HETATM   23 BR1  UNL     1      24.299   3.401  50.155  1.00  0.00    -0.090 Br
ENDBRANCH  20  21
ENDBRANCH  19  20
ENDBRANCH  16  18
ENDBRANCH   5   8
ENDBRANCH   1   4
TORSDOF 5
ENDMDL
MODEL 5
REMARK VINA RESULT:      -6.6      5.759     10.328
REMARK  5 active torsions:
REMARK  status: ('A' for Active; 'I' for Inactive)
REMARK    1  A    between atoms: C2_2  and  C3_4 
REMARK    2  A    between atoms: C3_4  and  C4_5 
REMARK    3  A    between atoms: N1_6  and  C5_7 
REMARK    4  A    between atoms: C10_14  and  N4_15 
REMARK       I    between atoms: N4_15  and  C11_16 
REMARK    5  A    between atoms: C11_16  and  C12_18 
ROOT
HETATM    1  C12 UNL     1      27.216   5.468  48.716  1.00  0.00    -0.006 C 
HETATM    2  C13 UNL     1      26.168   4.931  49.048  1.00  0.00    -0.101 C 
HETATM    3  C14 UNL     1      24.916   4.261  49.448  1.00  0.00     0.112 C 
ENDROOT
BRANCH   1   4
HETATM    4  C11 UNL     1      28.446   6.106  48.300  1.00  0.00     0.300 C 
HETATM    5  N4  UNL     1      29.704   5.801  48.925  1.00  0.00    -0.316 N 
HETATM    6  H9  UNL     1      29.688   5.080  49.704  1.00  0.00     0.170 HD
HETATM    7  O1  UNL     1      28.289   6.930  47.362  1.00  0.00    -0.258 OA
BRANCH   5   8
HETATM    8  C10 UNL     1      30.762   6.558  48.347  1.00  0.00     0.036 A 
HETATM    9  C9  UNL     1      31.100   7.709  49.073  1.00  0.00     0.032 A 
HETATM   10  C8  UNL     1      32.105   8.550  48.641  1.00  0.00     0.035 A 
HETATM   11  C7  UNL     1      32.764   8.214  47.469  1.00  0.00     0.072 A 
HETATM   12  N3  UNL     1      33.745   9.012  47.026  1.00  0.00    -0.241 NA
HETATM   13  C16 UNL     1      32.475   7.095  46.714  1.00  0.00     0.043 A 
HETATM   14  C6  UNL     1      34.400   8.705  45.887  1.00  0.00     0.236 A 
HETATM   15  N2  UNL     1      34.111   7.617  45.160  1.00  0.00    -0.222 NA
HETATM   16  C5  UNL     1      33.142   6.774  45.545  1.00  0.00     0.162 A 
HETATM   17  C15 UNL     1      31.470   6.282  47.174  1.00  0.00     0.047 A 
BRANCH  16  18
HETATM   18  N1  UNL     1      32.728   5.591  44.884  1.00  0.00    -0.245 NA
HETATM   19  C4  UNL     1      33.346   4.471  45.026  1.00  0.00     0.093 C 
BRANCH  19  20
HETATM   20  C3  UNL     1      34.513   4.012  45.778  1.00  0.00     0.063 C 
BRANCH  20  21
HETATM   21  C2  UNL     1      34.244   3.742  47.216  1.00  0.00     0.010 C 
HETATM   22  C1  UNL     1      34.905   4.451  48.160  1.00  0.00     0.069 C 
HETATM   23 BR1  UNL     1      32.934   2.368  47.079  1.00  0.00    -0.090 Br
ENDBRANCH  20  21
ENDBRANCH  19  20
ENDBRANCH  16  18
ENDBRANCH   5   8
ENDBRANCH   1   4
TORSDOF 5
ENDMDL
MODEL 6
REMARK VINA RESULT:      -6.6      1.911      2.359
REMARK  5 active torsions:
REMARK  status: ('A' for Active; 'I' for Inactive)
REMARK    1  A    between atoms: C2_2  and  C3_4 
REMARK    2  A    between atoms: C3_4  and  C4_5 
REMARK    3  A    between atoms: N1_6  and  C5_7 
REMARK    4  A    between atoms: C10_14  and  N4_15 
REMARK       I    between atoms: N4_15  and  C11_16 
REMARK    5  A    between atoms: C11_16  and  C12_18 
ROOT
HETATM    1  C12 UNL     1      28.121   5.469  48.432  1.00  0.00    -0.006 C 
HETATM    2  C13 UNL     1      29.101   6.065  48.008  1.00  0.00    -0.101 C 
HETATM    3  C14 UNL     1      30.277   6.804  47.511  1.00  0.00     0.112 C 
ENDROOT
BRANCH   1   4
HETATM    4  C11 UNL     1      26.950   4.767  48.911  1.00  0.00     0.300 C 
HETATM    5  N4  UNL     1      25.719   5.455  49.189  1.00  0.00    -0.316 N 
HETATM    6  H9  UNL     1      25.708   6.503  49.021  1.00  0.00     0.170 HD
HETATM    7  O1  UNL     1      27.131   3.530  49.052  1.00  0.00    -0.258 OA
BRANCH   5   8
HETATM    8  C10 UNL     1      24.719   4.553  49.652  1.00  0.00     0.036 A 
HETATM    9  C9  UNL     1      23.749   4.238  48.691  1.00  0.00     0.032 A 
HETATM   10  C8  UNL     1      22.711   3.379  48.987  1.00  0.00     0.035 A 
HETATM   11  C7  UNL     1      22.665   2.841  50.263  1.00  0.00     0.072 A 
HETATM   12  N3  UNL     1      21.669   2.002  50.578  1.00  0.00    -0.241 NA
HETATM   13  C16 UNL     1      23.592   3.115  51.250  1.00  0.00     0.043 A 
HETATM   14  C6  UNL     1      21.605   1.468  51.816  1.00  0.00     0.236 A 
HETATM   15  N2  UNL     1      22.508   1.740  52.767  1.00  0.00    -0.222 NA
HETATM   16  C5  UNL     1      23.532   2.571  52.520  1.00  0.00     0.162 A 
HETATM   17  C15 UNL     1      24.610   3.974  50.920  1.00  0.00     0.047 A 
BRANCH  16  18
HETATM   18  N1  UNL     1      24.559   2.950  53.420  1.00  0.00    -0.245 NA
HETATM   19  C4  UNL     1      25.432   2.113  53.860  1.00  0.00     0.093 C 
BRANCH  19  20
HETATM   20  C3  UNL     1      25.701   0.690  53.668  1.00  0.00     0.063 C 
BRANCH  20  21
HETATM   21  C2  UNL     1      26.585   0.386  52.511  1.00  0.00     0.010 C 
HETATM   22  C1  UNL     1      27.023   1.397  51.726  1.00  0.00     0.069 C 
HETATM   23 BR1  UNL     1      26.735  -1.506  52.669  1.00  0.00    -0.090 Br
ENDBRANCH  20  21
ENDBRANCH  19  20
ENDBRANCH  16  18
ENDBRANCH   5   8
ENDBRANCH   1   4
TORSDOF 5
ENDMDL
MODEL 7
REMARK VINA RESULT:      -6.6      2.022      2.188
REMARK  5 active torsions:
REMARK  status: ('A' for Active; 'I' for Inactive)
REMARK    1  A    between atoms: C2_2  and  C3_4 
REMARK    2  A    between atoms: C3_4  and  C4_5 
REMARK    3  A    between atoms: N1_6  and  C5_7 
REMARK    4  A    between atoms: C10_14  and  N4_15 
REMARK       I    between atoms: N4_15  and  C11_16 
REMARK    5  A    between atoms: C11_16  and  C12_18 
ROOT
HETATM    1  C12 UNL     1      26.102   7.638  49.999  1.00  0.00    -0.006 C 
HETATM    2  C13 UNL     1      26.656   8.687  49.702  1.00  0.00    -0.101 C 
HETATM    3  C14 UNL     1      27.303   9.966  49.351  1.00  0.00     0.112 C 
ENDROOT
BRANCH   1   4
HETATM    4  C11 UNL     1      25.443   6.393  50.327  1.00  0.00     0.300 C 
HETATM    5  N4  UNL     1      25.996   5.122  49.943  1.00  0.00    -0.316 N 
HETATM    6  H9  UNL     1      26.915   5.141  49.413  1.00  0.00     0.170 HD
HETATM    7  O1  UNL     1      24.369   6.548  50.962  1.00  0.00    -0.258 OA
BRANCH   5   8
HETATM    8  C10 UNL     1      25.165   4.049  50.374  1.00  0.00     0.036 A 
HETATM    9  C9  UNL     1      24.153   3.713  49.464  1.00  0.00     0.032 A 
HETATM   10  C8  UNL     1      23.263   2.695  49.738  1.00  0.00     0.035 A 
HETATM   11  C7  UNL     1      23.408   2.021  50.940  1.00  0.00     0.072 A 
HETATM   12  N3  UNL     1      22.558   1.026  51.232  1.00  0.00    -0.241 NA
HETATM   13  C16 UNL     1      24.384   2.308  51.873  1.00  0.00     0.043 A 
HETATM   14  C6  UNL     1      22.680   0.357  52.397  1.00  0.00     0.236 A 
HETATM   15  N2  UNL     1      23.630   0.643  53.297  1.00  0.00    -0.222 NA
HETATM   16  C5  UNL     1      24.515   1.625  53.070  1.00  0.00     0.162 A 
HETATM   17  C15 UNL     1      25.252   3.326  51.567  1.00  0.00     0.047 A 
BRANCH  16  18
HETATM   18  N1  UNL     1      25.569   2.039  53.922  1.00  0.00    -0.245 NA
HETATM   19  C4  UNL     1      26.407   1.208  54.434  1.00  0.00     0.093 C 
BRANCH  19  20
HETATM   20  C3  UNL     1      26.607  -0.239  54.377  1.00  0.00     0.063 C 
BRANCH  20  21
HETATM   21  C2  UNL     1      27.370  -0.703  53.187  1.00  0.00     0.010 C 
HETATM   22  C1  UNL     1      26.701  -1.207  52.124  1.00  0.00     0.069 C 
HETATM   23 BR1  UNL     1      29.152  -0.332  53.743  1.00  0.00    -0.090 Br
ENDBRANCH  20  21
ENDBRANCH  19  20
ENDBRANCH  16  18
ENDBRANCH   5   8
ENDBRANCH   1   4
TORSDOF 5
ENDMDL
MODEL 8
REMARK VINA RESULT:      -6.5      3.386      7.113
REMARK  5 active torsions:
REMARK  status: ('A' for Active; 'I' for Inactive)
REMARK    1  A    between atoms: C2_2  and  C3_4 
REMARK    2  A    between atoms: C3_4  and  C4_5 
REMARK    3  A    between atoms: N1_6  and  C5_7 
REMARK    4  A    between atoms: C10_14  and  N4_15 
REMARK       I    between atoms: N4_15  and  C11_16 
REMARK    5  A    between atoms: C11_16  and  C12_18 
ROOT
HETATM    1  C12 UNL     1      18.639  -0.131  52.150  1.00  0.00    -0.006 C 
HETATM    2  C13 UNL     1      17.429  -0.250  52.013  1.00  0.00    -0.101 C 
HETATM    3  C14 UNL     1      15.971  -0.377  51.828  1.00  0.00     0.112 C 
ENDROOT
BRANCH   1   4
HETATM    4  C11 UNL     1      20.065   0.023  52.333  1.00  0.00     0.300 C 
HETATM    5  N4  UNL     1      20.639   0.254  53.631  1.00  0.00    -0.316 N 
HETATM    6  H9  UNL     1      19.967   0.301  54.450  1.00  0.00     0.170 HD
HETATM    7  O1  UNL     1      20.719  -0.065  51.262  1.00  0.00    -0.258 OA
BRANCH   5   8
HETATM    8  C10 UNL     1      22.056   0.376  53.552  1.00  0.00     0.036 A 
HETATM    9  C9  UNL     1      22.752  -0.716  54.090  1.00  0.00     0.032 A 
HETATM   10  C8  UNL     1      24.131  -0.747  54.092  1.00  0.00     0.035 A 
HETATM   11  C7  UNL     1      24.798   0.336  53.542  1.00  0.00     0.072 A 
HETATM   12  N3  UNL     1      26.138   0.332  53.529  1.00  0.00    -0.241 NA
HETATM   13  C16 UNL     1      24.167   1.437  52.998  1.00  0.00     0.043 A 
HETATM   14  C6  UNL     1      26.809   1.377  52.999  1.00  0.00     0.236 A 
HETATM   15  N2  UNL     1      26.188   2.441  52.474  1.00  0.00    -0.222 NA
HETATM   16  C5  UNL     1      24.849   2.511  52.454  1.00  0.00     0.162 A 
HETATM   17  C15 UNL     1      22.795   1.433  53.014  1.00  0.00     0.047 A 
BRANCH  16  18
HETATM   18  N1  UNL     1      24.056   3.565  51.934  1.00  0.00    -0.245 NA
HETATM   19  C4  UNL     1      24.221   4.028  50.745  1.00  0.00     0.093 C 
BRANCH  19  20
HETATM   20  C3  UNL     1      25.114   3.733  49.626  1.00  0.00     0.063 C 
BRANCH  20  21
HETATM   21  C2  UNL     1      26.083   4.819  49.316  1.00  0.00     0.010 C 
HETATM   22  C1  UNL     1      27.304   4.501  48.828  1.00  0.00     0.069 C 
HETATM   23 BR1  UNL     1      25.057   6.352  49.787  1.00  0.00    -0.090 Br
ENDBRANCH  20  21
ENDBRANCH  19  20
ENDBRANCH  16  18
ENDBRANCH   5   8
ENDBRANCH   1   4
TORSDOF 5
ENDMDL
MODEL 9
REMARK VINA RESULT:      -6.4      3.998      7.550
REMARK  5 active torsions:
REMARK  status: ('A' for Active; 'I' for Inactive)
REMARK    1  A    between atoms: C2_2  and  C3_4 
REMARK    2  A    between atoms: C3_4  and  C4_5 
REMARK    3  A    between atoms: N1_6  and  C5_7 
REMARK    4  A    between atoms: C10_14  and  N4_15 
REMARK       I    between atoms: N4_15  and  C11_16 
REMARK    5  A    between atoms: C11_16  and  C12_18 
ROOT
HETATM    1  C12 UNL     1      18.718  -0.307  52.525  1.00  0.00    -0.006 C 
HETATM    2  C13 UNL     1      17.520  -0.543  52.596  1.00  0.00    -0.101 C 
HETATM    3  C14 UNL     1      16.079  -0.851  52.674  1.00  0.00     0.112 C 
ENDROOT
BRANCH   1   4
HETATM    4  C11 UNL     1      20.131  -0.016  52.421  1.00  0.00     0.300 C 
HETATM    5  N4  UNL     1      20.921   0.316  53.575  1.00  0.00    -0.316 N 
HETATM    6  H9  UNL     1      20.419   0.333  54.510  1.00  0.00     0.170 HD
HETATM    7  O1  UNL     1      20.570  -0.085  51.244  1.00  0.00    -0.258 OA
BRANCH   5   8
HETATM    8  C10 UNL     1      22.276   0.564  53.216  1.00  0.00     0.036 A 
HETATM    9  C9  UNL     1      23.166  -0.439  53.627  1.00  0.00     0.032 A 
HETATM   10  C8  UNL     1      24.516  -0.343  53.358  1.00  0.00     0.035 A 
HETATM   11  C7  UNL     1      24.955   0.776  52.668  1.00  0.00     0.072 A 
HETATM   12  N3  UNL     1      26.261   0.894  52.391  1.00  0.00    -0.241 NA
HETATM   13  C16 UNL     1      24.126   1.793  52.238  1.00  0.00     0.043 A 
HETATM   14  C6  UNL     1      26.712   1.976  51.720  1.00  0.00     0.236 A 
HETATM   15  N2  UNL     1      25.900   2.959  51.309  1.00  0.00    -0.222 NA
HETATM   16  C5  UNL     1      24.582   2.905  51.551  1.00  0.00     0.162 A 
HETATM   17  C15 UNL     1      22.791   1.665  52.524  1.00  0.00     0.047 A 
BRANCH  16  18
HETATM   18  N1  UNL     1      23.605   3.862  51.179  1.00  0.00    -0.245 NA
HETATM   19  C4  UNL     1      23.190   3.985  49.967  1.00  0.00     0.093 C 
BRANCH  19  20
HETATM   20  C3  UNL     1      23.478   3.328  48.694  1.00  0.00     0.063 C 
BRANCH  20  21
HETATM   21  C2  UNL     1      22.285   2.742  48.026  1.00  0.00     0.010 C 
HETATM   22  C1  UNL     1      21.838   1.525  48.412  1.00  0.00     0.069 C 
HETATM   23 BR1  UNL     1      21.861   4.125  46.787  1.00  0.00    -0.090 Br
ENDBRANCH  20  21
ENDBRANCH  19  20
ENDBRANCH  16  18
ENDBRANCH   5   8
ENDBRANCH   1   4
TORSDOF 5
ENDMDL
