MODEL 1
REMARK VINA RESULT:      -7.3      0.000      0.000
REMARK  4 active torsions:
REMARK  status: ('A' for Active; 'I' for Inactive)
REMARK    1  A    between atoms: O1_2  and  C2_3 
REMARK    2  A    between atoms: C6_9  and  N3_10 
REMARK    3  A    between atoms: N3_10  and  C7_11 
REMARK    4  A    between atoms: C14_18  and  O2_19 
ROOT
HETATM    1  C2  UNL     1      22.581   0.640  52.203  1.00  0.00     0.103 A 
HETATM    2  C3  UNL     1      23.289   1.496  51.366  1.00  0.00     0.072 A 
HETATM    3  C4  UNL     1      24.641   1.784  51.589  1.00  0.00     0.075 A 
HETATM    4  N1  UNL     1      25.296   2.617  50.758  1.00  0.00    -0.241 NA
HETATM    5  C5  UNL     1      26.603   2.881  50.990  1.00  0.00     0.236 A 
HETATM    6  N2  UNL     1      27.239   2.309  52.051  1.00  0.00    -0.224 NA
HETATM    7  C6  UNL     1      26.560   1.484  52.862  1.00  0.00     0.142 A 
HETATM    8  C12 UNL     1      25.229   1.169  52.685  1.00  0.00     0.042 A 
HETATM    9  C13 UNL     1      24.557   0.319  53.532  1.00  0.00     0.057 A 
HETATM   10  C14 UNL     1      23.229   0.073  53.263  1.00  0.00     0.102 A 
ENDROOT
BRANCH   7  11
HETATM   11  N3  UNL     1      27.300   0.942  53.931  1.00  0.00    -0.340 N 
HETATM   12  H6  UNL     1      27.312   1.144  54.954  1.00  0.00     0.167 HD
BRANCH  11  13
HETATM   13  C7  UNL     1      28.249  -0.094  53.703  1.00  0.00     0.039 A 
HETATM   14  C8  UNL     1      29.548  -0.367  53.891  1.00  0.00     0.030 A 
HETATM   15  C9  UNL     1      29.407  -1.697  53.275  1.00  0.00     0.011 A 
HETATM   16  C10 UNL     1      28.126  -1.424  53.091  1.00  0.00    -0.035 A 
HETATM   17  C11 UNL     1      27.040  -2.252  52.471  1.00  0.00     0.050 C 
ENDBRANCH  11  13
ENDBRANCH   7  11
BRANCH  10  18
HETATM   18  O2  UNL     1      22.551  -0.793  54.129  1.00  0.00    -0.353 OA
HETATM   19  C15 UNL     1      23.209  -1.267  55.295  1.00  0.00     0.210 C 
ENDBRANCH  10  18
BRANCH   1  20
HETATM   20  O1  UNL     1      21.243   0.336  52.010  1.00  0.00    -0.353 OA
HETATM   21  C1  UNL     1      20.666   0.641  50.761  1.00  0.00     0.210 C 
ENDBRANCH   1  20
TORSDOF 4
ENDMDL
MODEL 2
REMARK VINA RESULT:      -7.2      2.487      5.746
REMARK  4 active torsions:
REMARK  status: ('A' for Active; 'I' for Inactive)
REMARK    1  A    between atoms: O1_2  and  C2_3 
REMARK    2  A    between atoms: C6_9  and  N3_10 
REMARK    3  A    between atoms: N3_10  and  C7_11 
REMARK    4  A    between atoms: C14_18  and  O2_19 
ROOT
HETATM    1  C2  UNL     1      26.429   1.124  54.038  1.00  0.00     0.103 A 
HETATM    2  C3  UNL     1      25.862   2.379  53.841  1.00  0.00     0.072 A 
HETATM    3  C4  UNL     1      24.635   2.532  53.184  1.00  0.00     0.075 A 
HETATM    4  N1  UNL     1      24.115   3.762  53.012  1.00  0.00    -0.241 NA
HETATM    5  C5  UNL     1      22.927   3.889  52.376  1.00  0.00     0.236 A 
HETATM    6  N2  UNL     1      22.274   2.783  51.919  1.00  0.00    -0.224 NA
HETATM    7  C6  UNL     1      22.817   1.571  52.105  1.00  0.00     0.142 A 
HETATM    8  C12 UNL     1      24.022   1.368  52.745  1.00  0.00     0.042 A 
HETATM    9  C13 UNL     1      24.556   0.113  52.923  1.00  0.00     0.057 A 
HETATM   10  C14 UNL     1      25.765   0.023  53.575  1.00  0.00     0.102 A 
ENDROOT
BRANCH   7  11
HETATM   11  N3  UNL     1      22.071   0.489  51.599  1.00  0.00    -0.340 N 
HETATM   12  H6  UNL     1      22.214  -0.148  50.786  1.00  0.00     0.167 HD
BRANCH  11  13
HETATM   13  C7  UNL     1      20.863   0.083  52.234  1.00  0.00     0.039 A 
HETATM   14  C8  UNL     1      19.536   0.108  52.046  1.00  0.00     0.030 A 
HETATM   15  C9  UNL     1      19.294  -0.586  53.321  1.00  0.00     0.011 A 
HETATM   16  C10 UNL     1      20.604  -0.609  53.503  1.00  0.00    -0.035 A 
HETATM   17  C11 UNL     1      21.412  -1.168  54.635  1.00  0.00     0.050 C 
ENDBRANCH  11  13
ENDBRANCH   7  11
BRANCH  10  18
HETATM   18  O2  UNL     1      26.303  -1.257  53.753  1.00  0.00    -0.353 OA
HETATM   19  C15 UNL     1      26.924  -1.909  52.656  1.00  0.00     0.210 C 
ENDBRANCH  10  18
BRANCH   1  20
HETATM   20  O1  UNL     1      27.641   0.939  54.682  1.00  0.00    -0.353 OA
HETATM   21  C1  UNL     1      28.823   1.219  53.968  1.00  0.00     0.210 C 
ENDBRANCH   1  20
TORSDOF 4
ENDMDL
MODEL 3
REMARK VINA RESULT:      -7.1      2.054      5.232
REMARK  4 active torsions:
REMARK  status: ('A' for Active; 'I' for Inactive)
REMARK    1  A    between atoms: O1_2  and  C2_3 
REMARK    2  A    between atoms: C6_9  and  N3_10 
REMARK    3  A    between atoms: N3_10  and  C7_11 
REMARK    4  A    between atoms: C14_18  and  O2_19 
ROOT
HETATM    1  C2  UNL     1      27.593   0.274  53.944  1.00  0.00     0.103 A 
HETATM    2  C3  UNL     1      27.885   1.120  52.879  1.00  0.00     0.072 A 
HETATM    3  C4  UNL     1      26.887   1.867  52.243  1.00  0.00     0.075 A 
HETATM    4  N1  UNL     1      27.207   2.676  51.215  1.00  0.00    -0.241 NA
HETATM    5  C5  UNL     1      26.227   3.392  50.615  1.00  0.00     0.236 A 
HETATM    6  N2  UNL     1      24.939   3.289  51.051  1.00  0.00    -0.224 NA
HETATM    7  C6  UNL     1      24.652   2.475  52.077  1.00  0.00     0.142 A 
HETATM    8  C12 UNL     1      25.598   1.718  52.735  1.00  0.00     0.042 A 
HETATM    9  C13 UNL     1      25.276   0.890  53.786  1.00  0.00     0.057 A 
HETATM   10  C14 UNL     1      26.299   0.179  54.372  1.00  0.00     0.102 A 
ENDROOT
BRANCH   7  11
HETATM   11  N3  UNL     1      23.296   2.434  52.456  1.00  0.00    -0.340 N 
HETATM   12  H6  UNL     1      22.763   2.902  53.221  1.00  0.00     0.167 HD
BRANCH  11  13
HETATM   13  C7  UNL     1      22.366   1.635  51.733  1.00  0.00     0.039 A 
HETATM   14  C8  UNL     1      21.618   1.669  50.621  1.00  0.00     0.030 A 
HETATM   15  C9  UNL     1      21.074   0.328  50.888  1.00  0.00     0.011 A 
HETATM   16  C10 UNL     1      21.814   0.298  51.985  1.00  0.00    -0.035 A 
HETATM   17  C11 UNL     1      21.954  -0.770  53.027  1.00  0.00     0.050 C 
ENDBRANCH  11  13
ENDBRANCH   7  11
BRANCH  10  18
HETATM   18  O2  UNL     1      25.964  -0.660  55.440  1.00  0.00    -0.353 OA
HETATM   19  C15 UNL     1      24.651  -1.197  55.518  1.00  0.00     0.210 C 
ENDBRANCH  10  18
BRANCH   1  20
HETATM   20  O1  UNL     1      28.558  -0.480  54.593  1.00  0.00    -0.353 OA
HETATM   21  C1  UNL     1      29.702  -0.862  53.866  1.00  0.00     0.210 C 
ENDBRANCH   1  20
TORSDOF 4
ENDMDL
MODEL 4
REMARK VINA RESULT:      -7.0      1.885      3.387
REMARK  4 active torsions:
REMARK  status: ('A' for Active; 'I' for Inactive)
REMARK    1  A    between atoms: O1_2  and  C2_3 
REMARK    2  A    between atoms: C6_9  and  N3_10 
REMARK    3  A    between atoms: N3_10  and  C7_11 
REMARK    4  A    between atoms: C14_18  and  O2_19 
ROOT
HETATM    1  C2  UNL     1      21.594   0.084  52.306  1.00  0.00     0.103 A 
HETATM    2  C3  UNL     1      21.693  -0.679  53.464  1.00  0.00     0.072 A 
HETATM    3  C4  UNL     1      22.888  -0.757  54.190  1.00  0.00     0.075 A 
HETATM    4  N1  UNL     1      22.947  -1.505  55.308  1.00  0.00    -0.241 NA
HETATM    5  C5  UNL     1      24.111  -1.565  55.996  1.00  0.00     0.236 A 
HETATM    6  N2  UNL     1      25.202  -0.876  55.557  1.00  0.00    -0.224 NA
HETATM    7  C6  UNL     1      25.112  -0.140  54.440  1.00  0.00     0.142 A 
HETATM    8  C12 UNL     1      23.960  -0.031  53.690  1.00  0.00     0.042 A 
HETATM    9  C13 UNL     1      23.895   0.732  52.548  1.00  0.00     0.057 A 
HETATM   10  C14 UNL     1      22.695   0.770  51.876  1.00  0.00     0.102 A 
ENDROOT
BRANCH   7  11
HETATM   11  N3  UNL     1      26.290   0.536  54.064  1.00  0.00    -0.340 N 
HETATM   12  H6  UNL     1      26.504   1.545  53.904  1.00  0.00     0.167 HD
BRANCH  11  13
HETATM   13  C7  UNL     1      27.495  -0.184  53.828  1.00  0.00     0.039 A 
HETATM   14  C8  UNL     1      28.799  -0.148  54.135  1.00  0.00     0.030 A 
HETATM   15  C9  UNL     1      29.066  -1.366  53.353  1.00  0.00     0.011 A 
HETATM   16  C10 UNL     1      27.778  -1.399  53.052  1.00  0.00    -0.035 A 
HETATM   17  C11 UNL     1      27.005  -2.373  52.215  1.00  0.00     0.050 C 
ENDBRANCH  11  13
ENDBRANCH   7  11
BRANCH  10  18
HETATM   18  O2  UNL     1      22.636   1.550  50.714  1.00  0.00    -0.353 OA
HETATM   19  C15 UNL     1      22.732   2.962  50.819  1.00  0.00     0.210 C 
ENDBRANCH  10  18
BRANCH   1  20
HETATM   20  O1  UNL     1      20.427   0.180  51.565  1.00  0.00    -0.353 OA
HETATM   21  C1  UNL     1      19.200   0.008  52.235  1.00  0.00     0.210 C 
ENDBRANCH   1  20
TORSDOF 4
ENDMDL
MODEL 5
REMARK VINA RESULT:      -6.9      2.811      6.239
REMARK  4 active torsions:
REMARK  status: ('A' for Active; 'I' for Inactive)
REMARK    1  A    between atoms: O1_2  and  C2_3 
REMARK    2  A    between atoms: C6_9  and  N3_10 
REMARK    3  A    between atoms: N3_10  and  C7_11 
REMARK    4  A    between atoms: C14_18  and  O2_19 
ROOT
HETATM    1  C2  UNL     1      26.259  -0.318  53.695  1.00  0.00     0.103 A 
HETATM    2  C3  UNL     1      25.220  -0.910  54.406  1.00  0.00     0.072 A 
HETATM    3  C4  UNL     1      23.888  -0.530  54.207  1.00  0.00     0.075 A 
HETATM    4  N1  UNL     1      22.908  -1.125  54.913  1.00  0.00    -0.241 NA
HETATM    5  C5  UNL     1      21.625  -0.744  54.705  1.00  0.00     0.236 A 
HETATM    6  N2  UNL     1      21.340   0.228  53.793  1.00  0.00    -0.224 NA
HETATM    7  C6  UNL     1      22.338   0.802  53.106  1.00  0.00     0.142 A 
HETATM    8  C12 UNL     1      23.665   0.464  53.265  1.00  0.00     0.042 A 
HETATM    9  C13 UNL     1      24.669   1.070  52.546  1.00  0.00     0.057 A 
HETATM   10  C14 UNL     1      25.960   0.655  52.784  1.00  0.00     0.102 A 
ENDROOT
BRANCH   7  11
HETATM   11  N3  UNL     1      21.946   1.796  52.187  1.00  0.00    -0.340 N 
HETATM   12  H6  UNL     1      21.799   2.824  52.280  1.00  0.00     0.167 HD
BRANCH  11  13
HETATM   13  C7  UNL     1      21.668   1.460  50.832  1.00  0.00     0.039 A 
HETATM   14  C8  UNL     1      20.858   0.678  50.105  1.00  0.00     0.030 A 
HETATM   15  C9  UNL     1      21.456   1.147  48.845  1.00  0.00     0.011 A 
HETATM   16  C10 UNL     1      22.254   1.918  49.565  1.00  0.00    -0.035 A 
HETATM   17  C11 UNL     1      23.327   2.871  49.132  1.00  0.00     0.050 C 
ENDBRANCH  11  13
ENDBRANCH   7  11
BRANCH  10  18
HETATM   18  O2  UNL     1      26.976   1.276  52.048  1.00  0.00    -0.353 OA
HETATM   19  C15 UNL     1      26.648   2.342  51.170  1.00  0.00     0.210 C 
ENDBRANCH  10  18
BRANCH   1  20
HETATM   20  O1  UNL     1      27.587  -0.671  53.870  1.00  0.00    -0.353 OA
HETATM   21  C1  UNL     1      28.342   0.037  54.826  1.00  0.00     0.210 C 
ENDBRANCH   1  20
TORSDOF 4
ENDMDL
MODEL 6
REMARK VINA RESULT:      -6.8      2.415      4.204
REMARK  4 active torsions:
REMARK  status: ('A' for Active; 'I' for Inactive)
REMARK    1  A    between atoms: O1_2  and  C2_3 
REMARK    2  A    between atoms: C6_9  and  N3_10 
REMARK    3  A    between atoms: N3_10  and  C7_11 
REMARK    4  A    between atoms: C14_18  and  O2_19 
ROOT
HETATM    1  C2  UNL     1      19.760  -0.016  52.386  1.00  0.00     0.103 A 
HETATM    2  C3  UNL     1      20.137  -0.664  53.558  1.00  0.00     0.072 A 
HETATM    3  C4  UNL     1      21.478  -0.742  53.952  1.00  0.00     0.075 A 
HETATM    4  N1  UNL     1      21.806  -1.377  55.093  1.00  0.00    -0.241 NA
HETATM    5  C5  UNL     1      23.109  -1.441  55.456  1.00  0.00     0.236 A 
HETATM    6  N2  UNL     1      24.067  -0.868  54.674  1.00  0.00    -0.224 NA
HETATM    7  C6  UNL     1      23.708  -0.242  53.543  1.00  0.00     0.142 A 
HETATM    8  C12 UNL     1      22.403  -0.139  53.112  1.00  0.00     0.042 A 
HETATM    9  C13 UNL     1      22.063   0.509  51.947  1.00  0.00     0.057 A 
HETATM   10  C14 UNL     1      20.729   0.554  51.610  1.00  0.00     0.102 A 
ENDROOT
BRANCH   7  11
HETATM   11  N3  UNL     1      24.766   0.318  52.800  1.00  0.00    -0.340 N 
HETATM   12  H6  UNL     1      24.818   1.135  52.153  1.00  0.00     0.167 HD
BRANCH  11  13
HETATM   13  C7  UNL     1      26.071  -0.246  52.858  1.00  0.00     0.039 A 
HETATM   14  C8  UNL     1      26.701  -1.416  52.679  1.00  0.00     0.030 A 
HETATM   15  C9  UNL     1      28.006  -0.817  53.007  1.00  0.00     0.011 A 
HETATM   16  C10 UNL     1      27.380   0.335  53.183  1.00  0.00    -0.035 A 
HETATM   17  C11 UNL     1      27.920   1.678  53.573  1.00  0.00     0.050 C 
ENDBRANCH  11  13
ENDBRANCH   7  11
BRANCH  10  18
HETATM   18  O2  UNL     1      20.391   1.215  50.424  1.00  0.00    -0.353 OA
HETATM   19  C15 UNL     1      21.189   1.019  49.266  1.00  0.00     0.210 C 
ENDBRANCH  10  18
BRANCH   1  20
HETATM   20  O1  UNL     1      18.442   0.077  51.968  1.00  0.00    -0.353 OA
HETATM   21  C1  UNL     1      17.500  -0.799  52.543  1.00  0.00     0.210 C 
ENDBRANCH   1  20
TORSDOF 4
ENDMDL
MODEL 7
REMARK VINA RESULT:      -6.7      1.928      5.322
REMARK  4 active torsions:
REMARK  status: ('A' for Active; 'I' for Inactive)
REMARK    1  A    between atoms: O1_2  and  C2_3 
REMARK    2  A    between atoms: C6_9  and  N3_10 
REMARK    3  A    between atoms: N3_10  and  C7_11 
REMARK    4  A    between atoms: C14_18  and  O2_19 
ROOT
HETATM    1  C2  UNL     1      26.605   0.415  53.459  1.00  0.00     0.103 A 
HETATM    2  C3  UNL     1      27.268   1.252  52.568  1.00  0.00     0.072 A 
HETATM    3  C4  UNL     1      26.568   2.089  51.691  1.00  0.00     0.075 A 
HETATM    4  N1  UNL     1      27.243   2.886  50.842  1.00  0.00    -0.241 NA
HETATM    5  C5  UNL     1      26.547   3.689  50.003  1.00  0.00     0.236 A 
HETATM    6  N2  UNL     1      25.184   3.683  50.024  1.00  0.00    -0.224 NA
HETATM    7  C6  UNL     1      24.540   2.877  50.881  1.00  0.00     0.142 A 
HETATM    8  C12 UNL     1      25.184   2.036  51.763  1.00  0.00     0.042 A 
HETATM    9  C13 UNL     1      24.498   1.219  52.632  1.00  0.00     0.057 A 
HETATM   10  C14 UNL     1      25.239   0.418  53.471  1.00  0.00     0.102 A 
ENDROOT
BRANCH   7  11
HETATM   11  N3  UNL     1      23.134   2.940  50.830  1.00  0.00    -0.340 N 
HETATM   12  H6  UNL     1      22.434   3.513  51.349  1.00  0.00     0.167 HD
BRANCH  11  13
HETATM   13  C7  UNL     1      22.404   2.110  49.932  1.00  0.00     0.039 A 
HETATM   14  C8  UNL     1      22.210   1.926  48.619  1.00  0.00     0.030 A 
HETATM   15  C9  UNL     1      21.274   0.817  48.864  1.00  0.00     0.011 A 
HETATM   16  C10 UNL     1      21.468   1.001  50.159  1.00  0.00    -0.035 A 
HETATM   17  C11 UNL     1      20.887   0.277  51.337  1.00  0.00     0.050 C 
ENDBRANCH  11  13
ENDBRANCH   7  11
BRANCH  10  18
HETATM   18  O2  UNL     1      24.535  -0.410  54.352  1.00  0.00    -0.353 OA
HETATM   19  C15 UNL     1      23.172  -0.708  54.088  1.00  0.00     0.210 C 
ENDBRANCH  10  18
BRANCH   1  20
HETATM   20  O1  UNL     1      27.269  -0.426  54.339  1.00  0.00    -0.353 OA
HETATM   21  C1  UNL     1      28.523  -0.013  54.832  1.00  0.00     0.210 C 
ENDBRANCH   1  20
TORSDOF 4
ENDMDL
MODEL 8
REMARK VINA RESULT:      -6.5      2.267      3.902
REMARK  4 active torsions:
REMARK  status: ('A' for Active; 'I' for Inactive)
REMARK    1  A    between atoms: O1_2  and  C2_3 
REMARK    2  A    between atoms: C6_9  and  N3_10 
REMARK    3  A    between atoms: N3_10  and  C7_11 
REMARK    4  A    between atoms: C14_18  and  O2_19 
ROOT
HETATM    1  C2  UNL     1      21.258   1.045  50.636  1.00  0.00     0.103 A 
HETATM    2  C3  UNL     1      20.900   0.168  51.654  1.00  0.00     0.072 A 
HETATM    3  C4  UNL     1      21.802  -0.188  52.664  1.00  0.00     0.075 A 
HETATM    4  N1  UNL     1      21.420  -1.040  53.635  1.00  0.00    -0.241 NA
HETATM    5  C5  UNL     1      22.307  -1.370  54.603  1.00  0.00     0.236 A 
HETATM    6  N2  UNL     1      23.564  -0.844  54.588  1.00  0.00    -0.224 NA
HETATM    7  C6  UNL     1      23.915   0.002  53.608  1.00  0.00     0.142 A 
HETATM    8  C12 UNL     1      23.064   0.383  52.592  1.00  0.00     0.042 A 
HETATM    9  C13 UNL     1      23.450   1.253  51.598  1.00  0.00     0.057 A 
HETATM   10  C14 UNL     1      22.521   1.566  50.631  1.00  0.00     0.102 A 
ENDROOT
BRANCH   7  11
HETATM   11  N3  UNL     1      25.233   0.494  53.676  1.00  0.00    -0.340 N 
HETATM   12  H6  UNL     1      25.626   1.424  53.938  1.00  0.00     0.167 HD
BRANCH  11  13
HETATM   13  C7  UNL     1      26.336  -0.343  53.348  1.00  0.00     0.039 A 
HETATM   14  C8  UNL     1      26.641  -1.401  52.583  1.00  0.00     0.030 A 
HETATM   15  C9  UNL     1      28.040  -1.390  53.042  1.00  0.00     0.011 A 
HETATM   16  C10 UNL     1      27.735  -0.347  53.796  1.00  0.00    -0.035 A 
HETATM   17  C11 UNL     1      28.593   0.456  54.727  1.00  0.00     0.050 C 
ENDBRANCH  11  13
ENDBRANCH   7  11
BRANCH  10  18
HETATM   18  O2  UNL     1      22.920   2.452  49.624  1.00  0.00    -0.353 OA
HETATM   19  C15 UNL     1      24.106   3.214  49.798  1.00  0.00     0.210 C 
ENDBRANCH  10  18
BRANCH   1  20
HETATM   20  O1  UNL     1      20.390   1.415  49.622  1.00  0.00    -0.353 OA
HETATM   21  C1  UNL     1      19.214   2.107  49.974  1.00  0.00     0.210 C 
ENDBRANCH   1  20
TORSDOF 4
ENDMDL
MODEL 9
REMARK VINA RESULT:      -6.2      2.084      5.576
REMARK  4 active torsions:
REMARK  status: ('A' for Active; 'I' for Inactive)
REMARK    1  A    between atoms: O1_2  and  C2_3 
REMARK    2  A    between atoms: C6_9  and  N3_10 
REMARK    3  A    between atoms: N3_10  and  C7_11 
REMARK    4  A    between atoms: C14_18  and  O2_19 
ROOT
HETATM    1  C2  UNL     1      26.490   0.406  53.660  1.00  0.00     0.103 A 
HETATM    2  C3  UNL     1      27.088   1.353  52.835  1.00  0.00     0.072 A 
HETATM    3  C4  UNL     1      26.371   1.998  51.820  1.00  0.00     0.075 A 
HETATM    4  N1  UNL     1      26.983   2.910  51.042  1.00  0.00    -0.241 NA
HETATM    5  C5  UNL     1      26.271   3.523  50.067  1.00  0.00     0.236 A 
HETATM    6  N2  UNL     1      24.956   3.215  49.883  1.00  0.00    -0.224 NA
HETATM    7  C6  UNL     1      24.374   2.302  50.675  1.00  0.00     0.142 A 
HETATM    8  C12 UNL     1      25.037   1.640  51.687  1.00  0.00     0.042 A 
HETATM    9  C13 UNL     1      24.416   0.707  52.484  1.00  0.00     0.057 A 
HETATM   10  C14 UNL     1      25.171   0.106  53.466  1.00  0.00     0.102 A 
ENDROOT
BRANCH   7  11
HETATM   11  N3  UNL     1      23.014   2.050  50.410  1.00  0.00    -0.340 N 
HETATM   12  H6  UNL     1      22.531   1.481  49.681  1.00  0.00     0.167 HD
BRANCH  11  13
HETATM   13  C7  UNL     1      21.999   2.623  51.226  1.00  0.00     0.039 A 
HETATM   14  C8  UNL     1      20.871   2.284  51.866  1.00  0.00     0.030 A 
HETATM   15  C9  UNL     1      20.682   3.657  52.362  1.00  0.00     0.011 A 
HETATM   16  C10 UNL     1      21.796   3.988  51.729  1.00  0.00    -0.035 A 
HETATM   17  C11 UNL     1      22.497   5.310  51.634  1.00  0.00     0.050 C 
ENDBRANCH  11  13
ENDBRANCH   7  11
BRANCH  10  18
HETATM   18  O2  UNL     1      24.532  -0.841  54.274  1.00  0.00    -0.353 OA
HETATM   19  C15 UNL     1      23.114  -0.871  54.322  1.00  0.00     0.210 C 
ENDBRANCH  10  18
BRANCH   1  20
HETATM   20  O1  UNL     1      27.173  -0.250  54.671  1.00  0.00    -0.353 OA
HETATM   21  C1  UNL     1      28.509   0.121  54.918  1.00  0.00     0.210 C 
ENDBRANCH   1  20
TORSDOF 4
ENDMDL
