MODEL 1
REMARK VINA RESULT:      -9.0      0.000      0.000
REMARK  0 active torsions:
REMARK  status: ('A' for Active; 'I' for Inactive)
ROOT
HETATM    1  F1  UNL     1      26.276   0.528  55.483  1.00  0.00    -0.219 F 
HETATM    2  C1  UNL     1      27.068   0.465  54.328  1.00  0.00     0.332 A 
HETATM    3  N1  UNL     1      28.049   1.519  54.331  1.00  0.00    -0.241 NA
HETATM    4  C2  UNL     1      28.224   2.395  53.414  1.00  0.00     0.232 A 
HETATM    5  N2  UNL     1      27.434   2.432  52.239  1.00  0.00    -0.224 NA
HETATM    6  C3  UNL     1      26.510   1.596  52.047  1.00  0.00     0.142 A 
HETATM    7  N3  UNL     1      26.140   2.144  50.761  1.00  0.00    -0.340 N 
HETATM    8  C4  UNL     1      24.881   2.882  50.831  1.00  0.00     0.035 A 
HETATM    9  C5  UNL     1      24.575   4.039  51.495  1.00  0.00     0.032 A 
HETATM   10  C6  UNL     1      23.237   4.329  51.507  1.00  0.00     0.041 A 
HETATM   11  C7  UNL     1      22.375   3.481  50.888  1.00  0.00     0.090 A 
HETATM   12  C8  UNL     1      22.562   2.307  50.188  1.00  0.00     0.069 A 
HETATM   13 CL1  UNL     1      21.482   1.199  49.372  1.00  0.00    -0.081 Cl
HETATM   14  C9  UNL     1      23.918   2.068  50.210  1.00  0.00     0.056 A 
HETATM   15  O1  UNL     1      20.969   3.548  50.788  1.00  0.00    -0.346 OA
HETATM   16  C10 UNL     1      20.195   3.544  51.988  1.00  0.00     0.203 C 
HETATM   17  C11 UNL     1      20.551   2.358  52.785  1.00  0.00    -0.000 C 
HETATM   18  C12 UNL     1      20.929   1.284  53.418  1.00  0.00    -0.002 C 
HETATM   19  C13 UNL     1      21.096   0.218  54.365  1.00  0.00    -0.002 C 
HETATM   20  C14 UNL     1      21.940  -0.773  54.229  1.00  0.00    -0.001 C 
HETATM   21  C15 UNL     1      22.902  -1.068  53.155  1.00  0.00     0.202 C 
HETATM   22  O2  UNL     1      24.261  -1.117  53.622  1.00  0.00    -0.359 OA
HETATM   23  C16 UNL     1      25.153  -0.205  53.169  1.00  0.00     0.150 C 
HETATM   24  C17 UNL     1      26.234   0.599  53.124  1.00  0.00     0.064 A 
HETATM   25  H3  UNL     1      26.670   2.033  49.872  1.00  0.00     0.167 HD
ENDROOT
TORSDOF 0
ENDMDL
MODEL 2
REMARK VINA RESULT:      -8.6      2.649      3.753
REMARK  0 active torsions:
REMARK  status: ('A' for Active; 'I' for Inactive)
ROOT
HETATM    1  F1  UNL     1      20.826  -0.838  55.092  1.00  0.00    -0.219 F 
HETATM    2  C1  UNL     1      21.963  -1.495  54.600  1.00  0.00     0.332 A 
HETATM    3  N1  UNL     1      22.980  -1.571  55.617  1.00  0.00    -0.241 NA
HETATM    4  C2  UNL     1      24.185  -1.150  55.516  1.00  0.00     0.232 A 
HETATM    5  N2  UNL     1      24.677  -0.529  54.342  1.00  0.00    -0.224 NA
HETATM    6  C3  UNL     1      23.938  -0.358  53.335  1.00  0.00     0.142 A 
HETATM    7  N3  UNL     1      24.978   0.268  52.548  1.00  0.00    -0.340 N 
HETATM    8  C4  UNL     1      24.764   1.708  52.421  1.00  0.00     0.035 A 
HETATM    9  C5  UNL     1      24.792   2.690  53.374  1.00  0.00     0.032 A 
HETATM   10  C6  UNL     1      24.338   3.903  52.928  1.00  0.00     0.041 A 
HETATM   11  C7  UNL     1      23.921   4.015  51.640  1.00  0.00     0.090 A 
HETATM   12  C8  UNL     1      23.856   3.113  50.598  1.00  0.00     0.069 A 
HETATM   13 CL1  UNL     1      23.338   3.225  48.931  1.00  0.00    -0.081 Cl
HETATM   14  C9  UNL     1      24.321   1.920  51.103  1.00  0.00     0.056 A 
HETATM   15  O1  UNL     1      23.394   5.136  50.963  1.00  0.00    -0.346 OA
HETATM   16  C10 UNL     1      22.197   5.736  51.460  1.00  0.00     0.203 C 
HETATM   17  C11 UNL     1      21.147   4.707  51.550  1.00  0.00    -0.000 C 
HETATM   18  C12 UNL     1      20.283   3.733  51.595  1.00  0.00    -0.002 C 
HETATM   19  C13 UNL     1      19.107   2.928  51.769  1.00  0.00    -0.002 C 
HETATM   20  C14 UNL     1      19.042   1.644  51.526  1.00  0.00    -0.001 C 
HETATM   21  C15 UNL     1      20.071   0.710  51.044  1.00  0.00     0.202 C 
HETATM   22  O2  UNL     1      20.328  -0.361  51.969  1.00  0.00    -0.359 OA
HETATM   23  C16 UNL     1      21.549  -0.464  52.545  1.00  0.00     0.150 C 
HETATM   24  C17 UNL     1      22.508  -0.778  53.438  1.00  0.00     0.064 A 
HETATM   25  H3  UNL     1      25.783  -0.216  52.100  1.00  0.00     0.167 HD
ENDROOT
TORSDOF 0
ENDMDL
MODEL 3
REMARK VINA RESULT:      -7.7      3.640      5.770
REMARK  0 active torsions:
REMARK  status: ('A' for Active; 'I' for Inactive)
ROOT
HETATM    1  F1  UNL     1      19.102   1.106  50.505  1.00  0.00    -0.219 F 
HETATM    2  C1  UNL     1      19.961   0.273  51.235  1.00  0.00     0.332 A 
HETATM    3  N1  UNL     1      19.636   0.320  52.637  1.00  0.00    -0.241 NA
HETATM    4  C2  UNL     1      20.438   0.613  53.591  1.00  0.00     0.232 A 
HETATM    5  N2  UNL     1      21.797   0.943  53.368  1.00  0.00    -0.224 NA
HETATM    6  C3  UNL     1      22.280   0.969  52.203  1.00  0.00     0.142 A 
HETATM    7  N3  UNL     1      23.605   1.337  52.648  1.00  0.00    -0.340 N 
HETATM    8  C4  UNL     1      23.906   2.735  52.346  1.00  0.00     0.035 A 
HETATM    9  C5  UNL     1      23.343   3.883  52.835  1.00  0.00     0.032 A 
HETATM   10  C6  UNL     1      23.733   5.014  52.170  1.00  0.00     0.041 A 
HETATM   11  C7  UNL     1      24.604   4.900  51.133  1.00  0.00     0.090 A 
HETATM   12  C8  UNL     1      25.238   3.815  50.562  1.00  0.00     0.069 A 
HETATM   13 CL1  UNL     1      26.368   3.633  49.239  1.00  0.00    -0.081 Cl
HETATM   14  C9  UNL     1      24.808   2.714  51.268  1.00  0.00     0.056 A 
HETATM   15  O1  UNL     1      25.126   5.901  50.287  1.00  0.00    -0.346 OA
HETATM   16  C10 UNL     1      24.219   6.684  49.509  1.00  0.00     0.203 C 
HETATM   17  C11 UNL     1      23.377   5.784  48.703  1.00  0.00    -0.000 C 
HETATM   18  C12 UNL     1      22.681   4.912  48.030  1.00  0.00    -0.002 C 
HETATM   19  C13 UNL     1      21.753   4.257  47.154  1.00  0.00    -0.002 C 
HETATM   20  C14 UNL     1      21.645   2.960  47.018  1.00  0.00    -0.001 C 
HETATM   21  C15 UNL     1      22.381   1.867  47.673  1.00  0.00     0.202 C 
HETATM   22  O2  UNL     1      21.523   0.986  48.418  1.00  0.00    -0.359 OA
HETATM   23  C16 UNL     1      21.663   0.902  49.762  1.00  0.00     0.150 C 
HETATM   24  C17 UNL     1      21.359   0.696  51.059  1.00  0.00     0.064 A 
HETATM   25  H3  UNL     1      24.292   0.709  53.114  1.00  0.00     0.167 HD
ENDROOT
TORSDOF 0
ENDMDL
MODEL 4
REMARK VINA RESULT:      -7.4      9.519     11.665
REMARK  0 active torsions:
REMARK  status: ('A' for Active; 'I' for Inactive)
ROOT
HETATM    1  F1  UNL     1      34.007   4.936  44.656  1.00  0.00    -0.219 F 
HETATM    2  C1  UNL     1      34.324   4.564  45.970  1.00  0.00     0.332 A 
HETATM    3  N1  UNL     1      33.855   3.230  46.243  1.00  0.00    -0.241 NA
HETATM    4  C2  UNL     1      33.079   2.880  47.200  1.00  0.00     0.232 A 
HETATM    5  N2  UNL     1      32.568   3.807  48.141  1.00  0.00    -0.224 NA
HETATM    6  C3  UNL     1      32.853   5.033  48.071  1.00  0.00     0.142 A 
HETATM    7  N3  UNL     1      32.078   5.386  49.239  1.00  0.00    -0.340 N 
HETATM    8  C4  UNL     1      30.848   6.088  48.878  1.00  0.00     0.035 A 
HETATM    9  C5  UNL     1      29.750   5.643  48.192  1.00  0.00     0.032 A 
HETATM   10  C6  UNL     1      28.872   6.637  47.854  1.00  0.00     0.041 A 
HETATM   11  C7  UNL     1      29.157   7.916  48.213  1.00  0.00     0.090 A 
HETATM   12  C8  UNL     1      30.211   8.478  48.903  1.00  0.00     0.069 A 
HETATM   13 CL1  UNL     1      30.604  10.112  49.391  1.00  0.00    -0.081 Cl
HETATM   14  C9  UNL     1      31.056   7.436  49.214  1.00  0.00     0.056 A 
HETATM   15  O1  UNL     1      28.433   9.101  47.960  1.00  0.00    -0.346 OA
HETATM   16  C10 UNL     1      28.188   9.479  46.605  1.00  0.00     0.203 C 
HETATM   17  C11 UNL     1      29.473   9.554  45.888  1.00  0.00    -0.000 C 
HETATM   18  C12 UNL     1      30.653   9.595  45.339  1.00  0.00    -0.002 C 
HETATM   19  C13 UNL     1      31.758   9.740  44.434  1.00  0.00    -0.002 C 
HETATM   20  C14 UNL     1      33.010   9.525  44.748  1.00  0.00    -0.001 C 
HETATM   21  C15 UNL     1      33.617   9.101  46.019  1.00  0.00     0.202 C 
HETATM   22  O2  UNL     1      34.339   7.862  45.906  1.00  0.00    -0.359 OA
HETATM   23  C16 UNL     1      33.910   6.777  46.593  1.00  0.00     0.150 C 
HETATM   24  C17 UNL     1      33.704   5.489  46.931  1.00  0.00     0.064 A 
HETATM   25  H3  UNL     1      32.339   5.197  50.229  1.00  0.00     0.167 HD
ENDROOT
TORSDOF 0
ENDMDL
MODEL 5
REMARK VINA RESULT:      -7.4      2.983      5.090
REMARK  0 active torsions:
REMARK  status: ('A' for Active; 'I' for Inactive)
ROOT
HETATM    1  F1  UNL     1      26.116   2.588  52.379  1.00  0.00    -0.219 F 
HETATM    2  C1  UNL     1      25.142   2.197  53.308  1.00  0.00     0.332 A 
HETATM    3  N1  UNL     1      25.188   0.773  53.517  1.00  0.00    -0.241 NA
HETATM    4  C2  UNL     1      24.214  -0.046  53.379  1.00  0.00     0.232 A 
HETATM    5  N2  UNL     1      22.920   0.373  52.984  1.00  0.00    -0.224 NA
HETATM    6  C3  UNL     1      22.671   1.585  52.741  1.00  0.00     0.142 A 
HETATM    7  N3  UNL     1      21.281   1.344  52.427  1.00  0.00    -0.340 N 
HETATM    8  C4  UNL     1      21.027   1.446  50.992  1.00  0.00     0.035 A 
HETATM    9  C5  UNL     1      21.472   0.661  49.961  1.00  0.00     0.032 A 
HETATM   10  C6  UNL     1      21.205   1.177  48.722  1.00  0.00     0.041 A 
HETATM   11  C7  UNL     1      20.552   2.366  48.631  1.00  0.00     0.090 A 
HETATM   12  C8  UNL     1      20.053   3.231  49.583  1.00  0.00     0.069 A 
HETATM   13 CL1  UNL     1      19.202   4.758  49.503  1.00  0.00    -0.081 Cl
HETATM   14  C9  UNL     1      20.351   2.663  50.801  1.00  0.00     0.056 A 
HETATM   15  O1  UNL     1      20.191   3.105  47.484  1.00  0.00    -0.346 OA
HETATM   16  C10 UNL     1      21.222   3.541  46.597  1.00  0.00     0.203 C 
HETATM   17  C11 UNL     1      22.214   4.317  47.360  1.00  0.00    -0.000 C 
HETATM   18  C12 UNL     1      23.037   4.988  48.115  1.00  0.00    -0.002 C 
HETATM   19  C13 UNL     1      24.126   5.772  48.626  1.00  0.00    -0.002 C 
HETATM   20  C14 UNL     1      24.272   6.113  49.881  1.00  0.00    -0.001 C 
HETATM   21  C15 UNL     1      23.437   5.817  51.055  1.00  0.00     0.202 C 
HETATM   22  O2  UNL     1      24.145   5.089  52.074  1.00  0.00    -0.359 OA
HETATM   23  C16 UNL     1      23.749   3.834  52.390  1.00  0.00     0.150 C 
HETATM   24  C17 UNL     1      23.799   2.560  52.829  1.00  0.00     0.064 A 
HETATM   25  H3  UNL     1      20.524   1.139  53.112  1.00  0.00     0.167 HD
ENDROOT
TORSDOF 0
ENDMDL
MODEL 6
REMARK VINA RESULT:      -7.3      3.152      5.109
REMARK  0 active torsions:
REMARK  status: ('A' for Active; 'I' for Inactive)
ROOT
HETATM    1  F1  UNL     1      24.575  -0.725  52.917  1.00  0.00    -0.219 F 
HETATM    2  C1  UNL     1      23.606  -0.452  53.893  1.00  0.00     0.332 A 
HETATM    3  N1  UNL     1      22.743  -1.590  54.077  1.00  0.00    -0.241 NA
HETATM    4  C2  UNL     1      21.466  -1.597  53.981  1.00  0.00     0.232 A 
HETATM    5  N2  UNL     1      20.722  -0.435  53.664  1.00  0.00    -0.224 NA
HETATM    6  C3  UNL     1      21.293   0.670  53.455  1.00  0.00     0.142 A 
HETATM    7  N3  UNL     1      20.058   1.382  53.215  1.00  0.00    -0.340 N 
HETATM    8  C4  UNL     1      19.880   1.689  51.797  1.00  0.00     0.035 A 
HETATM    9  C5  UNL     1      19.689   0.850  50.732  1.00  0.00     0.032 A 
HETATM   10  C6  UNL     1      19.770   1.476  49.517  1.00  0.00     0.041 A 
HETATM   11  C7  UNL     1      20.020   2.811  49.481  1.00  0.00     0.090 A 
HETATM   12  C8  UNL     1      20.218   3.750  50.472  1.00  0.00     0.069 A 
HETATM   13 CL1  UNL     1      20.530   5.472  50.463  1.00  0.00    -0.081 Cl
HETATM   14  C9  UNL     1      20.126   3.066  51.664  1.00  0.00     0.056 A 
HETATM   15  O1  UNL     1      20.174   3.664  48.368  1.00  0.00    -0.346 OA
HETATM   16  C10 UNL     1      21.217   3.389  47.431  1.00  0.00     0.203 C 
HETATM   17  C11 UNL     1      22.501   3.322  48.150  1.00  0.00    -0.000 C 
HETATM   18  C12 UNL     1      23.587   3.281  48.868  1.00  0.00    -0.002 C 
HETATM   19  C13 UNL     1      24.942   3.171  49.330  1.00  0.00    -0.002 C 
HETATM   20  C14 UNL     1      25.313   3.282  50.580  1.00  0.00    -0.001 C 
HETATM   21  C15 UNL     1      24.520   3.528  51.794  1.00  0.00     0.202 C 
HETATM   22  O2  UNL     1      24.637   2.469  52.760  1.00  0.00    -0.359 OA
HETATM   23  C16 UNL     1      23.544   1.737  53.079  1.00  0.00     0.150 C 
HETATM   24  C17 UNL     1      22.786   0.703  53.495  1.00  0.00     0.064 A 
HETATM   25  H3  UNL     1      19.367   1.671  53.937  1.00  0.00     0.167 HD
ENDROOT
TORSDOF 0
ENDMDL
MODEL 7
REMARK VINA RESULT:      -7.1      3.813      5.839
REMARK  0 active torsions:
REMARK  status: ('A' for Active; 'I' for Inactive)
ROOT
HETATM    1  F1  UNL     1      21.946  -0.381  51.503  1.00  0.00    -0.219 F 
HETATM    2  C1  UNL     1      20.868   0.465  51.800  1.00  0.00     0.332 A 
HETATM    3  N1  UNL     1      19.824   0.313  50.820  1.00  0.00    -0.241 NA
HETATM    4  C2  UNL     1      19.304   1.247  50.116  1.00  0.00     0.232 A 
HETATM    5  N2  UNL     1      19.716   2.598  50.220  1.00  0.00    -0.224 NA
HETATM    6  C3  UNL     1      20.630   2.941  51.018  1.00  0.00     0.142 A 
HETATM    7  N3  UNL     1      20.558   4.341  50.663  1.00  0.00    -0.340 N 
HETATM    8  C4  UNL     1      21.699   4.750  49.848  1.00  0.00     0.035 A 
HETATM    9  C5  UNL     1      22.059   4.371  48.582  1.00  0.00     0.032 A 
HETATM   10  C6  UNL     1      23.306   4.798  48.213  1.00  0.00     0.041 A 
HETATM   11  C7  UNL     1      24.040   5.525  49.096  1.00  0.00     0.090 A 
HETATM   12  C8  UNL     1      23.785   5.971  50.377  1.00  0.00     0.069 A 
HETATM   13 CL1  UNL     1      24.698   6.913  51.534  1.00  0.00    -0.081 Cl
HETATM   14  C9  UNL     1      22.525   5.513  50.692  1.00  0.00     0.056 A 
HETATM   15  O1  UNL     1      25.344   6.047  48.961  1.00  0.00    -0.346 OA
HETATM   16  C10 UNL     1      26.424   5.144  48.725  1.00  0.00     0.203 C 
HETATM   17  C11 UNL     1      26.437   4.123  49.787  1.00  0.00    -0.000 C 
HETATM   18  C12 UNL     1      26.370   3.266  50.766  1.00  0.00    -0.002 C 
HETATM   19  C13 UNL     1      26.594   2.178  51.674  1.00  0.00    -0.002 C 
HETATM   20  C14 UNL     1      25.855   1.920  52.723  1.00  0.00    -0.001 C 
HETATM   21  C15 UNL     1      24.664   2.608  53.245  1.00  0.00     0.202 C 
HETATM   22  O2  UNL     1      23.508   1.754  53.301  1.00  0.00    -0.359 OA
HETATM   23  C16 UNL     1      22.433   2.040  52.529  1.00  0.00     0.150 C 
HETATM   24  C17 UNL     1      21.305   1.870  51.811  1.00  0.00     0.064 A 
HETATM   25  H3  UNL     1      19.810   5.008  50.947  1.00  0.00     0.167 HD
ENDROOT
TORSDOF 0
ENDMDL
MODEL 8
REMARK VINA RESULT:      -7.0      4.104      6.212
REMARK  0 active torsions:
REMARK  status: ('A' for Active; 'I' for Inactive)
ROOT
HETATM    1  F1  UNL     1      18.599  -0.497  50.832  1.00  0.00    -0.219 F 
HETATM    2  C1  UNL     1      17.948   0.739  50.951  1.00  0.00     0.332 A 
HETATM    3  N1  UNL     1      17.434   1.163  49.675  1.00  0.00    -0.241 NA
HETATM    4  C2  UNL     1      17.682   2.274  49.089  1.00  0.00     0.232 A 
HETATM    5  N2  UNL     1      18.532   3.257  49.651  1.00  0.00    -0.224 NA
HETATM    6  C3  UNL     1      19.093   3.075  50.766  1.00  0.00     0.142 A 
HETATM    7  N3  UNL     1      19.756   4.360  50.760  1.00  0.00    -0.340 N 
HETATM    8  C4  UNL     1      21.187   4.227  50.497  1.00  0.00     0.035 A 
HETATM    9  C5  UNL     1      21.840   3.803  49.370  1.00  0.00     0.032 A 
HETATM   10  C6  UNL     1      23.183   3.607  49.553  1.00  0.00     0.041 A 
HETATM   11  C7  UNL     1      23.720   3.842  50.778  1.00  0.00     0.090 A 
HETATM   12  C8  UNL     1      23.175   4.274  51.969  1.00  0.00     0.069 A 
HETATM   13 CL1  UNL     1      23.835   4.596  53.557  1.00  0.00    -0.081 Cl
HETATM   14  C9  UNL     1      21.831   4.452  51.726  1.00  0.00     0.056 A 
HETATM   15  O1  UNL     1      25.053   3.689  51.216  1.00  0.00    -0.346 OA
HETATM   16  C10 UNL     1      25.657   2.397  51.138  1.00  0.00     0.203 C 
HETATM   17  C11 UNL     1      24.814   1.430  51.861  1.00  0.00    -0.000 C 
HETATM   18  C12 UNL     1      24.008   0.648  52.521  1.00  0.00    -0.002 C 
HETATM   19  C13 UNL     1      23.371  -0.470  53.157  1.00  0.00    -0.002 C 
HETATM   20  C14 UNL     1      22.235  -0.411  53.804  1.00  0.00    -0.001 C 
HETATM   21  C15 UNL     1      21.336   0.726  54.052  1.00  0.00     0.202 C 
HETATM   22  O2  UNL     1      20.019   0.523  53.510  1.00  0.00    -0.359 OA
HETATM   23  C16 UNL     1      19.575   1.333  52.520  1.00  0.00     0.150 C 
HETATM   24  C17 UNL     1      18.879   1.764  51.450  1.00  0.00     0.064 A 
HETATM   25  H3  UNL     1      19.306   5.282  50.934  1.00  0.00     0.167 HD
ENDROOT
TORSDOF 0
ENDMDL
MODEL 9
REMARK VINA RESULT:      -7.0     11.465     13.820
REMARK  0 active torsions:
REMARK  status: ('A' for Active; 'I' for Inactive)
ROOT
HETATM    1  F1  UNL     1      32.642   8.135  42.064  1.00  0.00    -0.219 F 
HETATM    2  C1  UNL     1      33.590   7.126  41.841  1.00  0.00     0.332 A 
HETATM    3  N1  UNL     1      32.981   5.999  41.183  1.00  0.00    -0.241 NA
HETATM    4  C2  UNL     1      32.991   4.786  41.593  1.00  0.00     0.232 A 
HETATM    5  N2  UNL     1      33.628   4.396  42.796  1.00  0.00    -0.224 NA
HETATM    6  C3  UNL     1      34.215   5.239  43.528  1.00  0.00     0.142 A 
HETATM    7  N3  UNL     1      34.623   4.259  44.509  1.00  0.00    -0.340 N 
HETATM    8  C4  UNL     1      33.842   4.369  45.738  1.00  0.00     0.035 A 
HETATM    9  C5  UNL     1      32.509   4.142  45.958  1.00  0.00     0.032 A 
HETATM   10  C6  UNL     1      32.078   4.547  47.193  1.00  0.00     0.041 A 
HETATM   11  C7  UNL     1      32.971   5.112  48.048  1.00  0.00     0.090 A 
HETATM   12  C8  UNL     1      34.320   5.380  47.945  1.00  0.00     0.069 A 
HETATM   13 CL1  UNL     1      35.498   6.092  49.024  1.00  0.00    -0.081 Cl
HETATM   14  C9  UNL     1      34.694   4.954  46.690  1.00  0.00     0.056 A 
HETATM   15  O1  UNL     1      32.766   5.627  49.346  1.00  0.00    -0.346 OA
HETATM   16  C10 UNL     1      31.839   6.699  49.520  1.00  0.00     0.203 C 
HETATM   17  C11 UNL     1      32.219   7.810  48.630  1.00  0.00    -0.000 C 
HETATM   18  C12 UNL     1      32.631   8.738  47.813  1.00  0.00    -0.002 C 
HETATM   19  C13 UNL     1      32.793   9.944  47.052  1.00  0.00    -0.002 C 
HETATM   20  C14 UNL     1      33.735  10.144  46.166  1.00  0.00    -0.001 C 
HETATM   21  C15 UNL     1      34.823   9.263  45.714  1.00  0.00     0.202 C 
HETATM   22  O2  UNL     1      34.761   8.980  44.305  1.00  0.00    -0.359 OA
HETATM   23  C16 UNL     1      34.548   7.709  43.891  1.00  0.00     0.150 C 
HETATM   24  C17 UNL     1      34.169   6.674  43.115  1.00  0.00     0.064 A 
HETATM   25  H3  UNL     1      35.385   3.558  44.395  1.00  0.00     0.167 HD
ENDROOT
TORSDOF 0
ENDMDL
