MODEL 1
REMARK VINA RESULT:      -9.0      0.000      0.000
REMARK  5 active torsions:
REMARK  status: ('A' for Active; 'I' for Inactive)
REMARK    1  A    between atoms: C3_3  and  O1_4 
REMARK    2  A    between atoms: C8_11  and  O2_12 
REMARK    3  A    between atoms: O2_12  and  C9_13 
REMARK    4  A    between atoms: C12_16  and  N3_17 
REMARK       I    between atoms: N3_17  and  C13_18 
REMARK       I    between atoms: C13_18  and  N4_20 
REMARK    5  A    between atoms: N4_20  and  C14_21 
ROOT
HETATM    1  C9  UNL     1      26.827   5.591  48.648  1.00  0.00     0.078 A 
HETATM    2  C10 UNL     1      25.488   5.932  48.827  1.00  0.00     0.039 A 
HETATM    3  C11 UNL     1      24.595   5.035  49.356  1.00  0.00     0.032 A 
HETATM    4  C12 UNL     1      25.037   3.778  49.712  1.00  0.00     0.036 A 
HETATM    5  C20 UNL     1      26.368   3.435  49.534  1.00  0.00     0.032 A 
HETATM    6  C21 UNL     1      27.294   4.325  49.002  1.00  0.00     0.039 A 
ENDROOT
BRANCH   1   7
HETATM    7  O2  UNL     1      27.723   6.506  48.113  1.00  0.00    -0.291 OA
BRANCH   7   8
HETATM    8  C8  UNL     1      29.097   6.337  48.213  1.00  0.00     0.184 A 
HETATM    9  N2  UNL     1      29.725   5.185  47.936  1.00  0.00    -0.217 NA
HETATM   10  C7  UNL     1      31.079   5.140  48.073  1.00  0.00     0.236 A 
HETATM   11  N1  UNL     1      31.807   6.207  48.475  1.00  0.00    -0.241 NA
HETATM   12  C6  UNL     1      31.174   7.362  48.752  1.00  0.00     0.076 A 
HETATM   13  C5  UNL     1      31.713   8.659  49.202  1.00  0.00     0.070 A 
HETATM   14  C22 UNL     1      29.795   7.448  48.625  1.00  0.00     0.058 A 
HETATM   15  C3  UNL     1      30.680   9.485  49.335  1.00  0.00     0.081 A 
HETATM   16  C2  UNL     1      29.434   8.812  48.996  1.00  0.00     0.005 A 
HETATM   17  C1  UNL     1      28.215   9.328  49.016  1.00  0.00     0.027 C 
BRANCH  15  18
HETATM   18  O1  UNL     1      30.722  10.818  49.741  1.00  0.00    -0.355 OA
HETATM   19  C4  UNL     1      30.895  11.869  48.803  1.00  0.00     0.210 C 
ENDBRANCH  15  18
ENDBRANCH   7   8
ENDBRANCH   1   7
BRANCH   4  20
HETATM   20  N3  UNL     1      24.308   2.692  50.271  1.00  0.00    -0.309 N 
HETATM   21  C13 UNL     1      23.987   2.563  51.651  1.00  0.00     0.321 C 
HETATM   22  O3  UNL     1      24.326   3.412  52.515  1.00  0.00    -0.247 OA
HETATM   23  N4  UNL     1      23.258   1.391  51.938  1.00  0.00    -0.338 N 
HETATM   24  H11 UNL     1      22.964   0.671  51.244  1.00  0.00     0.164 HD
HETATM   25  H10 UNL     1      24.047   2.013  49.524  1.00  0.00     0.170 HD
BRANCH  23  26
HETATM   26  C14 UNL     1      22.797   1.001  53.259  1.00  0.00     0.086 C 
HETATM   27  C15 UNL     1      21.315   0.896  53.190  1.00  0.00     0.025 C 
HETATM   28  C16 UNL     1      20.726   0.241  54.420  1.00  0.00     0.002 C 
HETATM   29  C17 UNL     1      21.285  -1.168  54.431  1.00  0.00     0.000 C 
HETATM   30  C18 UNL     1      22.775  -1.169  54.566  1.00  0.00     0.002 C 
HETATM   31  C19 UNL     1      23.505  -0.235  53.695  1.00  0.00     0.025 C 
ENDBRANCH  23  26
ENDBRANCH   4  20
TORSDOF 5
ENDMDL
MODEL 2
REMARK VINA RESULT:      -9.0      1.693      2.397
REMARK  5 active torsions:
REMARK  status: ('A' for Active; 'I' for Inactive)
REMARK    1  A    between atoms: C3_3  and  O1_4 
REMARK    2  A    between atoms: C8_11  and  O2_12 
REMARK    3  A    between atoms: O2_12  and  C9_13 
REMARK    4  A    between atoms: C12_16  and  N3_17 
REMARK       I    between atoms: N3_17  and  C13_18 
REMARK       I    between atoms: C13_18  and  N4_20 
REMARK    5  A    between atoms: N4_20  and  C14_21 
ROOT
HETATM    1  C9  UNL     1      26.481   5.624  48.560  1.00  0.00     0.078 A 
HETATM    2  C10 UNL     1      25.107   5.726  48.777  1.00  0.00     0.039 A 
HETATM    3  C11 UNL     1      24.414   4.715  49.392  1.00  0.00     0.032 A 
HETATM    4  C12 UNL     1      25.091   3.585  49.798  1.00  0.00     0.036 A 
HETATM    5  C20 UNL     1      26.456   3.481  49.582  1.00  0.00     0.032 A 
HETATM    6  C21 UNL     1      27.184   4.490  48.962  1.00  0.00     0.039 A 
ENDROOT
BRANCH   1   7
HETATM    7  O2  UNL     1      27.174   6.653  47.937  1.00  0.00    -0.291 OA
BRANCH   7   8
HETATM    8  C8  UNL     1      27.341   7.895  48.534  1.00  0.00     0.184 A 
HETATM    9  N2  UNL     1      26.322   8.702  48.867  1.00  0.00    -0.217 NA
HETATM   10  C7  UNL     1      26.611   9.898  49.448  1.00  0.00     0.236 A 
HETATM   11  N1  UNL     1      27.878  10.301  49.698  1.00  0.00    -0.241 NA
HETATM   12  C6  UNL     1      28.898   9.489  49.363  1.00  0.00     0.076 A 
HETATM   13  C5  UNL     1      30.354   9.674  49.520  1.00  0.00     0.070 A 
HETATM   14  C22 UNL     1      28.645   8.261  48.769  1.00  0.00     0.058 A 
HETATM   15  C3  UNL     1      30.939   8.585  49.033  1.00  0.00     0.081 A 
HETATM   16  C2  UNL     1      29.946   7.642  48.538  1.00  0.00     0.005 A 
HETATM   17  C1  UNL     1      30.171   6.459  47.989  1.00  0.00     0.027 C 
BRANCH  15  18
HETATM   18  O1  UNL     1      32.308   8.326  48.977  1.00  0.00    -0.355 OA
HETATM   19  C4  UNL     1      33.082   8.688  47.844  1.00  0.00     0.210 C 
ENDBRANCH  15  18
ENDBRANCH   7   8
ENDBRANCH   1   7
BRANCH   4  20
HETATM   20  N3  UNL     1      24.593   2.421  50.446  1.00  0.00    -0.309 N 
HETATM   21  C13 UNL     1      24.006   2.410  51.743  1.00  0.00     0.321 C 
HETATM   22  O3  UNL     1      23.873   3.447  52.443  1.00  0.00    -0.247 OA
HETATM   23  N4  UNL     1      23.597   1.123  52.149  1.00  0.00    -0.338 N 
HETATM   24  H11 UNL     1      23.695   0.248  51.591  1.00  0.00     0.164 HD
HETATM   25  H10 UNL     1      24.723   1.587  49.834  1.00  0.00     0.170 HD
BRANCH  23  26
HETATM   26  C14 UNL     1      22.969   0.815  53.421  1.00  0.00     0.086 C 
HETATM   27  C15 UNL     1      21.499   0.802  53.190  1.00  0.00     0.025 C 
HETATM   28  C16 UNL     1      20.737   0.232  54.366  1.00  0.00     0.002 C 
HETATM   29  C17 UNL     1      21.195  -1.208  54.483  1.00  0.00     0.000 C 
HETATM   30  C18 UNL     1      22.657  -1.298  54.785  1.00  0.00     0.002 C 
HETATM   31  C19 UNL     1      23.540  -0.446  53.973  1.00  0.00     0.025 C 
ENDBRANCH  23  26
ENDBRANCH   4  20
TORSDOF 5
ENDMDL
MODEL 3
REMARK VINA RESULT:      -8.9      2.588     10.342
REMARK  5 active torsions:
REMARK  status: ('A' for Active; 'I' for Inactive)
REMARK    1  A    between atoms: C3_3  and  O1_4 
REMARK    2  A    between atoms: C8_11  and  O2_12 
REMARK    3  A    between atoms: O2_12  and  C9_13 
REMARK    4  A    between atoms: C12_16  and  N3_17 
REMARK       I    between atoms: N3_17  and  C13_18 
REMARK       I    between atoms: C13_18  and  N4_20 
REMARK    5  A    between atoms: N4_20  and  C14_21 
ROOT
HETATM    1  C9  UNL     1      25.692   4.046  50.012  1.00  0.00     0.078 A 
HETATM    2  C10 UNL     1      24.948   5.163  50.392  1.00  0.00     0.039 A 
HETATM    3  C11 UNL     1      25.278   6.416  49.943  1.00  0.00     0.032 A 
HETATM    4  C12 UNL     1      26.362   6.566  49.106  1.00  0.00     0.036 A 
HETATM    5  C20 UNL     1      27.105   5.459  48.727  1.00  0.00     0.032 A 
HETATM    6  C21 UNL     1      26.792   4.177  49.166  1.00  0.00     0.039 A 
ENDROOT
BRANCH   1   7
HETATM    7  O2  UNL     1      25.350   2.782  50.472  1.00  0.00    -0.291 OA
BRANCH   7   8
HETATM    8  C8  UNL     1      26.002   2.187  51.544  1.00  0.00     0.184 A 
HETATM    9  N2  UNL     1      27.284   2.428  51.859  1.00  0.00    -0.217 NA
HETATM   10  C7  UNL     1      27.815   1.784  52.934  1.00  0.00     0.236 A 
HETATM   11  N1  UNL     1      27.103   0.916  53.689  1.00  0.00    -0.241 NA
HETATM   12  C6  UNL     1      25.818   0.677  53.371  1.00  0.00     0.076 A 
HETATM   13  C5  UNL     1      24.826  -0.207  54.012  1.00  0.00     0.070 A 
HETATM   14  C22 UNL     1      25.239   1.314  52.282  1.00  0.00     0.058 A 
HETATM   15  C3  UNL     1      23.697  -0.093  53.321  1.00  0.00     0.081 A 
HETATM   16  C2  UNL     1      23.861   0.840  52.215  1.00  0.00     0.005 A 
HETATM   17  C1  UNL     1      22.947   1.194  51.324  1.00  0.00     0.027 C 
BRANCH  15  18
HETATM   18  O1  UNL     1      22.493  -0.749  53.571  1.00  0.00    -0.355 OA
HETATM   19  C4  UNL     1      21.875  -0.697  54.847  1.00  0.00     0.210 C 
ENDBRANCH  15  18
ENDBRANCH   7   8
ENDBRANCH   1   7
BRANCH   4  20
HETATM   20  N3  UNL     1      26.891   7.750  48.521  1.00  0.00    -0.309 N 
HETATM   21  C13 UNL     1      27.294   8.901  49.255  1.00  0.00     0.321 C 
HETATM   22  O3  UNL     1      27.218   8.975  50.508  1.00  0.00    -0.247 OA
HETATM   23  N4  UNL     1      27.781   9.936  48.430  1.00  0.00    -0.338 N 
HETATM   24  H11 UNL     1      27.855   9.903  47.391  1.00  0.00     0.164 HD
HETATM   25  H10 UNL     1      26.937   7.648  47.484  1.00  0.00     0.170 HD
BRANCH  23  26
HETATM   26  C14 UNL     1      28.260  11.221  48.906  1.00  0.00     0.086 C 
HETATM   27  C15 UNL     1      29.711  11.293  48.580  1.00  0.00     0.025 C 
HETATM   28  C16 UNL     1      30.276  12.682  48.778  1.00  0.00     0.002 C 
HETATM   29  C17 UNL     1      29.540  13.561  47.787  1.00  0.00     0.000 C 
HETATM   30  C18 UNL     1      28.073  13.607  48.074  1.00  0.00     0.002 C 
HETATM   31  C19 UNL     1      27.423  12.313  48.336  1.00  0.00     0.025 C 
ENDBRANCH  23  26
ENDBRANCH   4  20
TORSDOF 5
ENDMDL
MODEL 4
REMARK VINA RESULT:      -8.8      2.367      3.120
REMARK  5 active torsions:
REMARK  status: ('A' for Active; 'I' for Inactive)
REMARK    1  A    between atoms: C3_3  and  O1_4 
REMARK    2  A    between atoms: C8_11  and  O2_12 
REMARK    3  A    between atoms: O2_12  and  C9_13 
REMARK    4  A    between atoms: C12_16  and  N3_17 
REMARK       I    between atoms: N3_17  and  C13_18 
REMARK       I    between atoms: C13_18  and  N4_20 
REMARK    5  A    between atoms: N4_20  and  C14_21 
ROOT
HETATM    1  C9  UNL     1      27.109   6.358  48.578  1.00  0.00     0.078 A 
HETATM    2  C10 UNL     1      25.983   6.686  49.331  1.00  0.00     0.039 A 
HETATM    3  C11 UNL     1      25.321   5.733  50.062  1.00  0.00     0.032 A 
HETATM    4  C12 UNL     1      25.781   4.434  50.046  1.00  0.00     0.036 A 
HETATM    5  C20 UNL     1      26.899   4.104  49.297  1.00  0.00     0.032 A 
HETATM    6  C21 UNL     1      27.590   5.049  48.548  1.00  0.00     0.039 A 
ENDROOT
BRANCH   1   7
HETATM    7  O2  UNL     1      27.772   7.330  47.841  1.00  0.00    -0.291 OA
BRANCH   7   8
HETATM    8  C8  UNL     1      29.021   7.810  48.213  1.00  0.00     0.184 A 
HETATM    9  N2  UNL     1      30.123   7.048  48.267  1.00  0.00    -0.217 NA
HETATM   10  C7  UNL     1      31.293   7.632  48.646  1.00  0.00     0.236 A 
HETATM   11  N1  UNL     1      31.382   8.943  48.969  1.00  0.00    -0.241 NA
HETATM   12  C6  UNL     1      30.275   9.705  48.913  1.00  0.00     0.076 A 
HETATM   13  C5  UNL     1      30.089  11.140  49.205  1.00  0.00     0.070 A 
HETATM   14  C22 UNL     1      29.063   9.147  48.530  1.00  0.00     0.058 A 
HETATM   15  C3  UNL     1      28.806  11.417  49.000  1.00  0.00     0.081 A 
HETATM   16  C2  UNL     1      28.082  10.226  48.575  1.00  0.00     0.005 A 
HETATM   17  C1  UNL     1      26.794  10.135  48.284  1.00  0.00     0.027 C 
BRANCH  15  18
HETATM   18  O1  UNL     1      28.182  12.654  49.155  1.00  0.00    -0.355 OA
HETATM   19  C4  UNL     1      28.188  13.619  48.115  1.00  0.00     0.210 C 
ENDBRANCH  15  18
ENDBRANCH   7   8
ENDBRANCH   1   7
BRANCH   4  20
HETATM   20  N3  UNL     1      25.266   3.288  50.714  1.00  0.00    -0.309 N 
HETATM   21  C13 UNL     1      26.046   2.401  51.508  1.00  0.00     0.321 C 
HETATM   22  O3  UNL     1      27.281   2.554  51.694  1.00  0.00    -0.247 OA
HETATM   23  N4  UNL     1      25.289   1.345  52.056  1.00  0.00    -0.338 N 
HETATM   24  H11 UNL     1      24.267   1.193  51.918  1.00  0.00     0.164 HD
HETATM   25  H10 UNL     1      24.243   3.197  50.534  1.00  0.00     0.170 HD
BRANCH  23  26
HETATM   26  C14 UNL     1      25.821   0.294  52.904  1.00  0.00     0.086 C 
HETATM   27  C15 UNL     1      26.808  -0.466  52.090  1.00  0.00     0.025 C 
HETATM   28  C16 UNL     1      27.633  -1.418  52.927  1.00  0.00     0.002 C 
HETATM   29  C17 UNL     1      28.411  -0.540  53.886  1.00  0.00     0.000 C 
HETATM   30  C18 UNL     1      27.502   0.219  54.800  1.00  0.00     0.002 C 
HETATM   31  C19 UNL     1      26.353   0.885  54.164  1.00  0.00     0.025 C 
ENDBRANCH  23  26
ENDBRANCH   4  20
TORSDOF 5
ENDMDL
MODEL 5
REMARK VINA RESULT:      -8.4      2.227     10.388
REMARK  5 active torsions:
REMARK  status: ('A' for Active; 'I' for Inactive)
REMARK    1  A    between atoms: C3_3  and  O1_4 
REMARK    2  A    between atoms: C8_11  and  O2_12 
REMARK    3  A    between atoms: O2_12  and  C9_13 
REMARK    4  A    between atoms: C12_16  and  N3_17 
REMARK       I    between atoms: N3_17  and  C13_18 
REMARK       I    between atoms: C13_18  and  N4_20 
REMARK    5  A    between atoms: N4_20  and  C14_21 
ROOT
HETATM    1  C9  UNL     1      25.296   4.509  49.800  1.00  0.00     0.078 A 
HETATM    2  C10 UNL     1      26.429   3.766  49.472  1.00  0.00     0.039 A 
HETATM    3  C11 UNL     1      27.492   4.346  48.828  1.00  0.00     0.032 A 
HETATM    4  C12 UNL     1      27.431   5.684  48.502  1.00  0.00     0.036 A 
HETATM    5  C20 UNL     1      26.305   6.426  48.826  1.00  0.00     0.032 A 
HETATM    6  C21 UNL     1      25.215   5.864  49.479  1.00  0.00     0.039 A 
ENDROOT
BRANCH   1   7
HETATM    7  O2  UNL     1      24.226   3.912  50.452  1.00  0.00    -0.291 OA
BRANCH   7   8
HETATM    8  C8  UNL     1      23.354   3.051  49.800  1.00  0.00     0.184 A 
HETATM    9  N2  UNL     1      23.058   3.143  48.495  1.00  0.00    -0.217 NA
HETATM   10  C7  UNL     1      22.188   2.240  47.966  1.00  0.00     0.236 A 
HETATM   11  N1  UNL     1      21.614   1.261  48.704  1.00  0.00    -0.241 NA
HETATM   12  C6  UNL     1      21.914   1.171  50.013  1.00  0.00     0.076 A 
HETATM   13  C5  UNL     1      21.442   0.218  51.035  1.00  0.00     0.070 A 
HETATM   14  C22 UNL     1      22.797   2.073  50.590  1.00  0.00     0.058 A 
HETATM   15  C3  UNL     1      22.031   0.549  52.179  1.00  0.00     0.081 A 
HETATM   16  C2  UNL     1      22.900   1.703  51.997  1.00  0.00     0.005 A 
HETATM   17  C1  UNL     1      23.639   2.301  52.918  1.00  0.00     0.027 C 
BRANCH  15  18
HETATM   18  O1  UNL     1      21.877  -0.083  53.412  1.00  0.00    -0.355 OA
HETATM   19  C4  UNL     1      20.827   0.273  54.297  1.00  0.00     0.210 C 
ENDBRANCH  15  18
ENDBRANCH   7   8
ENDBRANCH   1   7
BRANCH   4  20
HETATM   20  N3  UNL     1      28.395   6.495  47.841  1.00  0.00    -0.309 N 
HETATM   21  C13 UNL     1      29.803   6.346  47.980  1.00  0.00     0.321 C 
HETATM   22  O3  UNL     1      30.331   5.469  48.712  1.00  0.00    -0.247 OA
HETATM   23  N4  UNL     1      30.532   7.281  47.215  1.00  0.00    -0.338 N 
HETATM   24  H11 UNL     1      30.123   8.017  46.602  1.00  0.00     0.164 HD
HETATM   25  H10 UNL     1      27.918   7.207  47.247  1.00  0.00     0.170 HD
BRANCH  23  26
HETATM   26  C14 UNL     1      31.981   7.362  47.164  1.00  0.00     0.086 C 
HETATM   27  C15 UNL     1      32.440   7.802  48.509  1.00  0.00     0.025 C 
HETATM   28  C16 UNL     1      33.938   7.671  48.677  1.00  0.00     0.002 C 
HETATM   29  C17 UNL     1      34.229   6.188  48.555  1.00  0.00     0.000 C 
HETATM   30  C18 UNL     1      33.861   5.664  47.203  1.00  0.00     0.002 C 
HETATM   31  C19 UNL     1      32.542   6.067  46.689  1.00  0.00     0.025 C 
ENDBRANCH  23  26
ENDBRANCH   4  20
TORSDOF 5
ENDMDL
MODEL 6
REMARK VINA RESULT:      -8.3      7.535     12.026
REMARK  5 active torsions:
REMARK  status: ('A' for Active; 'I' for Inactive)
REMARK    1  A    between atoms: C3_3  and  O1_4 
REMARK    2  A    between atoms: C8_11  and  O2_12 
REMARK    3  A    between atoms: O2_12  and  C9_13 
REMARK    4  A    between atoms: C12_16  and  N3_17 
REMARK       I    between atoms: N3_17  and  C13_18 
REMARK       I    between atoms: C13_18  and  N4_20 
REMARK    5  A    between atoms: N4_20  and  C14_21 
ROOT
HETATM    1  C9  UNL     1      19.527   1.148  51.240  1.00  0.00     0.078 A 
HETATM    2  C10 UNL     1      19.880   1.706  52.468  1.00  0.00     0.039 A 
HETATM    3  C11 UNL     1      21.193   1.783  52.856  1.00  0.00     0.032 A 
HETATM    4  C12 UNL     1      22.172   1.298  52.015  1.00  0.00     0.036 A 
HETATM    5  C20 UNL     1      21.824   0.742  50.795  1.00  0.00     0.032 A 
HETATM    6  C21 UNL     1      20.502   0.652  50.376  1.00  0.00     0.039 A 
ENDROOT
BRANCH   1   7
HETATM    7  O2  UNL     1      18.195   1.075  50.856  1.00  0.00    -0.291 OA
BRANCH   7   8
HETATM    8  C8  UNL     1      17.317   2.134  51.041  1.00  0.00     0.184 A 
HETATM    9  N2  UNL     1      17.538   3.372  50.573  1.00  0.00    -0.217 NA
HETATM   10  C7  UNL     1      16.603   4.330  50.818  1.00  0.00     0.236 A 
HETATM   11  N1  UNL     1      15.467   4.081  51.512  1.00  0.00    -0.241 NA
HETATM   12  C6  UNL     1      15.249   2.839  51.980  1.00  0.00     0.076 A 
HETATM   13  C5  UNL     1      14.115   2.298  52.754  1.00  0.00     0.070 A 
HETATM   14  C22 UNL     1      16.178   1.833  51.751  1.00  0.00     0.058 A 
HETATM   15  C3  UNL     1      14.370   1.012  52.974  1.00  0.00     0.081 A 
HETATM   16  C2  UNL     1      15.645   0.631  52.381  1.00  0.00     0.005 A 
HETATM   17  C1  UNL     1      16.211  -0.565  52.405  1.00  0.00     0.027 C 
BRANCH  15  18
HETATM   18  O1  UNL     1      13.569   0.107  53.667  1.00  0.00    -0.355 OA
HETATM   19  C4  UNL     1      12.504   0.548  54.495  1.00  0.00     0.210 C 
ENDBRANCH  15  18
ENDBRANCH   7   8
ENDBRANCH   1   7
BRANCH   4  20
HETATM   20  N3  UNL     1      23.583   1.267  52.199  1.00  0.00    -0.309 N 
HETATM   21  C13 UNL     1      24.277   0.266  52.933  1.00  0.00     0.321 C 
HETATM   22  O3  UNL     1      23.697  -0.699  53.494  1.00  0.00    -0.247 OA
HETATM   23  N4  UNL     1      25.672   0.473  52.960  1.00  0.00    -0.338 N 
HETATM   24  H11 UNL     1      26.179   1.262  52.506  1.00  0.00     0.164 HD
HETATM   25  H10 UNL     1      24.024   2.082  51.720  1.00  0.00     0.170 HD
BRANCH  23  26
HETATM   26  C14 UNL     1      26.627  -0.389  53.633  1.00  0.00     0.086 C 
HETATM   27  C15 UNL     1      27.198  -1.296  52.601  1.00  0.00     0.025 C 
HETATM   28  C16 UNL     1      28.398  -2.064  53.111  1.00  0.00     0.002 C 
HETATM   29  C17 UNL     1      29.444  -1.013  53.427  1.00  0.00     0.000 C 
HETATM   30  C18 UNL     1      28.986  -0.088  54.509  1.00  0.00     0.002 C 
HETATM   31  C19 UNL     1      27.619   0.440  54.375  1.00  0.00     0.025 C 
ENDBRANCH  23  26
ENDBRANCH   4  20
TORSDOF 5
ENDMDL
MODEL 7
REMARK VINA RESULT:      -8.3      1.906      2.959
REMARK  5 active torsions:
REMARK  status: ('A' for Active; 'I' for Inactive)
REMARK    1  A    between atoms: C3_3  and  O1_4 
REMARK    2  A    between atoms: C8_11  and  O2_12 
REMARK    3  A    between atoms: O2_12  and  C9_13 
REMARK    4  A    between atoms: C12_16  and  N3_17 
REMARK       I    between atoms: N3_17  and  C13_18 
REMARK       I    between atoms: C13_18  and  N4_20 
REMARK    5  A    between atoms: N4_20  and  C14_21 
ROOT
HETATM    1  C9  UNL     1      26.907   6.078  48.776  1.00  0.00     0.078 A 
HETATM    2  C10 UNL     1      27.214   4.728  48.945  1.00  0.00     0.039 A 
HETATM    3  C11 UNL     1      26.496   3.945  49.813  1.00  0.00     0.032 A 
HETATM    4  C12 UNL     1      25.460   4.509  50.526  1.00  0.00     0.036 A 
HETATM    5  C20 UNL     1      25.153   5.850  50.361  1.00  0.00     0.032 A 
HETATM    6  C21 UNL     1      25.862   6.666  49.488  1.00  0.00     0.039 A 
ENDROOT
BRANCH   1   7
HETATM    7  O2  UNL     1      27.639   6.861  47.895  1.00  0.00    -0.291 OA
BRANCH   7   8
HETATM    8  C8  UNL     1      28.414   7.929  48.328  1.00  0.00     0.184 A 
HETATM    9  N2  UNL     1      27.903   9.099  48.740  1.00  0.00    -0.217 NA
HETATM   10  C7  UNL     1      28.764  10.073  49.142  1.00  0.00     0.236 A 
HETATM   11  N1  UNL     1      30.107   9.905  49.141  1.00  0.00    -0.241 NA
HETATM   12  C6  UNL     1      30.617   8.730  48.728  1.00  0.00     0.076 A 
HETATM   13  C5  UNL     1      32.019   8.283  48.626  1.00  0.00     0.070 A 
HETATM   14  C22 UNL     1      29.772   7.711  48.310  1.00  0.00     0.058 A 
HETATM   15  C3  UNL     1      31.999   7.038  48.162  1.00  0.00     0.081 A 
HETATM   16  C2  UNL     1      30.631   6.594  47.933  1.00  0.00     0.005 A 
HETATM   17  C1  UNL     1      30.239   5.416  47.477  1.00  0.00     0.027 C 
BRANCH  15  18
HETATM   18  O1  UNL     1      33.101   6.222  47.910  1.00  0.00    -0.355 OA
HETATM   19  C4  UNL     1      34.031   5.901  48.932  1.00  0.00     0.210 C 
ENDBRANCH  15  18
ENDBRANCH   7   8
ENDBRANCH   1   7
BRANCH   4  20
HETATM   20  N3  UNL     1      24.586   3.905  51.473  1.00  0.00    -0.309 N 
HETATM   21  C13 UNL     1      23.888   2.683  51.261  1.00  0.00     0.321 C 
HETATM   22  O3  UNL     1      23.984   2.016  50.199  1.00  0.00    -0.247 OA
HETATM   23  N4  UNL     1      23.088   2.310  52.361  1.00  0.00    -0.338 N 
HETATM   24  H11 UNL     1      22.990   2.843  53.251  1.00  0.00     0.164 HD
HETATM   25  H10 UNL     1      24.535   4.489  52.336  1.00  0.00     0.170 HD
BRANCH  23  26
HETATM   26  C14 UNL     1      22.268   1.113  52.423  1.00  0.00     0.086 C 
HETATM   27  C15 UNL     1      23.120   0.031  52.986  1.00  0.00     0.025 C 
HETATM   28  C16 UNL     1      22.319  -1.198  53.356  1.00  0.00     0.002 C 
HETATM   29  C17 UNL     1      21.370  -0.747  54.448  1.00  0.00     0.000 C 
HETATM   30  C18 UNL     1      20.422   0.300  53.956  1.00  0.00     0.002 C 
HETATM   31  C19 UNL     1      21.016   1.399  53.178  1.00  0.00     0.025 C 
ENDBRANCH  23  26
ENDBRANCH   4  20
TORSDOF 5
ENDMDL
MODEL 8
REMARK VINA RESULT:      -8.3      2.190     10.835
REMARK  5 active torsions:
REMARK  status: ('A' for Active; 'I' for Inactive)
REMARK    1  A    between atoms: C3_3  and  O1_4 
REMARK    2  A    between atoms: C8_11  and  O2_12 
REMARK    3  A    between atoms: O2_12  and  C9_13 
REMARK    4  A    between atoms: C12_16  and  N3_17 
REMARK       I    between atoms: N3_17  and  C13_18 
REMARK       I    between atoms: C13_18  and  N4_20 
REMARK    5  A    between atoms: N4_20  and  C14_21 
ROOT
HETATM    1  C9  UNL     1      25.817   4.874  49.831  1.00  0.00     0.078 A 
HETATM    2  C10 UNL     1      25.599   6.229  49.587  1.00  0.00     0.039 A 
HETATM    3  C11 UNL     1      26.488   6.965  48.846  1.00  0.00     0.032 A 
HETATM    4  C12 UNL     1      27.613   6.349  48.340  1.00  0.00     0.036 A 
HETATM    5  C20 UNL     1      27.833   5.002  48.582  1.00  0.00     0.032 A 
HETATM    6  C21 UNL     1      26.948   4.232  49.328  1.00  0.00     0.039 A 
ENDROOT
BRANCH   1   7
HETATM    7  O2  UNL     1      24.911   4.138  50.582  1.00  0.00    -0.291 OA
BRANCH   7   8
HETATM    8  C8  UNL     1      23.952   3.328  49.990  1.00  0.00     0.184 A 
HETATM    9  N2  UNL     1      23.594   3.421  48.700  1.00  0.00    -0.217 NA
HETATM   10  C7  UNL     1      22.640   2.571  48.233  1.00  0.00     0.236 A 
HETATM   11  N1  UNL     1      22.042   1.643  49.016  1.00  0.00    -0.241 NA
HETATM   12  C6  UNL     1      22.403   1.552  50.309  1.00  0.00     0.076 A 
HETATM   13  C5  UNL     1      21.923   0.646  51.370  1.00  0.00     0.070 A 
HETATM   14  C22 UNL     1      23.373   2.401  50.824  1.00  0.00     0.058 A 
HETATM   15  C3  UNL     1      22.591   0.953  52.477  1.00  0.00     0.081 A 
HETATM   16  C2  UNL     1      23.524   2.044  52.231  1.00  0.00     0.005 A 
HETATM   17  C1  UNL     1      24.347   2.604  53.103  1.00  0.00     0.027 C 
BRANCH  15  18
HETATM   18  O1  UNL     1      22.460   0.351  53.727  1.00  0.00    -0.355 OA
HETATM   19  C4  UNL     1      21.184   0.093  54.292  1.00  0.00     0.210 C 
ENDBRANCH  15  18
ENDBRANCH   7   8
ENDBRANCH   1   7
BRANCH   4  20
HETATM   20  N3  UNL     1      28.664   6.898  47.555  1.00  0.00    -0.309 N 
HETATM   21  C13 UNL     1      29.588   7.876  48.019  1.00  0.00     0.321 C 
HETATM   22  O3  UNL     1      29.558   8.350  49.183  1.00  0.00    -0.247 OA
HETATM   23  N4  UNL     1      30.530   8.250  47.037  1.00  0.00    -0.338 N 
HETATM   24  H11 UNL     1      30.579   7.875  46.066  1.00  0.00     0.164 HD
HETATM   25  H10 UNL     1      28.655   6.480  46.600  1.00  0.00     0.170 HD
BRANCH  23  26
HETATM   26  C14 UNL     1      31.588   9.225  47.230  1.00  0.00     0.086 C 
HETATM   27  C15 UNL     1      32.762   8.755  46.447  1.00  0.00     0.025 C 
HETATM   28  C16 UNL     1      33.843   9.809  46.341  1.00  0.00     0.002 C 
HETATM   29  C17 UNL     1      33.213  10.957  45.578  1.00  0.00     0.000 C 
HETATM   30  C18 UNL     1      32.056  11.544  46.323  1.00  0.00     0.002 C 
HETATM   31  C19 UNL     1      31.090  10.585  46.881  1.00  0.00     0.025 C 
ENDBRANCH  23  26
ENDBRANCH   4  20
TORSDOF 5
ENDMDL
MODEL 9
REMARK VINA RESULT:      -8.2      6.152     10.171
REMARK  5 active torsions:
REMARK  status: ('A' for Active; 'I' for Inactive)
REMARK    1  A    between atoms: C3_3  and  O1_4 
REMARK    2  A    between atoms: C8_11  and  O2_12 
REMARK    3  A    between atoms: O2_12  and  C9_13 
REMARK    4  A    between atoms: C12_16  and  N3_17 
REMARK       I    between atoms: N3_17  and  C13_18 
REMARK       I    between atoms: C13_18  and  N4_20 
REMARK    5  A    between atoms: N4_20  and  C14_21 
ROOT
HETATM    1  C9  UNL     1      22.455   1.957  51.481  1.00  0.00     0.078 A 
HETATM    2  C10 UNL     1      23.329   2.699  50.687  1.00  0.00     0.039 A 
HETATM    3  C11 UNL     1      23.159   4.050  50.523  1.00  0.00     0.032 A 
HETATM    4  C12 UNL     1      22.105   4.676  51.154  1.00  0.00     0.036 A 
HETATM    5  C20 UNL     1      21.234   3.941  51.943  1.00  0.00     0.032 A 
HETATM    6  C21 UNL     1      21.384   2.572  52.128  1.00  0.00     0.039 A 
ENDROOT
BRANCH   1   7
HETATM    7  O2  UNL     1      22.637   0.591  51.641  1.00  0.00    -0.291 OA
BRANCH   7   8
HETATM    8  C8  UNL     1      22.459  -0.037  52.866  1.00  0.00     0.184 A 
HETATM    9  N2  UNL     1      21.256  -0.341  53.377  1.00  0.00    -0.217 NA
HETATM   10  C7  UNL     1      21.207  -0.957  54.590  1.00  0.00     0.236 A 
HETATM   11  N1  UNL     1      22.320  -1.270  55.294  1.00  0.00    -0.241 NA
HETATM   12  C6  UNL     1      23.525  -0.964  54.779  1.00  0.00     0.076 A 
HETATM   13  C5  UNL     1      24.878  -1.188  55.323  1.00  0.00     0.070 A 
HETATM   14  C22 UNL     1      23.617  -0.336  53.544  1.00  0.00     0.058 A 
HETATM   15  C3  UNL     1      25.740  -0.706  54.434  1.00  0.00     0.081 A 
HETATM   16  C2  UNL     1      25.040  -0.150  53.284  1.00  0.00     0.005 A 
HETATM   17  C1  UNL     1      25.580   0.412  52.214  1.00  0.00     0.027 C 
BRANCH  15  18
HETATM   18  O1  UNL     1      27.131  -0.704  54.534  1.00  0.00    -0.355 OA
HETATM   19  C4  UNL     1      27.848   0.487  54.816  1.00  0.00     0.210 C 
ENDBRANCH  15  18
ENDBRANCH   7   8
ENDBRANCH   1   7
BRANCH   4  20
HETATM   20  N3  UNL     1      21.730   6.048  51.133  1.00  0.00    -0.309 N 
HETATM   21  C13 UNL     1      21.223   6.727  49.989  1.00  0.00     0.321 C 
HETATM   22  O3  UNL     1      21.059   6.164  48.876  1.00  0.00    -0.247 OA
HETATM   23  N4  UNL     1      20.930   8.083  50.241  1.00  0.00    -0.338 N 
HETATM   24  H11 UNL     1      21.056   8.575  51.151  1.00  0.00     0.164 HD
HETATM   25  H10 UNL     1      21.881   6.476  52.072  1.00  0.00     0.170 HD
BRANCH  23  26
HETATM   26  C14 UNL     1      20.402   9.014  49.260  1.00  0.00     0.086 C 
HETATM   27  C15 UNL     1      19.269   9.732  49.906  1.00  0.00     0.025 C 
HETATM   28  C16 UNL     1      18.800  10.917  49.092  1.00  0.00     0.002 C 
HETATM   29  C17 UNL     1      19.979  11.868  49.048  1.00  0.00     0.000 C 
HETATM   30  C18 UNL     1      21.154  11.258  48.352  1.00  0.00     0.002 C 
HETATM   31  C19 UNL     1      21.499   9.883  48.748  1.00  0.00     0.025 C 
ENDBRANCH  23  26
ENDBRANCH   4  20
TORSDOF 5
ENDMDL
