MODEL 1
REMARK VINA RESULT:      -7.5      0.000      0.000
REMARK  6 active torsions:
REMARK  status: ('A' for Active; 'I' for Inactive)
REMARK    1  A    between atoms: C2_2  and  C3_3 
REMARK    2  A    between atoms: C3_3  and  N1_4 
REMARK    3  A    between atoms: N1_4  and  C4_5 
REMARK       I    between atoms: N1_4  and  C11_14 
REMARK    4  A    between atoms: C4_5  and  C5_6 
REMARK    5  A    between atoms: C10_12  and  O1_13 
REMARK       I    between atoms: C11_14  and  N2_16 
REMARK    6  A    between atoms: N2_16  and  C12_17 
ROOT
HETATM    1  N1  UNL     1      23.734   1.785  51.745  1.00  0.00    -0.330 N 
HETATM    2  C11 UNL     1      24.316   2.792  50.926  1.00  0.00     0.323 C 
HETATM    3  O2  UNL     1      23.693   2.749  49.813  1.00  0.00    -0.247 OA
HETATM    4  N2  UNL     1      25.380   3.653  51.315  1.00  0.00    -0.309 N 
HETATM    5  H14 UNL     1      25.765   3.536  52.277  1.00  0.00     0.170 HD
ENDROOT
BRANCH   1   6
HETATM    6  C3  UNL     1      22.657   1.023  51.142  1.00  0.00     0.127 C 
BRANCH   6   7
HETATM    7  C2  UNL     1      21.823   0.296  52.179  1.00  0.00     0.015 C 
HETATM    8  C1  UNL     1      20.365   0.346  51.763  1.00  0.00     0.006 C 
ENDBRANCH   6   7
ENDBRANCH   1   6
BRANCH   1   9
HETATM    9  C4  UNL     1      24.190   1.538  53.095  1.00  0.00     0.169 C 
BRANCH   9  10
HETATM   10  C5  UNL     1      25.404   0.684  53.136  1.00  0.00    -0.005 A 
HETATM   11  C6  UNL     1      25.501  -0.639  52.762  1.00  0.00     0.012 A 
HETATM   12  C7  UNL     1      26.713  -1.296  52.861  1.00  0.00     0.002 A 
HETATM   13  C8  UNL     1      27.851  -0.657  53.334  1.00  0.00     0.026 A 
HETATM   14  C9  UNL     1      27.758   0.676  53.712  1.00  0.00     0.067 A 
HETATM   15 CL1  UNL     1      29.219   1.447  54.304  1.00  0.00    -0.081 Cl
HETATM   16  C10 UNL     1      26.551   1.313  53.608  1.00  0.00     0.095 A 
BRANCH  16  17
HETATM   17  O1  UNL     1      26.543   2.659  54.011  1.00  0.00    -0.358 OA
HETATM   18  H13 UNL     1      25.922   3.000  54.724  1.00  0.00     0.217 HD
ENDBRANCH  16  17
ENDBRANCH   9  10
ENDBRANCH   1   9
BRANCH   4  19
HETATM   19  C12 UNL     1      25.802   4.597  50.310  1.00  0.00     0.036 A 
HETATM   20  C13 UNL     1      26.926   4.126  49.627  1.00  0.00     0.029 A 
HETATM   21  C14 UNL     1      27.500   4.873  48.619  1.00  0.00     0.002 A 
HETATM   22  C15 UNL     1      26.936   6.091  48.306  1.00  0.00     0.000 A 
HETATM   23  C16 UNL     1      25.825   6.545  48.987  1.00  0.00     0.002 A 
HETATM   24  C17 UNL     1      25.253   5.812  49.984  1.00  0.00     0.029 A 
ENDBRANCH   4  19
TORSDOF 6
ENDMDL
MODEL 2
REMARK VINA RESULT:      -7.4      3.795      6.161
REMARK  6 active torsions:
REMARK  status: ('A' for Active; 'I' for Inactive)
REMARK    1  A    between atoms: C2_2  and  C3_3 
REMARK    2  A    between atoms: C3_3  and  N1_4 
REMARK    3  A    between atoms: N1_4  and  C4_5 
REMARK       I    between atoms: N1_4  and  C11_14 
REMARK    4  A    between atoms: C4_5  and  C5_6 
REMARK    5  A    between atoms: C10_12  and  O1_13 
REMARK       I    between atoms: C11_14  and  N2_16 
REMARK    6  A    between atoms: N2_16  and  C12_17 
ROOT
HETATM    1  N1  UNL     1      23.780  -0.278  53.443  1.00  0.00    -0.330 N 
HETATM    2  C11 UNL     1      25.168  -0.565  53.569  1.00  0.00     0.323 C 
HETATM    3  O2  UNL     1      25.321  -1.081  54.726  1.00  0.00    -0.247 OA
HETATM    4  N2  UNL     1      26.151  -0.310  52.573  1.00  0.00    -0.309 N 
HETATM    5  H14 UNL     1      25.831   0.122  51.681  1.00  0.00     0.170 HD
ENDROOT
BRANCH   1   6
HETATM    6  C3  UNL     1      22.956  -0.623  54.587  1.00  0.00     0.127 C 
BRANCH   6   7
HETATM    7  C2  UNL     1      21.521  -0.908  54.190  1.00  0.00     0.015 C 
HETATM    8  C1  UNL     1      20.638   0.219  54.689  1.00  0.00     0.006 C 
ENDBRANCH   6   7
ENDBRANCH   1   6
BRANCH   1   9
HETATM    9  C4  UNL     1      23.227   0.321  52.249  1.00  0.00     0.169 C 
BRANCH   9  10
HETATM   10  C5  UNL     1      23.103   1.796  52.359  1.00  0.00    -0.005 A 
HETATM   11  C6  UNL     1      24.034   2.670  52.879  1.00  0.00     0.012 A 
HETATM   12  C7  UNL     1      23.764   4.026  52.910  1.00  0.00     0.002 A 
HETATM   13  C8  UNL     1      22.568   4.541  52.428  1.00  0.00     0.026 A 
HETATM   14  C9  UNL     1      21.628   3.664  51.903  1.00  0.00     0.067 A 
HETATM   15 CL1  UNL     1      20.130   4.355  51.305  1.00  0.00    -0.081 Cl
HETATM   16  C10 UNL     1      21.909   2.325  51.880  1.00  0.00     0.095 A 
BRANCH  16  17
HETATM   17  O1  UNL     1      20.905   1.507  51.333  1.00  0.00    -0.358 OA
HETATM   18  H13 UNL     1      19.963   1.832  51.204  1.00  0.00     0.217 HD
ENDBRANCH  16  17
ENDBRANCH   9  10
ENDBRANCH   1   9
BRANCH   4  19
HETATM   19  C12 UNL     1      27.496  -0.689  52.931  1.00  0.00     0.036 A 
HETATM   20  C13 UNL     1      28.233   0.425  53.343  1.00  0.00     0.029 A 
HETATM   21  C14 UNL     1      29.550   0.293  53.732  1.00  0.00     0.002 A 
HETATM   22  C15 UNL     1      30.115  -0.963  53.704  1.00  0.00     0.000 A 
HETATM   23  C16 UNL     1      29.378  -2.056  53.296  1.00  0.00     0.002 A 
HETATM   24  C17 UNL     1      28.076  -1.932  52.910  1.00  0.00     0.029 A 
ENDBRANCH   4  19
TORSDOF 6
ENDMDL
MODEL 3
REMARK VINA RESULT:      -7.2      2.730      5.433
REMARK  6 active torsions:
REMARK  status: ('A' for Active; 'I' for Inactive)
REMARK    1  A    between atoms: C2_2  and  C3_3 
REMARK    2  A    between atoms: C3_3  and  N1_4 
REMARK    3  A    between atoms: N1_4  and  C4_5 
REMARK       I    between atoms: N1_4  and  C11_14 
REMARK    4  A    between atoms: C4_5  and  C5_6 
REMARK    5  A    between atoms: C10_12  and  O1_13 
REMARK       I    between atoms: C11_14  and  N2_16 
REMARK    6  A    between atoms: N2_16  and  C12_17 
ROOT
HETATM    1  N1  UNL     1      23.445   0.439  53.240  1.00  0.00    -0.330 N 
HETATM    2  C11 UNL     1      24.819   0.085  53.331  1.00  0.00     0.323 C 
HETATM    3  O2  UNL     1      24.849  -1.161  53.606  1.00  0.00    -0.247 OA
HETATM    4  N2  UNL     1      25.910   0.979  53.144  1.00  0.00    -0.309 N 
HETATM    5  H14 UNL     1      25.685   1.972  52.923  1.00  0.00     0.170 HD
ENDROOT
BRANCH   1   6
HETATM    6  C3  UNL     1      22.498  -0.637  53.468  1.00  0.00     0.127 C 
BRANCH   6   7
HETATM    7  C2  UNL     1      21.325  -0.193  54.320  1.00  0.00     0.015 C 
HETATM    8  C1  UNL     1      20.044  -0.373  53.528  1.00  0.00     0.006 C 
ENDBRANCH   6   7
ENDBRANCH   1   6
BRANCH   1   9
HETATM    9  C4  UNL     1      23.019   1.787  52.938  1.00  0.00     0.169 C 
BRANCH   9  10
HETATM   10  C5  UNL     1      23.006   2.064  51.479  1.00  0.00    -0.005 A 
HETATM   11  C6  UNL     1      22.184   1.490  50.533  1.00  0.00     0.012 A 
HETATM   12  C7  UNL     1      22.298   1.859  49.206  1.00  0.00     0.002 A 
HETATM   13  C8  UNL     1      23.229   2.802  48.791  1.00  0.00     0.026 A 
HETATM   14  C9  UNL     1      24.059   3.383  49.739  1.00  0.00     0.067 A 
HETATM   15 CL1  UNL     1      25.220   4.570  49.174  1.00  0.00    -0.081 Cl
HETATM   16  C10 UNL     1      23.934   3.007  51.050  1.00  0.00     0.095 A 
BRANCH  16  17
HETATM   17  O1  UNL     1      24.811   3.643  51.946  1.00  0.00    -0.358 OA
HETATM   18  H13 UNL     1      25.514   4.291  51.636  1.00  0.00     0.217 HD
ENDBRANCH  16  17
ENDBRANCH   9  10
ENDBRANCH   1   9
BRANCH   4  19
HETATM   19  C12 UNL     1      27.218   0.387  53.287  1.00  0.00     0.036 A 
HETATM   20  C13 UNL     1      28.121   1.303  53.833  1.00  0.00     0.029 A 
HETATM   21  C14 UNL     1      29.435   0.946  54.058  1.00  0.00     0.002 A 
HETATM   22  C15 UNL     1      29.829  -0.333  53.730  1.00  0.00     0.000 A 
HETATM   23  C16 UNL     1      28.928  -1.228  53.192  1.00  0.00     0.002 A 
HETATM   24  C17 UNL     1      27.629  -0.883  52.968  1.00  0.00     0.029 A 
ENDBRANCH   4  19
TORSDOF 6
ENDMDL
MODEL 4
REMARK VINA RESULT:      -7.1      2.385      5.909
REMARK  6 active torsions:
REMARK  status: ('A' for Active; 'I' for Inactive)
REMARK    1  A    between atoms: C2_2  and  C3_3 
REMARK    2  A    between atoms: C3_3  and  N1_4 
REMARK    3  A    between atoms: N1_4  and  C4_5 
REMARK       I    between atoms: N1_4  and  C11_14 
REMARK    4  A    between atoms: C4_5  and  C5_6 
REMARK    5  A    between atoms: C10_12  and  O1_13 
REMARK       I    between atoms: C11_14  and  N2_16 
REMARK    6  A    between atoms: N2_16  and  C12_17 
ROOT
HETATM    1  N1  UNL     1      24.409   3.181  51.395  1.00  0.00    -0.330 N 
HETATM    2  C11 UNL     1      25.432   2.576  52.177  1.00  0.00     0.323 C 
HETATM    3  O2  UNL     1      25.077   2.715  53.396  1.00  0.00    -0.247 OA
HETATM    4  N2  UNL     1      26.600   1.952  51.658  1.00  0.00    -0.309 N 
HETATM    5  H14 UNL     1      26.717   1.936  50.623  1.00  0.00     0.170 HD
ENDROOT
BRANCH   1   6
HETATM    6  C3  UNL     1      23.303   3.759  52.136  1.00  0.00     0.127 C 
BRANCH   6   7
HETATM    7  C2  UNL     1      21.959   3.342  51.572  1.00  0.00     0.015 C 
HETATM    8  C1  UNL     1      21.153   4.585  51.248  1.00  0.00     0.006 C 
ENDBRANCH   6   7
ENDBRANCH   1   6
BRANCH   1   9
HETATM    9  C4  UNL     1      24.469   3.215  49.951  1.00  0.00     0.169 C 
BRANCH   9  10
HETATM   10  C5  UNL     1      24.982   4.510  49.436  1.00  0.00    -0.005 A 
HETATM   11  C6  UNL     1      24.263   5.670  49.243  1.00  0.00     0.012 A 
HETATM   12  C7  UNL     1      24.894   6.798  48.753  1.00  0.00     0.002 A 
HETATM   13  C8  UNL     1      26.248   6.799  48.445  1.00  0.00     0.026 A 
HETATM   14  C9  UNL     1      26.977   5.633  48.638  1.00  0.00     0.067 A 
HETATM   15 CL1  UNL     1      28.684   5.676  48.237  1.00  0.00    -0.081 Cl
HETATM   16  C10 UNL     1      26.338   4.524  49.123  1.00  0.00     0.095 A 
BRANCH  16  17
HETATM   17  O1  UNL     1      27.147   3.387  49.290  1.00  0.00    -0.358 OA
HETATM   18  H13 UNL     1      26.789   2.528  49.671  1.00  0.00     0.217 HD
ENDBRANCH  16  17
ENDBRANCH   9  10
ENDBRANCH   1   9
BRANCH   4  19
HETATM   19  C12 UNL     1      27.495   1.409  52.651  1.00  0.00     0.036 A 
HETATM   20  C13 UNL     1      27.357   0.020  52.738  1.00  0.00     0.029 A 
HETATM   21  C14 UNL     1      28.119  -0.708  53.627  1.00  0.00     0.002 A 
HETATM   22  C15 UNL     1      29.018  -0.031  54.423  1.00  0.00     0.000 A 
HETATM   23  C16 UNL     1      29.146   1.339  54.328  1.00  0.00     0.002 A 
HETATM   24  C17 UNL     1      28.395   2.065  53.451  1.00  0.00     0.029 A 
ENDBRANCH   4  19
TORSDOF 6
ENDMDL
MODEL 5
REMARK VINA RESULT:      -7.0      1.307      1.683
REMARK  6 active torsions:
REMARK  status: ('A' for Active; 'I' for Inactive)
REMARK    1  A    between atoms: C2_2  and  C3_3 
REMARK    2  A    between atoms: C3_3  and  N1_4 
REMARK    3  A    between atoms: N1_4  and  C4_5 
REMARK       I    between atoms: N1_4  and  C11_14 
REMARK    4  A    between atoms: C4_5  and  C5_6 
REMARK    5  A    between atoms: C10_12  and  O1_13 
REMARK       I    between atoms: C11_14  and  N2_16 
REMARK    6  A    between atoms: N2_16  and  C12_17 
ROOT
HETATM    1  N1  UNL     1      23.063   2.735  50.895  1.00  0.00    -0.330 N 
HETATM    2  C11 UNL     1      23.996   3.561  50.209  1.00  0.00     0.323 C 
HETATM    3  O2  UNL     1      23.795   3.368  48.963  1.00  0.00    -0.247 OA
HETATM    4  N2  UNL     1      24.947   4.417  50.833  1.00  0.00    -0.309 N 
HETATM    5  H14 UNL     1      24.961   4.441  51.874  1.00  0.00     0.170 HD
ENDROOT
BRANCH   1   6
HETATM    6  C3  UNL     1      22.184   1.942  50.056  1.00  0.00     0.127 C 
BRANCH   6   7
HETATM    7  C2  UNL     1      20.738   2.029  50.503  1.00  0.00     0.015 C 
HETATM    8  C1  UNL     1      20.213   0.627  50.748  1.00  0.00     0.006 C 
ENDBRANCH   6   7
ENDBRANCH   1   6
BRANCH   1   9
HETATM    9  C4  UNL     1      22.995   2.691  52.338  1.00  0.00     0.169 C 
BRANCH   9  10
HETATM   10  C5  UNL     1      23.634   1.473  52.898  1.00  0.00    -0.005 A 
HETATM   11  C6  UNL     1      23.055   0.232  53.059  1.00  0.00     0.012 A 
HETATM   12  C7  UNL     1      23.791  -0.806  53.600  1.00  0.00     0.002 A 
HETATM   13  C8  UNL     1      25.112  -0.635  53.992  1.00  0.00     0.026 A 
HETATM   14  C9  UNL     1      25.699   0.613  53.831  1.00  0.00     0.067 A 
HETATM   15 CL1  UNL     1      27.369   0.787  54.339  1.00  0.00    -0.081 Cl
HETATM   16  C10 UNL     1      24.958   1.631  53.295  1.00  0.00     0.095 A 
BRANCH  16  17
HETATM   17  O1  UNL     1      25.626   2.861  53.167  1.00  0.00    -0.358 OA
HETATM   18  H13 UNL     1      25.144   3.707  52.917  1.00  0.00     0.217 HD
ENDBRANCH  16  17
ENDBRANCH   9  10
ENDBRANCH   1   9
BRANCH   4  19
HETATM   19  C12 UNL     1      25.789   5.159  49.927  1.00  0.00     0.036 A 
HETATM   20  C13 UNL     1      26.829   4.358  49.446  1.00  0.00     0.029 A 
HETATM   21  C14 UNL     1      27.758   4.867  48.562  1.00  0.00     0.002 A 
HETATM   22  C15 UNL     1      27.631   6.181  48.168  1.00  0.00     0.000 A 
HETATM   23  C16 UNL     1      26.600   6.962  48.648  1.00  0.00     0.002 A 
HETATM   24  C17 UNL     1      25.679   6.465  49.522  1.00  0.00     0.029 A 
ENDBRANCH   4  19
TORSDOF 6
ENDMDL
MODEL 6
REMARK VINA RESULT:      -7.0      2.401      5.836
REMARK  6 active torsions:
REMARK  status: ('A' for Active; 'I' for Inactive)
REMARK    1  A    between atoms: C2_2  and  C3_3 
REMARK    2  A    between atoms: C3_3  and  N1_4 
REMARK    3  A    between atoms: N1_4  and  C4_5 
REMARK       I    between atoms: N1_4  and  C11_14 
REMARK    4  A    between atoms: C4_5  and  C5_6 
REMARK    5  A    between atoms: C10_12  and  O1_13 
REMARK       I    between atoms: C11_14  and  N2_16 
REMARK    6  A    between atoms: N2_16  and  C12_17 
ROOT
HETATM    1  N1  UNL     1      25.139   3.397  50.726  1.00  0.00    -0.330 N 
HETATM    2  C11 UNL     1      26.180   2.673  51.369  1.00  0.00     0.323 C 
HETATM    3  O2  UNL     1      27.179   2.704  50.574  1.00  0.00    -0.247 OA
HETATM    4  N2  UNL     1      26.082   2.054  52.646  1.00  0.00    -0.309 N 
HETATM    5  H14 UNL     1      25.174   2.137  53.152  1.00  0.00     0.170 HD
ENDROOT
BRANCH   1   6
HETATM    6  C3  UNL     1      25.461   3.946  49.422  1.00  0.00     0.127 C 
BRANCH   6   7
HETATM    7  C2  UNL     1      25.495   5.461  49.434  1.00  0.00     0.015 C 
HETATM    8  C1  UNL     1      26.715   5.933  48.667  1.00  0.00     0.006 C 
ENDBRANCH   6   7
ENDBRANCH   1   6
BRANCH   1   9
HETATM    9  C4  UNL     1      23.840   3.575  51.337  1.00  0.00     0.169 C 
BRANCH   9  10
HETATM   10  C5  UNL     1      22.882   2.507  50.952  1.00  0.00    -0.005 A 
HETATM   11  C6  UNL     1      22.235   2.370  49.743  1.00  0.00     0.012 A 
HETATM   12  C7  UNL     1      21.368   1.312  49.542  1.00  0.00     0.002 A 
HETATM   13  C8  UNL     1      21.125   0.372  50.534  1.00  0.00     0.026 A 
HETATM   14  C9  UNL     1      21.774   0.506  51.753  1.00  0.00     0.067 A 
HETATM   15 CL1  UNL     1      21.440  -0.703  52.980  1.00  0.00    -0.081 Cl
HETATM   16  C10 UNL     1      22.630   1.559  51.937  1.00  0.00     0.095 A 
BRANCH  16  17
HETATM   17  O1  UNL     1      23.246   1.622  53.199  1.00  0.00    -0.358 OA
HETATM   18  H13 UNL     1      23.857   0.896  53.531  1.00  0.00     0.217 HD
ENDBRANCH  16  17
ENDBRANCH   9  10
ENDBRANCH   1   9
BRANCH   4  19
HETATM   19  C12 UNL     1      27.274   1.375  53.091  1.00  0.00     0.036 A 
HETATM   20  C13 UNL     1      27.186   0.002  52.845  1.00  0.00     0.029 A 
HETATM   21  C14 UNL     1      28.219  -0.843  53.192  1.00  0.00     0.002 A 
HETATM   22  C15 UNL     1      29.337  -0.297  53.785  1.00  0.00     0.000 A 
HETATM   23  C16 UNL     1      29.413   1.059  54.023  1.00  0.00     0.002 A 
HETATM   24  C17 UNL     1      28.395   1.900  53.682  1.00  0.00     0.029 A 
ENDBRANCH   4  19
TORSDOF 6
ENDMDL
MODEL 7
REMARK VINA RESULT:      -6.8      2.642      6.446
REMARK  6 active torsions:
REMARK  status: ('A' for Active; 'I' for Inactive)
REMARK    1  A    between atoms: C2_2  and  C3_3 
REMARK    2  A    between atoms: C3_3  and  N1_4 
REMARK    3  A    between atoms: N1_4  and  C4_5 
REMARK       I    between atoms: N1_4  and  C11_14 
REMARK    4  A    between atoms: C4_5  and  C5_6 
REMARK    5  A    between atoms: C10_12  and  O1_13 
REMARK       I    between atoms: C11_14  and  N2_16 
REMARK    6  A    between atoms: N2_16  and  C12_17 
ROOT
HETATM    1  N1  UNL     1      24.679   0.755  53.255  1.00  0.00    -0.330 N 
HETATM    2  C11 UNL     1      23.326   0.348  53.090  1.00  0.00     0.323 C 
HETATM    3  O2  UNL     1      23.337  -0.928  53.080  1.00  0.00    -0.247 OA
HETATM    4  N2  UNL     1      22.214   1.227  52.968  1.00  0.00    -0.309 N 
HETATM    5  H14 UNL     1      22.405   2.251  53.000  1.00  0.00     0.170 HD
ENDROOT
BRANCH   1   6
HETATM    6  C3  UNL     1      25.654  -0.314  53.360  1.00  0.00     0.127 C 
BRANCH   6   7
HETATM    7  C2  UNL     1      26.837   0.076  54.223  1.00  0.00     0.015 C 
HETATM    8  C1  UNL     1      28.112  -0.096  53.420  1.00  0.00     0.006 C 
ENDBRANCH   6   7
ENDBRANCH   1   6
BRANCH   1   9
HETATM    9  C4  UNL     1      25.057   2.150  53.313  1.00  0.00     0.169 C 
BRANCH   9  10
HETATM   10  C5  UNL     1      25.329   2.720  51.970  1.00  0.00    -0.005 A 
HETATM   11  C6  UNL     1      26.410   2.452  51.157  1.00  0.00     0.012 A 
HETATM   12  C7  UNL     1      26.516   3.070  49.925  1.00  0.00     0.002 A 
HETATM   13  C8  UNL     1      25.555   3.966  49.476  1.00  0.00     0.026 A 
HETATM   14  C9  UNL     1      24.465   4.239  50.290  1.00  0.00     0.067 A 
HETATM   15 CL1  UNL     1      23.274   5.375  49.684  1.00  0.00    -0.081 Cl
HETATM   16  C10 UNL     1      24.374   3.619  51.507  1.00  0.00     0.095 A 
BRANCH  16  17
HETATM   17  O1  UNL     1      23.240   3.950  52.269  1.00  0.00    -0.358 OA
HETATM   18  H13 UNL     1      23.299   4.159  53.251  1.00  0.00     0.217 HD
ENDBRANCH  16  17
ENDBRANCH   9  10
ENDBRANCH   1   9
BRANCH   4  19
HETATM   19  C12 UNL     1      20.936   0.578  52.810  1.00  0.00     0.036 A 
HETATM   20  C13 UNL     1      20.397   0.842  51.548  1.00  0.00     0.029 A 
HETATM   21  C14 UNL     1      19.174   0.318  51.182  1.00  0.00     0.002 A 
HETATM   22  C15 UNL     1      18.503  -0.469  52.091  1.00  0.00     0.000 A 
HETATM   23  C16 UNL     1      19.045  -0.724  53.334  1.00  0.00     0.002 A 
HETATM   24  C17 UNL     1      20.253  -0.209  53.702  1.00  0.00     0.029 A 
ENDBRANCH   4  19
TORSDOF 6
ENDMDL
MODEL 8
REMARK VINA RESULT:      -6.7      2.489      2.962
REMARK  6 active torsions:
REMARK  status: ('A' for Active; 'I' for Inactive)
REMARK    1  A    between atoms: C2_2  and  C3_3 
REMARK    2  A    between atoms: C3_3  and  N1_4 
REMARK    3  A    between atoms: N1_4  and  C4_5 
REMARK       I    between atoms: N1_4  and  C11_14 
REMARK    4  A    between atoms: C4_5  and  C5_6 
REMARK    5  A    between atoms: C10_12  and  O1_13 
REMARK       I    between atoms: C11_14  and  N2_16 
REMARK    6  A    between atoms: N2_16  and  C12_17 
ROOT
HETATM    1  N1  UNL     1      22.896   2.884  50.654  1.00  0.00    -0.330 N 
HETATM    2  C11 UNL     1      23.902   3.678  50.037  1.00  0.00     0.323 C 
HETATM    3  O2  UNL     1      23.752   3.527  48.778  1.00  0.00    -0.247 OA
HETATM    4  N2  UNL     1      24.863   4.467  50.728  1.00  0.00    -0.309 N 
HETATM    5  H14 UNL     1      24.827   4.464  51.770  1.00  0.00     0.170 HD
ENDROOT
BRANCH   1   6
HETATM    6  C3  UNL     1      22.021   2.158  49.752  1.00  0.00     0.127 C 
BRANCH   6   7
HETATM    7  C2  UNL     1      20.557   2.387  50.072  1.00  0.00     0.015 C 
HETATM    8  C1  UNL     1      19.867   1.044  50.214  1.00  0.00     0.006 C 
ENDBRANCH   6   7
ENDBRANCH   1   6
BRANCH   1   9
HETATM    9  C4  UNL     1      22.756   2.807  52.091  1.00  0.00     0.169 C 
BRANCH   9  10
HETATM   10  C5  UNL     1      23.424   1.610  52.662  1.00  0.00    -0.005 A 
HETATM   11  C6  UNL     1      24.768   1.308  52.616  1.00  0.00     0.012 A 
HETATM   12  C7  UNL     1      25.233   0.145  53.200  1.00  0.00     0.002 A 
HETATM   13  C8  UNL     1      24.377  -0.741  53.840  1.00  0.00     0.026 A 
HETATM   14  C9  UNL     1      23.023  -0.442  53.889  1.00  0.00     0.067 A 
HETATM   15 CL1  UNL     1      21.975  -1.587  54.706  1.00  0.00    -0.081 Cl
HETATM   16  C10 UNL     1      22.577   0.713  53.305  1.00  0.00     0.095 A 
BRANCH  16  17
HETATM   17  O1  UNL     1      21.193   0.941  53.400  1.00  0.00    -0.358 OA
HETATM   18  H13 UNL     1      20.810   1.865  53.506  1.00  0.00     0.217 HD
ENDBRANCH  16  17
ENDBRANCH   9  10
ENDBRANCH   1   9
BRANCH   4  19
HETATM   19  C12 UNL     1      25.784   5.188  49.884  1.00  0.00     0.036 A 
HETATM   20  C13 UNL     1      26.796   4.343  49.419  1.00  0.00     0.029 A 
HETATM   21  C14 UNL     1      27.790   4.826  48.593  1.00  0.00     0.002 A 
HETATM   22  C15 UNL     1      27.756   6.157  48.239  1.00  0.00     0.000 A 
HETATM   23  C16 UNL     1      26.752   6.981  48.704  1.00  0.00     0.002 A 
HETATM   24  C17 UNL     1      25.767   6.511  49.521  1.00  0.00     0.029 A 
ENDBRANCH   4  19
TORSDOF 6
ENDMDL
MODEL 9
REMARK VINA RESULT:      -6.6      2.388      6.461
REMARK  6 active torsions:
REMARK  status: ('A' for Active; 'I' for Inactive)
REMARK    1  A    between atoms: C2_2  and  C3_3 
REMARK    2  A    between atoms: C3_3  and  N1_4 
REMARK    3  A    between atoms: N1_4  and  C4_5 
REMARK       I    between atoms: N1_4  and  C11_14 
REMARK    4  A    between atoms: C4_5  and  C5_6 
REMARK    5  A    between atoms: C10_12  and  O1_13 
REMARK       I    between atoms: C11_14  and  N2_16 
REMARK    6  A    between atoms: N2_16  and  C12_17 
ROOT
HETATM    1  N1  UNL     1      24.131   4.415  50.903  1.00  0.00    -0.330 N 
HETATM    2  C11 UNL     1      24.442   3.353  51.796  1.00  0.00     0.323 C 
HETATM    3  O2  UNL     1      24.155   3.777  52.966  1.00  0.00    -0.247 OA
HETATM    4  N2  UNL     1      24.966   2.087  51.415  1.00  0.00    -0.309 N 
HETATM    5  H14 UNL     1      25.137   1.924  50.400  1.00  0.00     0.170 HD
ENDROOT
BRANCH   1   6
HETATM    6  C3  UNL     1      23.604   5.622  51.513  1.00  0.00     0.127 C 
BRANCH   6   7
HETATM    7  C2  UNL     1      22.134   5.822  51.203  1.00  0.00     0.015 C 
HETATM    8  C1  UNL     1      21.930   7.223  50.660  1.00  0.00     0.006 C 
ENDBRANCH   6   7
ENDBRANCH   1   6
BRANCH   1   9
HETATM    9  C4  UNL     1      24.328   4.297  49.475  1.00  0.00     0.169 C 
BRANCH   9  10
HETATM   10  C5  UNL     1      25.246   5.335  48.942  1.00  0.00    -0.005 A 
HETATM   11  C6  UNL     1      24.902   6.581  48.463  1.00  0.00     0.012 A 
HETATM   12  C7  UNL     1      25.884   7.436  47.999  1.00  0.00     0.002 A 
HETATM   13  C8  UNL     1      27.224   7.074  48.000  1.00  0.00     0.026 A 
HETATM   14  C9  UNL     1      27.576   5.821  48.482  1.00  0.00     0.067 A 
HETATM   15 CL1  UNL     1      29.279   5.402  48.466  1.00  0.00    -0.081 Cl
HETATM   16  C10 UNL     1      26.592   4.985  48.938  1.00  0.00     0.095 A 
BRANCH  16  17
HETATM   17  O1  UNL     1      27.033   3.736  49.408  1.00  0.00    -0.358 OA
HETATM   18  H13 UNL     1      28.000   3.552  49.611  1.00  0.00     0.217 HD
ENDBRANCH  16  17
ENDBRANCH   9  10
ENDBRANCH   1   9
BRANCH   4  19
HETATM   19  C12 UNL     1      25.201   1.169  52.502  1.00  0.00     0.036 A 
HETATM   20  C13 UNL     1      24.048   0.434  52.791  1.00  0.00     0.029 A 
HETATM   21  C14 UNL     1      24.047  -0.506  53.801  1.00  0.00     0.002 A 
HETATM   22  C15 UNL     1      25.211  -0.699  54.513  1.00  0.00     0.000 A 
HETATM   23  C16 UNL     1      26.343   0.031  54.219  1.00  0.00     0.002 A 
HETATM   24  C17 UNL     1      26.351   0.962  53.222  1.00  0.00     0.029 A 
ENDBRANCH   4  19
TORSDOF 6
ENDMDL
