MODEL 1
REMARK VINA RESULT:      -7.6      0.000      0.000
REMARK  4 active torsions:
REMARK  status: ('A' for Active; 'I' for Inactive)
REMARK    1  A    between atoms: N3_12  and  C8_13 
REMARK    2  A    between atoms: C12_17  and  N4_18 
REMARK    3  A    between atoms: N4_18  and  C13_19 
REMARK    4  A    between atoms: C13_19  and  C14_20 
ROOT
HETATM    1  C1  UNL     1      23.130   8.070  50.453  1.00  0.00     0.000 C 
HETATM    2  O1  UNL     1      24.414   7.478  50.680  1.00  0.00     0.000 OA
HETATM    3  C2  UNL     1      24.547   6.082  50.827  1.00  0.00    -0.014 A 
HETATM    4  C3  UNL     1      25.380   6.624  49.986  1.00  0.00    -0.007 A 
HETATM    5  O2  UNL     1      25.341   8.011  49.758  1.00  0.00     0.000 OA
HETATM    6  C4  UNL     1      26.348   8.869  50.252  1.00  0.00     0.000 C 
HETATM    7  C5  UNL     1      26.466   6.015  49.136  1.00  0.00     0.259 C 
HETATM    8  N1  UNL     1      26.642   4.670  49.216  1.00  0.00    -0.437 NA
HETATM    9  C6  UNL     1      26.759   3.521  49.332  1.00  0.00     0.292 C 
HETATM   10  N2  UNL     1      25.961   3.431  50.534  1.00  0.00    -0.226 NA
HETATM   11  C7  UNL     1      24.777   2.910  50.291  1.00  0.00     0.216 C 
HETATM   12  N3  UNL     1      24.319   2.984  51.638  1.00  0.00    -0.317 N 
HETATM   13  C16 UNL     1      23.607   4.140  52.037  1.00  0.00     0.099 C 
HETATM   14  C17 UNL     1      23.649   5.419  51.750  1.00  0.00     0.030 C 
ENDROOT
BRANCH  12  15
HETATM   15  C8  UNL     1      24.598   1.909  52.519  1.00  0.00     0.041 A 
HETATM   16  C9  UNL     1      23.758   0.810  52.690  1.00  0.00     0.030 A 
HETATM   17  C10 UNL     1      24.061  -0.227  53.559  1.00  0.00     0.004 A 
HETATM   18  C11 UNL     1      25.244  -0.179  54.290  1.00  0.00     0.029 A 
HETATM   19  C12 UNL     1      26.092   0.895  54.140  1.00  0.00     0.030 A 
HETATM   20  C15 UNL     1      25.731   1.891  53.260  1.00  0.00     0.059 A 
BRANCH  19  21
HETATM   21  N4  UNL     1      27.307   0.988  54.860  1.00  0.00    -0.384 N 
HETATM   22  H14 UNL     1      27.287   1.061  55.903  1.00  0.00     0.160 HD
BRANCH  21  23
HETATM   23  C13 UNL     1      28.601   0.986  54.212  1.00  0.00     0.189 C 
BRANCH  23  24
HETATM   24  C14 UNL     1      29.105  -0.411  54.207  1.00  0.00     0.250 C 
HETATM   25  O3  UNL     1      28.604  -1.462  53.816  1.00  0.00    -0.305 OA
ENDBRANCH  23  24
ENDBRANCH  21  23
ENDBRANCH  19  21
ENDBRANCH  12  15
TORSDOF 4
ENDMDL
MODEL 2
REMARK VINA RESULT:      -7.4      3.208      4.142
REMARK  4 active torsions:
REMARK  status: ('A' for Active; 'I' for Inactive)
REMARK    1  A    between atoms: N3_12  and  C8_13 
REMARK    2  A    between atoms: C12_17  and  N4_18 
REMARK    3  A    between atoms: N4_18  and  C13_19 
REMARK    4  A    between atoms: C13_19  and  C14_20 
ROOT
HETATM    1  C1  UNL     1      20.317   3.192  47.468  1.00  0.00     0.000 C 
HETATM    2  O1  UNL     1      20.179   3.547  48.848  1.00  0.00     0.000 OA
HETATM    3  C2  UNL     1      21.103   3.084  49.807  1.00  0.00    -0.014 A 
HETATM    4  C3  UNL     1      20.857   4.361  49.858  1.00  0.00    -0.007 A 
HETATM    5  O2  UNL     1      19.951   4.936  48.950  1.00  0.00     0.000 OA
HETATM    6  C4  UNL     1      18.670   5.369  49.359  1.00  0.00     0.000 C 
HETATM    7  C5  UNL     1      21.394   5.438  50.767  1.00  0.00     0.259 C 
HETATM    8  N1  UNL     1      22.301   5.067  51.708  1.00  0.00    -0.437 NA
HETATM    9  C6  UNL     1      23.062   4.693  52.501  1.00  0.00     0.292 C 
HETATM   10  N2  UNL     1      22.756   3.292  52.324  1.00  0.00    -0.226 NA
HETATM   11  C7  UNL     1      23.708   2.668  51.663  1.00  0.00     0.216 C 
HETATM   12  N3  UNL     1      23.076   1.392  51.691  1.00  0.00    -0.317 N 
HETATM   13  C16 UNL     1      22.241   1.037  50.606  1.00  0.00     0.099 C 
HETATM   14  C17 UNL     1      21.419   1.670  49.803  1.00  0.00     0.030 C 
ENDROOT
BRANCH  12  15
HETATM   15  C8  UNL     1      23.303   0.537  52.798  1.00  0.00     0.041 A 
HETATM   16  C9  UNL     1      22.284  -0.099  53.507  1.00  0.00     0.030 A 
HETATM   17  C10 UNL     1      22.539  -0.931  54.586  1.00  0.00     0.004 A 
HETATM   18  C11 UNL     1      23.855  -1.149  54.982  1.00  0.00     0.029 A 
HETATM   19  C12 UNL     1      24.881  -0.536  54.299  1.00  0.00     0.030 A 
HETATM   20  C15 UNL     1      24.558   0.280  53.237  1.00  0.00     0.059 A 
BRANCH  19  21
HETATM   21  N4  UNL     1      26.234  -0.728  54.663  1.00  0.00    -0.384 N 
HETATM   22  H14 UNL     1      26.466  -1.204  55.564  1.00  0.00     0.160 HD
BRANCH  21  23
HETATM   23  C13 UNL     1      27.336  -0.288  53.833  1.00  0.00     0.189 C 
BRANCH  23  24
HETATM   24  C14 UNL     1      28.436   0.147  54.732  1.00  0.00     0.250 C 
HETATM   25  O3  UNL     1      28.793   1.259  55.111  1.00  0.00    -0.305 OA
ENDBRANCH  23  24
ENDBRANCH  21  23
ENDBRANCH  19  21
ENDBRANCH  12  15
TORSDOF 4
ENDMDL
MODEL 3
REMARK VINA RESULT:      -7.2      5.280      8.269
REMARK  4 active torsions:
REMARK  status: ('A' for Active; 'I' for Inactive)
REMARK    1  A    between atoms: N3_12  and  C8_13 
REMARK    2  A    between atoms: C12_17  and  N4_18 
REMARK    3  A    between atoms: N4_18  and  C13_19 
REMARK    4  A    between atoms: C13_19  and  C14_20 
ROOT
HETATM    1  C1  UNL     1      25.457  -0.885  55.702  1.00  0.00     0.000 C 
HETATM    2  O1  UNL     1      25.170  -0.917  54.300  1.00  0.00     0.000 OA
HETATM    3  C2  UNL     1      23.953  -0.405  53.802  1.00  0.00    -0.014 A 
HETATM    4  C3  UNL     1      25.017   0.011  53.177  1.00  0.00    -0.007 A 
HETATM    5  O2  UNL     1      26.287  -0.434  53.585  1.00  0.00     0.000 OA
HETATM    6  C4  UNL     1      27.029  -1.356  52.814  1.00  0.00     0.000 C 
HETATM    7  C5  UNL     1      25.175   0.951  52.009  1.00  0.00     0.259 C 
HETATM    8  N1  UNL     1      24.045   1.495  51.487  1.00  0.00    -0.437 NA
HETATM    9  C6  UNL     1      23.048   1.920  51.071  1.00  0.00     0.292 C 
HETATM   10  N2  UNL     1      22.204   0.973  51.763  1.00  0.00    -0.226 NA
HETATM   11  C7  UNL     1      21.583   1.531  52.781  1.00  0.00     0.216 C 
HETATM   12  N3  UNL     1      20.895   0.351  53.182  1.00  0.00    -0.317 N 
HETATM   13  C16 UNL     1      21.505  -0.481  54.151  1.00  0.00     0.099 C 
HETATM   14  C17 UNL     1      22.732  -0.830  54.456  1.00  0.00     0.030 C 
ENDROOT
BRANCH  12  15
HETATM   15  C8  UNL     1      19.639   0.054  52.595  1.00  0.00     0.041 A 
HETATM   16  C9  UNL     1      19.153   0.681  51.449  1.00  0.00     0.030 A 
HETATM   17  C10 UNL     1      17.920   0.367  50.898  1.00  0.00     0.004 A 
HETATM   18  C11 UNL     1      17.134  -0.610  51.501  1.00  0.00     0.029 A 
HETATM   19  C12 UNL     1      17.591  -1.247  52.633  1.00  0.00     0.030 A 
HETATM   20  C15 UNL     1      18.824  -0.886  53.129  1.00  0.00     0.059 A 
BRANCH  19  21
HETATM   21  N4  UNL     1      16.829  -2.248  53.281  1.00  0.00    -0.384 N 
HETATM   22  H14 UNL     1      15.806  -2.100  53.437  1.00  0.00     0.160 HD
BRANCH  21  23
HETATM   23  C13 UNL     1      17.407  -3.490  53.747  1.00  0.00     0.189 C 
BRANCH  23  24
HETATM   24  C14 UNL     1      16.475  -4.589  53.384  1.00  0.00     0.250 C 
HETATM   25  O3  UNL     1      16.051  -5.548  54.022  1.00  0.00    -0.305 OA
ENDBRANCH  23  24
ENDBRANCH  21  23
ENDBRANCH  19  21
ENDBRANCH  12  15
TORSDOF 4
ENDMDL
MODEL 4
REMARK VINA RESULT:      -7.1      2.177      2.373
REMARK  4 active torsions:
REMARK  status: ('A' for Active; 'I' for Inactive)
REMARK    1  A    between atoms: N3_12  and  C8_13 
REMARK    2  A    between atoms: C12_17  and  N4_18 
REMARK    3  A    between atoms: N4_18  and  C13_19 
REMARK    4  A    between atoms: C13_19  and  C14_20 
ROOT
HETATM    1  C1  UNL     1      22.855   7.899  50.430  1.00  0.00     0.000 C 
HETATM    2  O1  UNL     1      23.488   6.796  49.773  1.00  0.00     0.000 OA
HETATM    3  C2  UNL     1      23.293   5.476  50.231  1.00  0.00    -0.014 A 
HETATM    4  C3  UNL     1      23.128   5.640  48.950  1.00  0.00    -0.007 A 
HETATM    5  O2  UNL     1      23.297   6.913  48.380  1.00  0.00     0.000 OA
HETATM    6  C4  UNL     1      24.421   7.221  47.581  1.00  0.00     0.000 C 
HETATM    7  C5  UNL     1      22.761   4.658  47.866  1.00  0.00     0.259 C 
HETATM    8  N1  UNL     1      22.543   3.370  48.236  1.00  0.00    -0.437 NA
HETATM    9  C6  UNL     1      22.381   2.280  48.605  1.00  0.00     0.292 C 
HETATM   10  N2  UNL     1      22.988   2.491  49.899  1.00  0.00    -0.226 NA
HETATM   11  C7  UNL     1      22.084   2.551  50.855  1.00  0.00     0.216 C 
HETATM   12  N3  UNL     1      23.018   2.754  51.911  1.00  0.00    -0.317 N 
HETATM   13  C16 UNL     1      23.333   4.084  52.276  1.00  0.00     0.099 C 
HETATM   14  C17 UNL     1      23.462   5.229  51.648  1.00  0.00     0.030 C 
ENDROOT
BRANCH  12  15
HETATM   15  C8  UNL     1      23.594   1.625  52.545  1.00  0.00     0.041 A 
HETATM   16  C9  UNL     1      22.854   0.553  53.042  1.00  0.00     0.030 A 
HETATM   17  C10 UNL     1      23.448  -0.538  53.656  1.00  0.00     0.004 A 
HETATM   18  C11 UNL     1      24.834  -0.576  53.783  1.00  0.00     0.029 A 
HETATM   19  C12 UNL     1      25.590   0.468  53.300  1.00  0.00     0.030 A 
HETATM   20  C15 UNL     1      24.935   1.522  52.702  1.00  0.00     0.059 A 
BRANCH  19  21
HETATM   21  N4  UNL     1      27.001   0.474  53.405  1.00  0.00    -0.384 N 
HETATM   22  H14 UNL     1      27.582   0.679  52.561  1.00  0.00     0.160 HD
BRANCH  21  23
HETATM   23  C13 UNL     1      27.692   0.203  54.647  1.00  0.00     0.189 C 
BRANCH  23  24
HETATM   24  C14 UNL     1      29.022   0.863  54.580  1.00  0.00     0.250 C 
HETATM   25  O3  UNL     1      29.384   2.004  54.851  1.00  0.00    -0.305 OA
ENDBRANCH  23  24
ENDBRANCH  21  23
ENDBRANCH  19  21
ENDBRANCH  12  15
TORSDOF 4
ENDMDL
MODEL 5
REMARK VINA RESULT:      -7.1      3.164      4.077
REMARK  4 active torsions:
REMARK  status: ('A' for Active; 'I' for Inactive)
REMARK    1  A    between atoms: N3_12  and  C8_13 
REMARK    2  A    between atoms: C12_17  and  N4_18 
REMARK    3  A    between atoms: N4_18  and  C13_19 
REMARK    4  A    between atoms: C13_19  and  C14_20 
ROOT
HETATM    1  C1  UNL     1      22.831   5.958  47.571  1.00  0.00     0.000 C 
HETATM    2  O1  UNL     1      22.642   4.543  47.477  1.00  0.00     0.000 OA
HETATM    3  C2  UNL     1      22.629   3.739  48.636  1.00  0.00    -0.014 A 
HETATM    4  C3  UNL     1      21.639   3.532  47.816  1.00  0.00    -0.007 A 
HETATM    5  O2  UNL     1      21.548   4.275  46.626  1.00  0.00     0.000 OA
HETATM    6  C4  UNL     1      21.815   3.690  45.368  1.00  0.00     0.000 C 
HETATM    7  C5  UNL     1      20.474   2.578  47.893  1.00  0.00     0.259 C 
HETATM    8  N1  UNL     1      20.388   1.781  48.990  1.00  0.00    -0.437 NA
HETATM    9  C6  UNL     1      20.371   1.115  49.941  1.00  0.00     0.292 C 
HETATM   10  N2  UNL     1      21.735   1.402  50.324  1.00  0.00    -0.226 NA
HETATM   11  C7  UNL     1      21.786   2.221  51.354  1.00  0.00     0.216 C 
HETATM   12  N3  UNL     1      23.208   2.258  51.425  1.00  0.00    -0.317 N 
HETATM   13  C16 UNL     1      23.885   3.280  50.718  1.00  0.00     0.099 C 
HETATM   14  C17 UNL     1      23.706   3.922  49.588  1.00  0.00     0.030 C 
ENDROOT
BRANCH  12  15
HETATM   15  C8  UNL     1      23.884   1.274  52.189  1.00  0.00     0.041 A 
HETATM   16  C9  UNL     1      23.242   0.385  53.050  1.00  0.00     0.030 A 
HETATM   17  C10 UNL     1      23.933  -0.567  53.783  1.00  0.00     0.004 A 
HETATM   18  C11 UNL     1      25.316  -0.649  53.660  1.00  0.00     0.029 A 
HETATM   19  C12 UNL     1      25.976   0.215  52.816  1.00  0.00     0.030 A 
HETATM   20  C15 UNL     1      25.230   1.138  52.118  1.00  0.00     0.059 A 
BRANCH  19  21
HETATM   21  N4  UNL     1      27.381   0.169  52.657  1.00  0.00    -0.384 N 
HETATM   22  H14 UNL     1      27.843   0.781  51.946  1.00  0.00     0.160 HD
BRANCH  21  23
HETATM   23  C13 UNL     1      28.228  -0.701  53.445  1.00  0.00     0.189 C 
BRANCH  23  24
HETATM   24  C14 UNL     1      28.879   0.128  54.493  1.00  0.00     0.250 C 
HETATM   25  O3  UNL     1      28.656   1.267  54.893  1.00  0.00    -0.305 OA
ENDBRANCH  23  24
ENDBRANCH  21  23
ENDBRANCH  19  21
ENDBRANCH  12  15
TORSDOF 4
ENDMDL
MODEL 6
REMARK VINA RESULT:      -7.0      4.068      5.624
REMARK  4 active torsions:
REMARK  status: ('A' for Active; 'I' for Inactive)
REMARK    1  A    between atoms: N3_12  and  C8_13 
REMARK    2  A    between atoms: C12_17  and  N4_18 
REMARK    3  A    between atoms: N4_18  and  C13_19 
REMARK    4  A    between atoms: C13_19  and  C14_20 
ROOT
HETATM    1  C1  UNL     1      17.401   0.726  50.015  1.00  0.00     0.000 C 
HETATM    2  O1  UNL     1      17.957   1.516  51.071  1.00  0.00     0.000 OA
HETATM    3  C2  UNL     1      19.343   1.494  51.335  1.00  0.00    -0.014 A 
HETATM    4  C3  UNL     1      18.822   2.684  51.246  1.00  0.00    -0.007 A 
HETATM    5  O2  UNL     1      17.448   2.829  50.987  1.00  0.00     0.000 OA
HETATM    6  C4  UNL     1      16.549   3.257  51.989  1.00  0.00     0.000 C 
HETATM    7  C5  UNL     1      19.447   4.050  51.375  1.00  0.00     0.259 C 
HETATM    8  N1  UNL     1      20.784   4.106  51.615  1.00  0.00    -0.437 NA
HETATM    9  C6  UNL     1      21.924   4.096  51.832  1.00  0.00     0.292 C 
HETATM   10  N2  UNL     1      21.976   2.697  52.189  1.00  0.00    -0.226 NA
HETATM   11  C7  UNL     1      22.531   1.975  51.239  1.00  0.00     0.216 C 
HETATM   12  N3  UNL     1      22.405   0.733  51.924  1.00  0.00    -0.317 N 
HETATM   13  C16 UNL     1      21.247  -0.045  51.688  1.00  0.00     0.099 C 
HETATM   14  C17 UNL     1      19.981   0.198  51.444  1.00  0.00     0.030 C 
ENDROOT
BRANCH  12  15
HETATM   15  C8  UNL     1      23.434   0.331  52.812  1.00  0.00     0.041 A 
HETATM   16  C9  UNL     1      23.216  -0.449  53.947  1.00  0.00     0.030 A 
HETATM   17  C10 UNL     1      24.245  -0.827  54.796  1.00  0.00     0.004 A 
HETATM   18  C11 UNL     1      25.545  -0.421  54.513  1.00  0.00     0.029 A 
HETATM   19  C12 UNL     1      25.789   0.348  53.397  1.00  0.00     0.030 A 
HETATM   20  C15 UNL     1      24.722   0.689  52.597  1.00  0.00     0.059 A 
BRANCH  19  21
HETATM   21  N4  UNL     1      27.094   0.784  53.067  1.00  0.00    -0.384 N 
HETATM   22  H14 UNL     1      27.244   1.372  52.216  1.00  0.00     0.160 HD
BRANCH  21  23
HETATM   23  C13 UNL     1      28.255   0.447  53.864  1.00  0.00     0.189 C 
BRANCH  23  24
HETATM   24  C14 UNL     1      29.044   1.689  54.064  1.00  0.00     0.250 C 
HETATM   25  O3  UNL     1      29.440   2.255  55.079  1.00  0.00    -0.305 OA
ENDBRANCH  23  24
ENDBRANCH  21  23
ENDBRANCH  19  21
ENDBRANCH  12  15
TORSDOF 4
ENDMDL
MODEL 7
REMARK VINA RESULT:      -6.9      1.863      2.878
REMARK  4 active torsions:
REMARK  status: ('A' for Active; 'I' for Inactive)
REMARK    1  A    between atoms: N3_12  and  C8_13 
REMARK    2  A    between atoms: C12_17  and  N4_18 
REMARK    3  A    between atoms: N4_18  and  C13_19 
REMARK    4  A    between atoms: C13_19  and  C14_20 
ROOT
HETATM    1  C1  UNL     1      26.007   6.773  48.265  1.00  0.00     0.000 C 
HETATM    2  O1  UNL     1      24.768   6.066  48.376  1.00  0.00     0.000 OA
HETATM    3  C2  UNL     1      24.486   5.281  49.514  1.00  0.00    -0.014 A 
HETATM    4  C3  UNL     1      23.537   6.102  49.167  1.00  0.00    -0.007 A 
HETATM    5  O2  UNL     1      23.705   6.934  48.047  1.00  0.00     0.000 OA
HETATM    6  C4  UNL     1      23.008   6.700  46.841  1.00  0.00     0.000 C 
HETATM    7  C5  UNL     1      22.182   6.362  49.775  1.00  0.00     0.259 C 
HETATM    8  N1  UNL     1      21.847   5.652  50.884  1.00  0.00    -0.437 NA
HETATM    9  C6  UNL     1      21.607   5.009  51.821  1.00  0.00     0.292 C 
HETATM   10  N2  UNL     1      22.688   4.072  51.616  1.00  0.00    -0.226 NA
HETATM   11  C7  UNL     1      23.672   4.273  52.468  1.00  0.00     0.216 C 
HETATM   12  N3  UNL     1      24.493   3.219  51.975  1.00  0.00    -0.317 N 
HETATM   13  C16 UNL     1      25.443   3.527  50.973  1.00  0.00     0.099 C 
HETATM   14  C17 UNL     1      25.504   4.348  49.951  1.00  0.00     0.030 C 
ENDROOT
BRANCH  12  15
HETATM   15  C8  UNL     1      24.323   1.913  52.498  1.00  0.00     0.041 A 
HETATM   16  C9  UNL     1      23.117   1.216  52.463  1.00  0.00     0.030 A 
HETATM   17  C10 UNL     1      22.983  -0.063  52.982  1.00  0.00     0.004 A 
HETATM   18  C11 UNL     1      24.088  -0.682  53.558  1.00  0.00     0.029 A 
HETATM   19  C12 UNL     1      25.293  -0.017  53.605  1.00  0.00     0.030 A 
HETATM   20  C15 UNL     1      25.356   1.251  53.071  1.00  0.00     0.059 A 
BRANCH  19  21
HETATM   21  N4  UNL     1      26.444  -0.606  54.178  1.00  0.00    -0.384 N 
HETATM   22  H14 UNL     1      26.395  -1.009  55.141  1.00  0.00     0.160 HD
BRANCH  21  23
HETATM   23  C13 UNL     1      27.713  -0.678  53.484  1.00  0.00     0.189 C 
BRANCH  23  24
HETATM   24  C14 UNL     1      28.744  -0.059  54.357  1.00  0.00     0.250 C 
HETATM   25  O3  UNL     1      28.690   0.872  55.155  1.00  0.00    -0.305 OA
ENDBRANCH  23  24
ENDBRANCH  21  23
ENDBRANCH  19  21
ENDBRANCH  12  15
TORSDOF 4
ENDMDL
MODEL 8
REMARK VINA RESULT:      -6.9      4.489      6.593
REMARK  4 active torsions:
REMARK  status: ('A' for Active; 'I' for Inactive)
REMARK    1  A    between atoms: N3_12  and  C8_13 
REMARK    2  A    between atoms: C12_17  and  N4_18 
REMARK    3  A    between atoms: N4_18  and  C13_19 
REMARK    4  A    between atoms: C13_19  and  C14_20 
ROOT
HETATM    1  C1  UNL     1      17.359   2.648  51.572  1.00  0.00     0.000 C 
HETATM    2  O1  UNL     1      18.058   1.408  51.418  1.00  0.00     0.000 OA
HETATM    3  C2  UNL     1      19.365   1.250  51.922  1.00  0.00    -0.014 A 
HETATM    4  C3  UNL     1      18.539   0.296  52.240  1.00  0.00    -0.007 A 
HETATM    5  O2  UNL     1      17.207   0.346  51.793  1.00  0.00     0.000 OA
HETATM    6  C4  UNL     1      16.736  -0.515  50.777  1.00  0.00     0.000 C 
HETATM    7  C5  UNL     1      18.738  -0.954  53.059  1.00  0.00     0.259 C 
HETATM    8  N1  UNL     1      19.970  -1.165  53.589  1.00  0.00    -0.437 NA
HETATM    9  C6  UNL     1      21.045  -1.302  54.007  1.00  0.00     0.292 C 
HETATM   10  N2  UNL     1      21.643  -0.297  53.159  1.00  0.00    -0.226 NA
HETATM   11  C7  UNL     1      21.925   0.799  53.832  1.00  0.00     0.216 C 
HETATM   12  N3  UNL     1      22.465   1.505  52.720  1.00  0.00    -0.317 N 
HETATM   13  C16 UNL     1      21.594   2.324  51.963  1.00  0.00     0.099 C 
HETATM   14  C17 UNL     1      20.333   2.280  51.603  1.00  0.00     0.030 C 
ENDROOT
BRANCH  12  15
HETATM   15  C8  UNL     1      23.840   1.355  52.412  1.00  0.00     0.041 A 
HETATM   16  C9  UNL     1      24.494   2.077  51.414  1.00  0.00     0.030 A 
HETATM   17  C10 UNL     1      25.842   1.908  51.139  1.00  0.00     0.004 A 
HETATM   18  C11 UNL     1      26.579   0.991  51.881  1.00  0.00     0.029 A 
HETATM   19  C12 UNL     1      25.959   0.265  52.874  1.00  0.00     0.030 A 
HETATM   20  C15 UNL     1      24.617   0.481  53.095  1.00  0.00     0.059 A 
BRANCH  19  21
HETATM   21  N4  UNL     1      26.666  -0.678  53.656  1.00  0.00    -0.384 N 
HETATM   22  H14 UNL     1      26.152  -1.266  54.350  1.00  0.00     0.160 HD
BRANCH  21  23
HETATM   23  C13 UNL     1      28.096  -0.872  53.541  1.00  0.00     0.189 C 
BRANCH  23  24
HETATM   24  C14 UNL     1      28.750  -0.072  54.609  1.00  0.00     0.250 C 
HETATM   25  O3  UNL     1      28.512   1.046  55.057  1.00  0.00    -0.305 OA
ENDBRANCH  23  24
ENDBRANCH  21  23
ENDBRANCH  19  21
ENDBRANCH  12  15
TORSDOF 4
ENDMDL
MODEL 9
REMARK VINA RESULT:      -6.8      4.921      8.543
REMARK  4 active torsions:
REMARK  status: ('A' for Active; 'I' for Inactive)
REMARK    1  A    between atoms: N3_12  and  C8_13 
REMARK    2  A    between atoms: C12_17  and  N4_18 
REMARK    3  A    between atoms: N4_18  and  C13_19 
REMARK    4  A    between atoms: C13_19  and  C14_20 
ROOT
HETATM    1  C1  UNL     1      25.471  -0.850  55.725  1.00  0.00     0.000 C 
HETATM    2  O1  UNL     1      25.054  -0.944  54.359  1.00  0.00     0.000 OA
HETATM    3  C2  UNL     1      23.761  -0.535  53.970  1.00  0.00    -0.014 A 
HETATM    4  C3  UNL     1      24.727  -0.063  53.236  1.00  0.00    -0.007 A 
HETATM    5  O2  UNL     1      26.059  -0.404  53.528  1.00  0.00     0.000 OA
HETATM    6  C4  UNL     1      26.791  -1.293  52.710  1.00  0.00     0.000 C 
HETATM    7  C5  UNL     1      24.703   0.851  52.037  1.00  0.00     0.259 C 
HETATM    8  N1  UNL     1      23.492   1.297  51.615  1.00  0.00    -0.437 NA
HETATM    9  C6  UNL     1      22.430   1.638  51.288  1.00  0.00     0.292 C 
HETATM   10  N2  UNL     1      21.729   0.654  52.081  1.00  0.00    -0.226 NA
HETATM   11  C7  UNL     1      21.169   1.196  53.142  1.00  0.00     0.216 C 
HETATM   12  N3  UNL     1      20.611  -0.018  53.634  1.00  0.00    -0.317 N 
HETATM   13  C16 UNL     1      21.370  -0.774  54.557  1.00  0.00     0.099 C 
HETATM   14  C17 UNL     1      22.643  -1.026  54.749  1.00  0.00     0.030 C 
ENDROOT
BRANCH  12  15
HETATM   15  C8  UNL     1      19.330  -0.420  53.179  1.00  0.00     0.041 A 
HETATM   16  C9  UNL     1      18.724  -1.623  53.536  1.00  0.00     0.030 A 
HETATM   17  C10 UNL     1      17.468  -1.987  53.075  1.00  0.00     0.004 A 
HETATM   18  C11 UNL     1      16.779  -1.126  52.226  1.00  0.00     0.029 A 
HETATM   19  C12 UNL     1      17.354   0.070  51.858  1.00  0.00     0.030 A 
HETATM   20  C15 UNL     1      18.604   0.369  52.352  1.00  0.00     0.059 A 
BRANCH  19  21
HETATM   21  N4  UNL     1      16.691   0.978  50.999  1.00  0.00    -0.384 N 
HETATM   22  H14 UNL     1      16.889   0.959  49.973  1.00  0.00     0.160 HD
BRANCH  21  23
HETATM   23  C13 UNL     1      15.735   1.952  51.481  1.00  0.00     0.189 C 
BRANCH  23  24
HETATM   24  C14 UNL     1      16.459   3.231  51.696  1.00  0.00     0.250 C 
HETATM   25  O3  UNL     1      16.281   4.151  52.489  1.00  0.00    -0.305 OA
ENDBRANCH  23  24
ENDBRANCH  21  23
ENDBRANCH  19  21
ENDBRANCH  12  15
TORSDOF 4
ENDMDL
