MODEL 1
REMARK VINA RESULT:      -7.6      0.000      0.000
REMARK  4 active torsions:
REMARK  status: ('A' for Active; 'I' for Inactive)
REMARK    1  A    between atoms: C2_2  and  C3_3 
REMARK    2  A    between atoms: C6_6  and  N1_7 
REMARK    3  A    between atoms: N1_7  and  C7_8 
REMARK    4  A    between atoms: C15_19  and  O1_20 
ROOT
HETATM    1  C3  UNL     1      24.088   0.196  53.072  1.00  0.00    -0.045 A 
HETATM    2  C4  UNL     1      24.616   0.840  52.044  1.00  0.00     0.023 A 
HETATM    3  C5  UNL     1      25.935   1.422  52.370  1.00  0.00     0.038 A 
HETATM    4  C6  UNL     1      26.826   2.160  51.620  1.00  0.00     0.141 A 
HETATM    5  N2  UNL     1      27.937   2.521  52.256  1.00  0.00    -0.224 NA
HETATM    6  C13 UNL     1      28.147   2.181  53.524  1.00  0.00     0.235 A 
HETATM    7  N3  UNL     1      27.272   1.457  54.259  1.00  0.00    -0.242 NA
HETATM    8  C14 UNL     1      26.132   1.060  53.680  1.00  0.00     0.083 A 
HETATM    9  C15 UNL     1      25.008   0.275  54.219  1.00  0.00     0.202 A 
ENDROOT
BRANCH   4  10
HETATM   10  N1  UNL     1      26.489   2.458  50.278  1.00  0.00    -0.340 N 
HETATM   11  H7  UNL     1      26.396   1.651  49.601  1.00  0.00     0.167 HD
BRANCH  10  12
HETATM   12  C7  UNL     1      26.253   3.731  49.707  1.00  0.00     0.035 A 
HETATM   13  C8  UNL     1      25.036   4.364  49.613  1.00  0.00     0.029 A 
HETATM   14  C9  UNL     1      24.791   5.601  49.060  1.00  0.00     0.004 A 
HETATM   15  C10 UNL     1      25.871   6.287  48.543  1.00  0.00     0.019 A 
HETATM   16  C11 UNL     1      27.120   5.710  48.603  1.00  0.00     0.013 A 
HETATM   17 BR1  UNL     1      28.624   6.641  47.893  1.00  0.00    -0.051 Br
HETATM   18  C12 UNL     1      27.287   4.469  49.172  1.00  0.00     0.048 A 
ENDBRANCH  10  12
ENDBRANCH   4  10
BRANCH   1  19
HETATM   19  C2  UNL     1      22.763  -0.512  53.094  1.00  0.00     0.033 C 
HETATM   20  C1  UNL     1      21.755   0.410  53.718  1.00  0.00     0.010 C 
ENDBRANCH   1  19
BRANCH   9  21
HETATM   21  O1  UNL     1      25.380  -0.957  54.714  1.00  0.00    -0.380 OA
HETATM   22  C16 UNL     1      24.844  -1.254  55.951  1.00  0.00     0.202 C 
ENDBRANCH   9  21
TORSDOF 4
ENDMDL
MODEL 2
REMARK VINA RESULT:      -7.5      1.270      1.600
REMARK  4 active torsions:
REMARK  status: ('A' for Active; 'I' for Inactive)
REMARK    1  A    between atoms: C2_2  and  C3_3 
REMARK    2  A    between atoms: C6_6  and  N1_7 
REMARK    3  A    between atoms: N1_7  and  C7_8 
REMARK    4  A    between atoms: C15_19  and  O1_20 
ROOT
HETATM    1  C3  UNL     1      24.026   0.331  53.060  1.00  0.00    -0.045 A 
HETATM    2  C4  UNL     1      24.578   1.007  52.065  1.00  0.00     0.023 A 
HETATM    3  C5  UNL     1      25.934   1.485  52.404  1.00  0.00     0.038 A 
HETATM    4  C6  UNL     1      26.859   2.214  51.687  1.00  0.00     0.141 A 
HETATM    5  N2  UNL     1      27.999   2.465  52.324  1.00  0.00    -0.224 NA
HETATM    6  C13 UNL     1      28.206   2.033  53.564  1.00  0.00     0.235 A 
HETATM    7  N3  UNL     1      27.298   1.317  54.267  1.00  0.00    -0.242 NA
HETATM    8  C14 UNL     1      26.128   1.028  53.685  1.00  0.00     0.083 A 
HETATM    9  C15 UNL     1      24.965   0.279  54.193  1.00  0.00     0.202 A 
ENDROOT
BRANCH   4  10
HETATM   10  N1  UNL     1      26.521   2.619  50.372  1.00  0.00    -0.340 N 
HETATM   11  H7  UNL     1      26.272   1.866  49.672  1.00  0.00     0.167 HD
BRANCH  10  12
HETATM   12  C7  UNL     1      26.473   3.935  49.857  1.00  0.00     0.035 A 
HETATM   13  C8  UNL     1      27.341   4.479  48.939  1.00  0.00     0.029 A 
HETATM   14  C9  UNL     1      27.306   5.758  48.429  1.00  0.00     0.004 A 
HETATM   15  C10 UNL     1      26.301   6.590  48.876  1.00  0.00     0.019 A 
HETATM   16  C11 UNL     1      25.396   6.109  49.797  1.00  0.00     0.013 A 
HETATM   17 BR1  UNL     1      24.000   7.243  50.428  1.00  0.00    -0.051 Br
HETATM   18  C12 UNL     1      25.494   4.818  50.261  1.00  0.00     0.048 A 
ENDBRANCH  10  12
ENDBRANCH   4  10
BRANCH   1  19
HETATM   19  C2  UNL     1      22.660  -0.296  53.060  1.00  0.00     0.033 C 
HETATM   20  C1  UNL     1      21.877   0.298  51.923  1.00  0.00     0.010 C 
ENDBRANCH   1  19
BRANCH   9  21
HETATM   21  O1  UNL     1      25.268  -1.003  54.601  1.00  0.00    -0.380 OA
HETATM   22  C16 UNL     1      24.870  -1.292  55.891  1.00  0.00     0.202 C 
ENDBRANCH   9  21
TORSDOF 4
ENDMDL
MODEL 3
REMARK VINA RESULT:      -7.3      4.042      6.965
REMARK  4 active torsions:
REMARK  status: ('A' for Active; 'I' for Inactive)
REMARK    1  A    between atoms: C2_2  and  C3_3 
REMARK    2  A    between atoms: C6_6  and  N1_7 
REMARK    3  A    between atoms: N1_7  and  C7_8 
REMARK    4  A    between atoms: C15_19  and  O1_20 
ROOT
HETATM    1  C3  UNL     1      25.875   0.680  52.500  1.00  0.00    -0.045 A 
HETATM    2  C4  UNL     1      24.554   0.730  52.447  1.00  0.00     0.023 A 
HETATM    3  C5  UNL     1      23.925  -0.028  53.548  1.00  0.00     0.038 A 
HETATM    4  C6  UNL     1      22.603  -0.245  53.879  1.00  0.00     0.141 A 
HETATM    5  N2  UNL     1      22.407  -0.993  54.961  1.00  0.00    -0.224 NA
HETATM    6  C13 UNL     1      23.429  -1.484  55.655  1.00  0.00     0.235 A 
HETATM    7  N3  UNL     1      24.724  -1.270  55.330  1.00  0.00    -0.242 NA
HETATM    8  C14 UNL     1      24.994  -0.525  54.251  1.00  0.00     0.083 A 
HETATM    9  C15 UNL     1      26.285  -0.128  53.660  1.00  0.00     0.202 A 
ENDROOT
BRANCH   4  10
HETATM   10  N1  UNL     1      21.603   0.332  53.060  1.00  0.00    -0.340 N 
HETATM   11  H7  UNL     1      21.844   1.218  52.535  1.00  0.00     0.167 HD
BRANCH  10  12
HETATM   12  C7  UNL     1      20.284  -0.134  52.845  1.00  0.00     0.035 A 
HETATM   13  C8  UNL     1      19.591  -1.003  53.653  1.00  0.00     0.029 A 
HETATM   14  C9  UNL     1      18.308  -1.465  53.457  1.00  0.00     0.004 A 
HETATM   15  C10 UNL     1      17.639  -1.016  52.337  1.00  0.00     0.019 A 
HETATM   16  C11 UNL     1      18.276  -0.143  51.484  1.00  0.00     0.013 A 
HETATM   17 BR1  UNL     1      17.368   0.488  49.931  1.00  0.00    -0.051 Br
HETATM   18  C12 UNL     1      19.559   0.276  51.746  1.00  0.00     0.048 A 
ENDBRANCH  10  12
ENDBRANCH   4  10
BRANCH   1  19
HETATM   19  C2  UNL     1      26.830   1.335  51.543  1.00  0.00     0.033 C 
HETATM   20  C1  UNL     1      26.256   2.668  51.154  1.00  0.00     0.010 C 
ENDBRANCH   1  19
BRANCH   9  21
HETATM   21  O1  UNL     1      27.112   0.543  54.537  1.00  0.00    -0.380 OA
HETATM   22  C16 UNL     1      28.373  -0.005  54.653  1.00  0.00     0.202 C 
ENDBRANCH   9  21
TORSDOF 4
ENDMDL
MODEL 4
REMARK VINA RESULT:      -7.3      3.422      5.454
REMARK  4 active torsions:
REMARK  status: ('A' for Active; 'I' for Inactive)
REMARK    1  A    between atoms: C2_2  and  C3_3 
REMARK    2  A    between atoms: C6_6  and  N1_7 
REMARK    3  A    between atoms: N1_7  and  C7_8 
REMARK    4  A    between atoms: C15_19  and  O1_20 
ROOT
HETATM    1  C3  UNL     1      22.127   0.275  53.024  1.00  0.00    -0.045 A 
HETATM    2  C4  UNL     1      23.285   0.871  53.260  1.00  0.00     0.023 A 
HETATM    3  C5  UNL     1      23.724   1.703  52.120  1.00  0.00     0.038 A 
HETATM    4  C6  UNL     1      24.843   2.485  51.929  1.00  0.00     0.141 A 
HETATM    5  N2  UNL     1      24.907   3.104  50.754  1.00  0.00    -0.224 NA
HETATM    6  C13 UNL     1      23.946   2.962  49.847  1.00  0.00     0.235 A 
HETATM    7  N3  UNL     1      22.848   2.194  50.035  1.00  0.00    -0.242 NA
HETATM    8  C14 UNL     1      22.720   1.542  51.197  1.00  0.00     0.083 A 
HETATM    9  C15 UNL     1      21.654   0.647  51.680  1.00  0.00     0.202 A 
ENDROOT
BRANCH   4  10
HETATM   10  N1  UNL     1      25.798   2.557  52.973  1.00  0.00    -0.340 N 
HETATM   11  H7  UNL     1      25.680   3.317  53.699  1.00  0.00     0.167 HD
BRANCH  10  12
HETATM   12  C7  UNL     1      26.922   1.722  53.178  1.00  0.00     0.035 A 
HETATM   13  C8  UNL     1      28.162   2.126  53.612  1.00  0.00     0.029 A 
HETATM   14  C9  UNL     1      29.264   1.325  53.816  1.00  0.00     0.004 A 
HETATM   15  C10 UNL     1      29.122  -0.023  53.561  1.00  0.00     0.019 A 
HETATM   16  C11 UNL     1      27.905  -0.495  53.122  1.00  0.00     0.013 A 
HETATM   17 BR1  UNL     1      27.689  -2.355  52.764  1.00  0.00    -0.051 Br
HETATM   18  C12 UNL     1      26.848   0.366  52.942  1.00  0.00     0.048 A 
ENDBRANCH  10  12
ENDBRANCH   4  10
BRANCH   1  19
HETATM   19  C2  UNL     1      21.390  -0.640  53.960  1.00  0.00     0.033 C 
HETATM   20  C1  UNL     1      22.378  -1.179  54.955  1.00  0.00     0.010 C 
ENDBRANCH   1  19
BRANCH   9  21
HETATM   21  O1  UNL     1      20.402   1.226  51.676  1.00  0.00    -0.380 OA
HETATM   22  C16 UNL     1      19.461   0.528  50.947  1.00  0.00     0.202 C 
ENDBRANCH   9  21
TORSDOF 4
ENDMDL
MODEL 5
REMARK VINA RESULT:      -7.1      2.545      3.689
REMARK  4 active torsions:
REMARK  status: ('A' for Active; 'I' for Inactive)
REMARK    1  A    between atoms: C2_2  and  C3_3 
REMARK    2  A    between atoms: C6_6  and  N1_7 
REMARK    3  A    between atoms: N1_7  and  C7_8 
REMARK    4  A    between atoms: C15_19  and  O1_20 
ROOT
HETATM    1  C3  UNL     1      24.237   0.356  53.378  1.00  0.00    -0.045 A 
HETATM    2  C4  UNL     1      24.491   1.601  53.009  1.00  0.00     0.023 A 
HETATM    3  C5  UNL     1      23.267   2.315  52.588  1.00  0.00     0.038 A 
HETATM    4  C6  UNL     1      23.062   3.601  52.134  1.00  0.00     0.141 A 
HETATM    5  N2  UNL     1      21.801   3.903  51.842  1.00  0.00    -0.224 NA
HETATM    6  C13 UNL     1      20.826   3.011  51.987  1.00  0.00     0.235 A 
HETATM    7  N3  UNL     1      21.028   1.750  52.432  1.00  0.00    -0.242 NA
HETATM    8  C14 UNL     1      22.275   1.378  52.744  1.00  0.00     0.083 A 
HETATM    9  C15 UNL     1      22.794   0.093  53.245  1.00  0.00     0.202 A 
ENDROOT
BRANCH   4  10
HETATM   10  N1  UNL     1      24.183   4.460  52.023  1.00  0.00    -0.340 N 
HETATM   11  H7  UNL     1      24.404   5.092  52.842  1.00  0.00     0.167 HD
BRANCH  10  12
HETATM   12  C7  UNL     1      25.070   4.588  50.929  1.00  0.00     0.035 A 
HETATM   13  C8  UNL     1      25.916   3.614  50.453  1.00  0.00     0.029 A 
HETATM   14  C9  UNL     1      26.784   3.724  49.390  1.00  0.00     0.004 A 
HETATM   15  C10 UNL     1      26.820   4.932  48.726  1.00  0.00     0.019 A 
HETATM   16  C11 UNL     1      25.999   5.953  49.151  1.00  0.00     0.013 A 
HETATM   17 BR1  UNL     1      26.034   7.630  48.246  1.00  0.00    -0.051 Br
HETATM   18  C12 UNL     1      25.156   5.768  50.221  1.00  0.00     0.048 A 
ENDBRANCH  10  12
ENDBRANCH   4  10
BRANCH   1  19
HETATM   19  C2  UNL     1      25.242  -0.651  53.862  1.00  0.00     0.033 C 
HETATM   20  C1  UNL     1      26.337  -0.742  52.839  1.00  0.00     0.010 C 
ENDBRANCH   1  19
BRANCH   9  21
HETATM   21  O1  UNL     1      22.198  -0.326  54.416  1.00  0.00    -0.380 OA
HETATM   22  C16 UNL     1      21.559  -1.546  54.318  1.00  0.00     0.202 C 
ENDBRANCH   9  21
TORSDOF 4
ENDMDL
MODEL 6
REMARK VINA RESULT:      -7.1      3.566      5.370
REMARK  4 active torsions:
REMARK  status: ('A' for Active; 'I' for Inactive)
REMARK    1  A    between atoms: C2_2  and  C3_3 
REMARK    2  A    between atoms: C6_6  and  N1_7 
REMARK    3  A    between atoms: N1_7  and  C7_8 
REMARK    4  A    between atoms: C15_19  and  O1_20 
ROOT
HETATM    1  C3  UNL     1      25.948   0.364  52.610  1.00  0.00    -0.045 A 
HETATM    2  C4  UNL     1      24.646   0.161  52.496  1.00  0.00     0.023 A 
HETATM    3  C5  UNL     1      24.079  -0.491  53.695  1.00  0.00     0.038 A 
HETATM    4  C6  UNL     1      22.794  -0.883  54.009  1.00  0.00     0.141 A 
HETATM    5  N2  UNL     1      22.652  -1.449  55.203  1.00  0.00    -0.224 NA
HETATM    6  C13 UNL     1      23.690  -1.614  56.017  1.00  0.00     0.235 A 
HETATM    7  N3  UNL     1      24.949  -1.228  55.709  1.00  0.00    -0.242 NA
HETATM    8  C14 UNL     1      25.165  -0.651  54.521  1.00  0.00     0.083 A 
HETATM    9  C15 UNL     1      26.406  -0.136  53.917  1.00  0.00     0.202 A 
ENDROOT
BRANCH   4  10
HETATM   10  N1  UNL     1      21.771  -0.654  53.057  1.00  0.00    -0.340 N 
HETATM   11  H7  UNL     1      21.163  -1.473  52.777  1.00  0.00     0.167 HD
BRANCH  10  12
HETATM   12  C7  UNL     1      21.446   0.562  52.411  1.00  0.00     0.035 A 
HETATM   13  C8  UNL     1      21.040   1.723  53.026  1.00  0.00     0.029 A 
HETATM   14  C9  UNL     1      20.720   2.913  52.411  1.00  0.00     0.004 A 
HETATM   15  C10 UNL     1      20.811   2.959  51.036  1.00  0.00     0.019 A 
HETATM   16  C11 UNL     1      21.212   1.830  50.356  1.00  0.00     0.013 A 
HETATM   17 BR1  UNL     1      21.344   1.873  48.455  1.00  0.00    -0.051 Br
HETATM   18  C12 UNL     1      21.516   0.676  51.039  1.00  0.00     0.048 A 
ENDBRANCH  10  12
ENDBRANCH   4  10
BRANCH   1  19
HETATM   19  C2  UNL     1      26.843   1.001  51.585  1.00  0.00     0.033 C 
HETATM   20  C1  UNL     1      26.224   2.308  51.177  1.00  0.00     0.010 C 
ENDBRANCH   1  19
BRANCH   9  21
HETATM   21  O1  UNL     1      27.040   0.820  54.683  1.00  0.00    -0.380 OA
HETATM   22  C16 UNL     1      28.374   0.560  54.919  1.00  0.00     0.202 C 
ENDBRANCH   9  21
TORSDOF 4
ENDMDL
MODEL 7
REMARK VINA RESULT:      -7.0      5.940      8.499
REMARK  4 active torsions:
REMARK  status: ('A' for Active; 'I' for Inactive)
REMARK    1  A    between atoms: C2_2  and  C3_3 
REMARK    2  A    between atoms: C6_6  and  N1_7 
REMARK    3  A    between atoms: N1_7  and  C7_8 
REMARK    4  A    between atoms: C15_19  and  O1_20 
ROOT
HETATM    1  C3  UNL     1      32.367   4.700  48.034  1.00  0.00    -0.045 A 
HETATM    2  C4  UNL     1      31.155   5.142  47.741  1.00  0.00     0.023 A 
HETATM    3  C5  UNL     1      30.920   6.504  48.263  1.00  0.00     0.038 A 
HETATM    4  C6  UNL     1      29.824   7.339  48.196  1.00  0.00     0.141 A 
HETATM    5  N2  UNL     1      29.975   8.518  48.791  1.00  0.00    -0.224 NA
HETATM    6  C13 UNL     1      31.110   8.843  49.401  1.00  0.00     0.235 A 
HETATM    7  N3  UNL     1      32.184   8.024  49.466  1.00  0.00    -0.242 NA
HETATM    8  C14 UNL     1      32.102   6.820  48.887  1.00  0.00     0.083 A 
HETATM    9  C15 UNL     1      33.090   5.731  48.796  1.00  0.00     0.202 A 
ENDROOT
BRANCH   4  10
HETATM   10  N1  UNL     1      28.670   6.878  47.517  1.00  0.00    -0.340 N 
HETATM   11  H7  UNL     1      28.683   6.884  46.459  1.00  0.00     0.167 HD
BRANCH  10  12
HETATM   12  C7  UNL     1      27.466   6.397  48.084  1.00  0.00     0.035 A 
HETATM   13  C8  UNL     1      26.248   7.034  48.059  1.00  0.00     0.029 A 
HETATM   14  C9  UNL     1      25.068   6.579  48.606  1.00  0.00     0.004 A 
HETATM   15  C10 UNL     1      25.099   5.359  49.248  1.00  0.00     0.019 A 
HETATM   16  C11 UNL     1      26.289   4.667  49.311  1.00  0.00     0.013 A 
HETATM   17 BR1  UNL     1      26.352   2.979  50.195  1.00  0.00    -0.051 Br
HETATM   18  C12 UNL     1      27.427   5.185  48.740  1.00  0.00     0.048 A 
ENDBRANCH  10  12
ENDBRANCH   4  10
BRANCH   1  19
HETATM   19  C2  UNL     1      32.942   3.362  47.661  1.00  0.00     0.033 C 
HETATM   20  C1  UNL     1      32.130   2.810  46.523  1.00  0.00     0.010 C 
ENDBRANCH   1  19
BRANCH   9  21
HETATM   21  O1  UNL     1      34.282   6.113  48.216  1.00  0.00    -0.380 OA
HETATM   22  C16 UNL     1      35.396   5.834  48.981  1.00  0.00     0.202 C 
ENDBRANCH   9  21
TORSDOF 4
ENDMDL
MODEL 8
REMARK VINA RESULT:      -6.9      3.571      7.332
REMARK  4 active torsions:
REMARK  status: ('A' for Active; 'I' for Inactive)
REMARK    1  A    between atoms: C2_2  and  C3_3 
REMARK    2  A    between atoms: C6_6  and  N1_7 
REMARK    3  A    between atoms: N1_7  and  C7_8 
REMARK    4  A    between atoms: C15_19  and  O1_20 
ROOT
HETATM    1  C3  UNL     1      27.079   6.039  48.762  1.00  0.00    -0.045 A 
HETATM    2  C4  UNL     1      26.721   4.841  49.195  1.00  0.00     0.023 A 
HETATM    3  C5  UNL     1      25.555   4.905  50.101  1.00  0.00     0.038 A 
HETATM    4  C6  UNL     1      24.857   3.924  50.774  1.00  0.00     0.141 A 
HETATM    5  N2  UNL     1      23.842   4.358  51.514  1.00  0.00    -0.224 NA
HETATM    6  C13 UNL     1      23.543   5.651  51.584  1.00  0.00     0.235 A 
HETATM    7  N3  UNL     1      24.228   6.613  50.924  1.00  0.00    -0.242 NA
HETATM    8  C14 UNL     1      25.263   6.246  50.159  1.00  0.00     0.083 A 
HETATM    9  C15 UNL     1      26.181   7.054  49.337  1.00  0.00     0.202 A 
ENDROOT
BRANCH   4  10
HETATM   10  N1  UNL     1      25.273   2.579  50.619  1.00  0.00    -0.340 N 
HETATM   11  H7  UNL     1      25.515   2.245  49.645  1.00  0.00     0.167 HD
BRANCH  10  12
HETATM   12  C7  UNL     1      25.411   1.594  51.625  1.00  0.00     0.035 A 
HETATM   13  C8  UNL     1      24.384   0.964  52.289  1.00  0.00     0.029 A 
HETATM   14  C9  UNL     1      24.503   0.004  53.269  1.00  0.00     0.004 A 
HETATM   15  C10 UNL     1      25.779  -0.373  53.633  1.00  0.00     0.019 A 
HETATM   16  C11 UNL     1      26.854   0.219  53.008  1.00  0.00     0.013 A 
HETATM   17 BR1  UNL     1      28.625  -0.290  53.496  1.00  0.00    -0.051 Br
HETATM   18  C12 UNL     1      26.657   1.170  52.035  1.00  0.00     0.048 A 
ENDBRANCH  10  12
ENDBRANCH   4  10
BRANCH   1  19
HETATM   19  C2  UNL     1      28.218   6.345  47.831  1.00  0.00     0.033 C 
HETATM   20  C1  UNL     1      29.337   5.391  48.138  1.00  0.00     0.010 C 
ENDBRANCH   1  19
BRANCH   9  21
HETATM   21  O1  UNL     1      25.541   7.826  48.391  1.00  0.00    -0.380 OA
HETATM   22  C16 UNL     1      25.784   9.179  48.509  1.00  0.00     0.202 C 
ENDBRANCH   9  21
TORSDOF 4
ENDMDL
MODEL 9
REMARK VINA RESULT:      -6.8      4.018      7.483
REMARK  4 active torsions:
REMARK  status: ('A' for Active; 'I' for Inactive)
REMARK    1  A    between atoms: C2_2  and  C3_3 
REMARK    2  A    between atoms: C6_6  and  N1_7 
REMARK    3  A    between atoms: N1_7  and  C7_8 
REMARK    4  A    between atoms: C15_19  and  O1_20 
ROOT
HETATM    1  C3  UNL     1      26.102   5.796  49.279  1.00  0.00    -0.045 A 
HETATM    2  C4  UNL     1      25.740   4.573  49.632  1.00  0.00     0.023 A 
HETATM    3  C5  UNL     1      24.494   4.571  50.426  1.00  0.00     0.038 A 
HETATM    4  C6  UNL     1      23.766   3.546  50.993  1.00  0.00     0.141 A 
HETATM    5  N2  UNL     1      22.673   3.924  51.650  1.00  0.00    -0.224 NA
HETATM    6  C13 UNL     1      22.331   5.206  51.739  1.00  0.00     0.235 A 
HETATM    7  N3  UNL     1      23.046   6.210  51.182  1.00  0.00    -0.242 NA
HETATM    8  C14 UNL     1      24.158   5.900  50.506  1.00  0.00     0.083 A 
HETATM    9  C15 UNL     1      25.124   6.763  49.804  1.00  0.00     0.202 A 
ENDROOT
BRANCH   4  10
HETATM   10  N1  UNL     1      24.234   2.219  50.829  1.00  0.00    -0.340 N 
HETATM   11  H7  UNL     1      24.361   1.859  49.842  1.00  0.00     0.167 HD
BRANCH  10  12
HETATM   12  C7  UNL     1      24.562   1.285  51.839  1.00  0.00     0.035 A 
HETATM   13  C8  UNL     1      25.829   0.873  52.181  1.00  0.00     0.029 A 
HETATM   14  C9  UNL     1      26.164  -0.034  53.162  1.00  0.00     0.004 A 
HETATM   15  C10 UNL     1      25.131  -0.595  53.882  1.00  0.00     0.019 A 
HETATM   16  C11 UNL     1      23.835  -0.227  53.591  1.00  0.00     0.013 A 
HETATM   17 BR1  UNL     1      22.394  -0.992  54.577  1.00  0.00    -0.051 Br
HETATM   18  C12 UNL     1      23.578   0.687  52.597  1.00  0.00     0.048 A 
ENDBRANCH  10  12
ENDBRANCH   4  10
BRANCH   1  19
HETATM   19  C2  UNL     1      27.313   6.168  48.471  1.00  0.00     0.033 C 
HETATM   20  C1  UNL     1      28.235   4.981  48.444  1.00  0.00     0.010 C 
ENDBRANCH   1  19
BRANCH   9  21
HETATM   21  O1  UNL     1      24.553   7.556  48.831  1.00  0.00    -0.380 OA
HETATM   22  C16 UNL     1      24.551   8.903  49.130  1.00  0.00     0.202 C 
ENDBRANCH   9  21
TORSDOF 4
ENDMDL
