MODEL 1
REMARK VINA RESULT:      -8.3      0.000      0.000
REMARK  5 active torsions:
REMARK  status: ('A' for Active; 'I' for Inactive)
REMARK    1  A    between atoms: C4_6  and  N3_7 
REMARK    2  A    between atoms: C5_9  and  C6_10 
REMARK    3  A    between atoms: C7_11  and  C8_12 
REMARK    4  A    between atoms: C11_15  and  C12_16 
REMARK    5  A    between atoms: C12_16  and  N4_17 
ROOT
HETATM    1  C8  UNL     1      23.251  -0.338  53.382  1.00  0.00     0.021 A 
HETATM    2  C9  UNL     1      22.554  -0.833  54.474  1.00  0.00     0.021 A 
HETATM    3  C10 UNL     1      21.180  -0.858  54.519  1.00  0.00     0.013 A 
HETATM    4  C11 UNL     1      20.438  -0.382  53.458  1.00  0.00     0.009 A 
HETATM    5  C17 UNL     1      21.122   0.120  52.346  1.00  0.00     0.125 A 
HETATM    6  F1  UNL     1      20.515   0.617  51.233  1.00  0.00    -0.205 F 
HETATM    7  C18 UNL     1      22.514   0.138  52.317  1.00  0.00     0.063 A 
ENDROOT
BRANCH   1   8
HETATM    8  C7  UNL     1      24.696  -0.341  53.410  1.00  0.00    -0.061 C 
HETATM    9  C6  UNL     1      25.898  -0.361  53.445  1.00  0.00    -0.055 C 
BRANCH   9  10
HETATM   10  C5  UNL     1      27.329  -0.409  53.491  1.00  0.00     0.092 A 
HETATM   11  C2  UNL     1      27.979  -1.546  52.998  1.00  0.00     0.054 A 
HETATM   12  C1  UNL     1      27.143  -2.650  52.445  1.00  0.00     0.072 C 
HETATM   13  N1  UNL     1      29.321  -1.604  53.037  1.00  0.00    -0.245 NA
HETATM   14  C3  UNL     1      30.095  -0.621  53.529  1.00  0.00     0.235 A 
HETATM   15  N2  UNL     1      29.465   0.490  54.012  1.00  0.00    -0.219 NA
HETATM   16  C4  UNL     1      28.127   0.598  53.995  1.00  0.00     0.201 A 
BRANCH  16  17
HETATM   17  N3  UNL     1      27.436   1.738  54.491  1.00  0.00    -0.076 NA
HETATM   18  O1  UNL     1      27.920   2.849  54.166  1.00  0.00    -0.059 OA
ENDBRANCH  16  17
ENDBRANCH   9  10
ENDBRANCH   1   8
BRANCH   4  19
HETATM   19  C12 UNL     1      18.965  -0.313  53.293  1.00  0.00     0.314 C 
BRANCH  19  20
HETATM   20  N4  UNL     1      18.361  -1.524  52.827  1.00  0.00     0.092 N 
HETATM   21  C13 UNL     1      17.073  -1.171  52.265  1.00  0.00     0.273 C 
HETATM   22  C14 UNL     1      16.110  -2.286  52.556  1.00  0.00     0.032 C 
HETATM   23  C15 UNL     1      16.954  -3.333  53.258  1.00  0.00     0.032 C 
HETATM   24  C16 UNL     1      18.024  -2.454  53.877  1.00  0.00     0.273 C 
ENDBRANCH  19  20
ENDBRANCH   4  19
TORSDOF 5
ENDMDL
MODEL 2
REMARK VINA RESULT:      -8.1      1.549      2.075
REMARK  5 active torsions:
REMARK  status: ('A' for Active; 'I' for Inactive)
REMARK    1  A    between atoms: C4_6  and  N3_7 
REMARK    2  A    between atoms: C5_9  and  C6_10 
REMARK    3  A    between atoms: C7_11  and  C8_12 
REMARK    4  A    between atoms: C11_15  and  C12_16 
REMARK    5  A    between atoms: C12_16  and  N4_17 
ROOT
HETATM    1  C8  UNL     1      23.391   0.583  52.622  1.00  0.00     0.021 A 
HETATM    2  C9  UNL     1      23.028   1.212  51.440  1.00  0.00     0.021 A 
HETATM    3  C10 UNL     1      21.720   1.507  51.136  1.00  0.00     0.013 A 
HETATM    4  C11 UNL     1      20.709   1.180  52.016  1.00  0.00     0.009 A 
HETATM    5  C17 UNL     1      21.055   0.546  53.213  1.00  0.00     0.125 A 
HETATM    6  F1  UNL     1      20.158   0.171  54.168  1.00  0.00    -0.205 F 
HETATM    7  C18 UNL     1      22.384   0.254  53.505  1.00  0.00     0.063 A 
ENDROOT
BRANCH   1   8
HETATM    8  C7  UNL     1      24.788   0.302  52.868  1.00  0.00    -0.061 C 
HETATM    9  C6  UNL     1      25.944   0.050  53.079  1.00  0.00    -0.055 C 
BRANCH   9  10
HETATM   10  C5  UNL     1      27.317  -0.275  53.331  1.00  0.00     0.092 A 
HETATM   11  C2  UNL     1      27.781  -1.549  52.982  1.00  0.00     0.054 A 
HETATM   12  C1  UNL     1      26.817  -2.502  52.362  1.00  0.00     0.072 C 
HETATM   13  N1  UNL     1      29.065  -1.867  53.215  1.00  0.00    -0.245 NA
HETATM   14  C3  UNL     1      29.952  -1.023  53.772  1.00  0.00     0.235 A 
HETATM   15  N2  UNL     1      29.504   0.220  54.115  1.00  0.00    -0.219 NA
HETATM   16  C4  UNL     1      28.230   0.588  53.903  1.00  0.00     0.201 A 
BRANCH  16  17
HETATM   17  N3  UNL     1      27.727   1.873  54.248  1.00  0.00    -0.076 NA
HETATM   18  O1  UNL     1      28.549   2.817  54.164  1.00  0.00    -0.059 OA
ENDBRANCH  16  17
ENDBRANCH   9  10
ENDBRANCH   1   8
BRANCH   4  19
HETATM   19  C12 UNL     1      19.247   1.401  51.895  1.00  0.00     0.314 C 
BRANCH  19  20
HETATM   20  N4  UNL     1      18.514   0.276  51.397  1.00  0.00     0.092 N 
HETATM   21  C13 UNL     1      18.042   0.625  50.073  1.00  0.00     0.273 C 
HETATM   22  C14 UNL     1      16.694  -0.006  49.872  1.00  0.00     0.032 C 
HETATM   23  C15 UNL     1      16.462  -0.800  51.143  1.00  0.00     0.032 C 
HETATM   24  C16 UNL     1      17.299  -0.003  52.123  1.00  0.00     0.273 C 
ENDBRANCH  19  20
ENDBRANCH   4  19
TORSDOF 5
ENDMDL
MODEL 3
REMARK VINA RESULT:      -7.9      1.615      2.209
REMARK  5 active torsions:
REMARK  status: ('A' for Active; 'I' for Inactive)
REMARK    1  A    between atoms: C4_6  and  N3_7 
REMARK    2  A    between atoms: C5_9  and  C6_10 
REMARK    3  A    between atoms: C7_11  and  C8_12 
REMARK    4  A    between atoms: C11_15  and  C12_16 
REMARK    5  A    between atoms: C12_16  and  N4_17 
ROOT
HETATM    1  C8  UNL     1      22.652  -0.287  53.289  1.00  0.00     0.021 A 
HETATM    2  C9  UNL     1      21.996  -0.840  54.379  1.00  0.00     0.021 A 
HETATM    3  C10 UNL     1      20.629  -0.974  54.422  1.00  0.00     0.013 A 
HETATM    4  C11 UNL     1      19.852  -0.555  53.362  1.00  0.00     0.009 A 
HETATM    5  C17 UNL     1      20.495   0.004  52.253  1.00  0.00     0.125 A 
HETATM    6  F1  UNL     1      19.850   0.457  51.141  1.00  0.00    -0.205 F 
HETATM    7  C18 UNL     1      21.881   0.134  52.226  1.00  0.00     0.063 A 
ENDROOT
BRANCH   1   8
HETATM    8  C7  UNL     1      24.093  -0.175  53.319  1.00  0.00    -0.061 C 
HETATM    9  C6  UNL     1      25.290  -0.064  53.354  1.00  0.00    -0.055 C 
BRANCH   9  10
HETATM   10  C5  UNL     1      26.713   0.085  53.412  1.00  0.00     0.092 A 
HETATM   11  C2  UNL     1      27.248   1.369  53.577  1.00  0.00     0.054 A 
HETATM   12  C1  UNL     1      26.301   2.516  53.687  1.00  0.00     0.072 C 
HETATM   13  N1  UNL     1      28.582   1.523  53.632  1.00  0.00    -0.245 NA
HETATM   14  C3  UNL     1      29.454   0.504  53.536  1.00  0.00     0.235 A 
HETATM   15  N2  UNL     1      28.937  -0.749  53.373  1.00  0.00    -0.219 NA
HETATM   16  C4  UNL     1      27.613  -0.957  53.313  1.00  0.00     0.201 A 
BRANCH  16  17
HETATM   17  N3  UNL     1      27.038  -2.248  53.143  1.00  0.00    -0.076 NA
HETATM   18  O1  UNL     1      27.161  -2.749  52.000  1.00  0.00    -0.059 OA
ENDBRANCH  16  17
ENDBRANCH   9  10
ENDBRANCH   1   8
BRANCH   4  19
HETATM   19  C12 UNL     1      18.379  -0.602  53.196  1.00  0.00     0.314 C 
BRANCH  19  20
HETATM   20  N4  UNL     1      17.871  -1.862  52.744  1.00  0.00     0.092 N 
HETATM   21  C13 UNL     1      16.491  -1.653  52.357  1.00  0.00     0.273 C 
HETATM   22  C14 UNL     1      15.712  -2.889  52.702  1.00  0.00     0.032 C 
HETATM   23  C15 UNL     1      16.755  -3.847  53.245  1.00  0.00     0.032 C 
HETATM   24  C16 UNL     1      17.780  -2.864  53.777  1.00  0.00     0.273 C 
ENDBRANCH  19  20
ENDBRANCH   4  19
TORSDOF 5
ENDMDL
MODEL 4
REMARK VINA RESULT:      -7.9      3.086      9.120
REMARK  5 active torsions:
REMARK  status: ('A' for Active; 'I' for Inactive)
REMARK    1  A    between atoms: C4_6  and  N3_7 
REMARK    2  A    between atoms: C5_9  and  C6_10 
REMARK    3  A    between atoms: C7_11  and  C8_12 
REMARK    4  A    between atoms: C11_15  and  C12_16 
REMARK    5  A    between atoms: C12_16  and  N4_17 
ROOT
HETATM    1  C8  UNL     1      22.651   0.095  52.980  1.00  0.00     0.021 A 
HETATM    2  C9  UNL     1      23.612   0.955  52.468  1.00  0.00     0.021 A 
HETATM    3  C10 UNL     1      24.892   1.007  52.966  1.00  0.00     0.013 A 
HETATM    4  C11 UNL     1      25.267   0.189  54.012  1.00  0.00     0.009 A 
HETATM    5  C17 UNL     1      24.314  -0.685  54.542  1.00  0.00     0.125 A 
HETATM    6  F1  UNL     1      24.551  -1.545  55.572  1.00  0.00    -0.205 F 
HETATM    7  C18 UNL     1      23.021  -0.725  54.026  1.00  0.00     0.063 A 
ENDROOT
BRANCH   1   8
HETATM    8  C7  UNL     1      21.325   0.101  52.405  1.00  0.00    -0.061 C 
HETATM    9  C6  UNL     1      20.225   0.124  51.920  1.00  0.00    -0.055 C 
BRANCH   9  10
HETATM   10  C5  UNL     1      18.921   0.171  51.328  1.00  0.00     0.092 A 
HETATM   11  C2  UNL     1      17.881  -0.540  51.938  1.00  0.00     0.054 A 
HETATM   12  C1  UNL     1      18.188  -1.310  53.178  1.00  0.00     0.072 C 
HETATM   13  N1  UNL     1      16.654  -0.506  51.392  1.00  0.00    -0.245 NA
HETATM   14  C3  UNL     1      16.354   0.181  50.276  1.00  0.00     0.235 A 
HETATM   15  N2  UNL     1      17.365   0.876  49.677  1.00  0.00    -0.219 NA
HETATM   16  C4  UNL     1      18.609   0.875  50.183  1.00  0.00     0.201 A 
BRANCH  16  17
HETATM   17  N3  UNL     1      19.688   1.585  49.586  1.00  0.00    -0.076 NA
HETATM   18  O1  UNL     1      19.368   2.403  48.690  1.00  0.00    -0.059 OA
ENDBRANCH  16  17
ENDBRANCH   9  10
ENDBRANCH   1   8
BRANCH   4  19
HETATM   19  C12 UNL     1      26.578   0.079  54.699  1.00  0.00     0.314 C 
BRANCH  19  20
HETATM   20  N4  UNL     1      27.711   0.082  53.824  1.00  0.00     0.092 N 
HETATM   21  C13 UNL     1      27.862  -1.265  53.315  1.00  0.00     0.273 C 
HETATM   22  C14 UNL     1      29.328  -1.549  53.158  1.00  0.00     0.032 C 
HETATM   23  C15 UNL     1      30.002  -0.245  53.544  1.00  0.00     0.032 C 
HETATM   24  C16 UNL     1      28.967   0.331  54.489  1.00  0.00     0.273 C 
ENDBRANCH  19  20
ENDBRANCH   4  19
TORSDOF 5
ENDMDL
MODEL 5
REMARK VINA RESULT:      -7.9      3.060      9.194
REMARK  5 active torsions:
REMARK  status: ('A' for Active; 'I' for Inactive)
REMARK    1  A    between atoms: C4_6  and  N3_7 
REMARK    2  A    between atoms: C5_9  and  C6_10 
REMARK    3  A    between atoms: C7_11  and  C8_12 
REMARK    4  A    between atoms: C11_15  and  C12_16 
REMARK    5  A    between atoms: C12_16  and  N4_17 
ROOT
HETATM    1  C8  UNL     1      22.466   0.405  52.836  1.00  0.00     0.021 A 
HETATM    2  C9  UNL     1      23.115  -0.626  53.499  1.00  0.00     0.021 A 
HETATM    3  C10 UNL     1      24.415  -0.517  53.933  1.00  0.00     0.013 A 
HETATM    4  C11 UNL     1      25.127   0.644  53.719  1.00  0.00     0.009 A 
HETATM    5  C17 UNL     1      24.491   1.696  53.053  1.00  0.00     0.125 A 
HETATM    6  F1  UNL     1      25.077   2.895  52.779  1.00  0.00    -0.205 F 
HETATM    7  C18 UNL     1      23.174   1.569  52.619  1.00  0.00     0.063 A 
ENDROOT
BRANCH   1   8
HETATM    8  C7  UNL     1      21.100   0.214  52.405  1.00  0.00    -0.061 C 
HETATM    9  C6  UNL     1      19.958   0.052  52.067  1.00  0.00    -0.055 C 
BRANCH   9  10
HETATM   10  C5  UNL     1      18.590  -0.138  51.686  1.00  0.00     0.092 A 
HETATM   11  C2  UNL     1      18.122   0.492  50.526  1.00  0.00     0.054 A 
HETATM   12  C1  UNL     1      19.079   1.327  49.745  1.00  0.00     0.072 C 
HETATM   13  N1  UNL     1      16.840   0.324  50.158  1.00  0.00    -0.245 NA
HETATM   14  C3  UNL     1      15.960  -0.425  50.846  1.00  0.00     0.235 A 
HETATM   15  N2  UNL     1      16.412  -1.040  51.978  1.00  0.00    -0.219 NA
HETATM   16  C4  UNL     1      17.683  -0.905  52.388  1.00  0.00     0.201 A 
BRANCH  16  17
HETATM   17  N3  UNL     1      18.188  -1.529  53.563  1.00  0.00    -0.076 NA
HETATM   18  O1  UNL     1      17.871  -2.733  53.716  1.00  0.00    -0.059 OA
ENDBRANCH  16  17
ENDBRANCH   9  10
ENDBRANCH   1   8
BRANCH   4  19
HETATM   19  C12 UNL     1      26.523   0.977  54.097  1.00  0.00     0.314 C 
BRANCH  19  20
HETATM   20  N4  UNL     1      27.398  -0.151  54.199  1.00  0.00     0.092 N 
HETATM   21  C13 UNL     1      28.683   0.342  54.646  1.00  0.00     0.273 C 
HETATM   22  C14 UNL     1      29.757  -0.476  53.990  1.00  0.00     0.032 C 
HETATM   23  C15 UNL     1      28.996  -1.520  53.195  1.00  0.00     0.032 C 
HETATM   24  C16 UNL     1      27.701  -0.776  52.934  1.00  0.00     0.273 C 
ENDBRANCH  19  20
ENDBRANCH   4  19
TORSDOF 5
ENDMDL
MODEL 6
REMARK VINA RESULT:      -7.9      6.064      7.266
REMARK  5 active torsions:
REMARK  status: ('A' for Active; 'I' for Inactive)
REMARK    1  A    between atoms: C4_6  and  N3_7 
REMARK    2  A    between atoms: C5_9  and  C6_10 
REMARK    3  A    between atoms: C7_11  and  C8_12 
REMARK    4  A    between atoms: C11_15  and  C12_16 
REMARK    5  A    between atoms: C12_16  and  N4_17 
ROOT
HETATM    1  C8  UNL     1      25.909   3.072  50.549  1.00  0.00     0.021 A 
HETATM    2  C9  UNL     1      24.541   2.990  50.765  1.00  0.00     0.021 A 
HETATM    3  C10 UNL     1      23.975   1.992  51.521  1.00  0.00     0.013 A 
HETATM    4  C11 UNL     1      24.766   1.022  52.101  1.00  0.00     0.009 A 
HETATM    5  C17 UNL     1      26.148   1.087  51.896  1.00  0.00     0.125 A 
HETATM    6  F1  UNL     1      27.041   0.196  52.410  1.00  0.00    -0.205 F 
HETATM    7  C18 UNL     1      26.705   2.105  51.126  1.00  0.00     0.063 A 
ENDROOT
BRANCH   1   8
HETATM    8  C7  UNL     1      26.430   4.150  49.738  1.00  0.00    -0.061 C 
HETATM    9  C6  UNL     1      26.879   5.047  49.076  1.00  0.00    -0.055 C 
BRANCH   9  10
HETATM   10  C5  UNL     1      27.436   6.112  48.297  1.00  0.00     0.092 A 
HETATM   11  C2  UNL     1      26.590   7.142  47.866  1.00  0.00     0.054 A 
HETATM   12  C1  UNL     1      25.150   7.075  48.246  1.00  0.00     0.072 C 
HETATM   13  N1  UNL     1      27.099   8.147  47.134  1.00  0.00    -0.245 NA
HETATM   14  C3  UNL     1      28.394   8.229  46.780  1.00  0.00     0.235 A 
HETATM   15  N2  UNL     1      29.222   7.227  47.197  1.00  0.00    -0.219 NA
HETATM   16  C4  UNL     1      28.764   6.201  47.931  1.00  0.00     0.201 A 
BRANCH  16  17
HETATM   17  N3  UNL     1      29.595   5.138  48.382  1.00  0.00    -0.076 NA
HETATM   18  O1  UNL     1      30.615   5.484  49.025  1.00  0.00    -0.059 OA
ENDBRANCH  16  17
ENDBRANCH   9  10
ENDBRANCH   1   8
BRANCH   4  19
HETATM   19  C12 UNL     1      24.374  -0.134  52.945  1.00  0.00     0.314 C 
BRANCH  19  20
HETATM   20  N4  UNL     1      23.082  -0.018  53.550  1.00  0.00     0.092 N 
HETATM   21  C13 UNL     1      23.048  -0.939  54.667  1.00  0.00     0.273 C 
HETATM   22  C14 UNL     1      21.659  -1.497  54.776  1.00  0.00     0.032 C 
HETATM   23  C15 UNL     1      20.882  -0.776  53.690  1.00  0.00     0.032 C 
HETATM   24  C16 UNL     1      21.998  -0.469  52.711  1.00  0.00     0.273 C 
ENDBRANCH  19  20
ENDBRANCH   4  19
TORSDOF 5
ENDMDL
MODEL 7
REMARK VINA RESULT:      -7.7      2.215      2.823
REMARK  5 active torsions:
REMARK  status: ('A' for Active; 'I' for Inactive)
REMARK    1  A    between atoms: C4_6  and  N3_7 
REMARK    2  A    between atoms: C5_9  and  C6_10 
REMARK    3  A    between atoms: C7_11  and  C8_12 
REMARK    4  A    between atoms: C11_15  and  C12_16 
REMARK    5  A    between atoms: C12_16  and  N4_17 
ROOT
HETATM    1  C8  UNL     1      22.302   0.734  52.022  1.00  0.00     0.021 A 
HETATM    2  C9  UNL     1      21.263   0.478  52.905  1.00  0.00     0.021 A 
HETATM    3  C10 UNL     1      19.946   0.484  52.511  1.00  0.00     0.013 A 
HETATM    4  C11 UNL     1      19.611   0.749  51.200  1.00  0.00     0.009 A 
HETATM    5  C17 UNL     1      20.643   1.009  50.294  1.00  0.00     0.125 A 
HETATM    6  F1  UNL     1      20.452   1.285  48.973  1.00  0.00    -0.205 F 
HETATM    7  C18 UNL     1      21.972   1.000  50.709  1.00  0.00     0.063 A 
ENDROOT
BRANCH   1   8
HETATM    8  C7  UNL     1      23.662   0.714  52.511  1.00  0.00    -0.061 C 
HETATM    9  C6  UNL     1      24.788   0.682  52.930  1.00  0.00    -0.055 C 
BRANCH   9  10
HETATM   10  C5  UNL     1      26.127   0.621  53.438  1.00  0.00     0.092 A 
HETATM   11  C2  UNL     1      27.110   1.415  52.835  1.00  0.00     0.054 A 
HETATM   12  C1  UNL     1      26.708   2.286  51.693  1.00  0.00     0.072 C 
HETATM   13  N1  UNL     1      28.370   1.366  53.300  1.00  0.00    -0.245 NA
HETATM   14  C3  UNL     1      28.755   0.589  54.328  1.00  0.00     0.235 A 
HETATM   15  N2  UNL     1      27.799  -0.187  54.919  1.00  0.00    -0.219 NA
HETATM   16  C4  UNL     1      26.526  -0.174  54.492  1.00  0.00     0.201 A 
BRANCH  16  17
HETATM   17  N3  UNL     1      25.504  -0.970  55.082  1.00  0.00    -0.076 NA
HETATM   18  O1  UNL     1      25.509  -1.016  56.335  1.00  0.00    -0.059 OA
ENDBRANCH  16  17
ENDBRANCH   9  10
ENDBRANCH   1   8
BRANCH   4  19
HETATM   19  C12 UNL     1      18.272   0.807  50.563  1.00  0.00     0.314 C 
BRANCH  19  20
HETATM   20  N4  UNL     1      17.485  -0.378  50.721  1.00  0.00     0.092 N 
HETATM   21  C13 UNL     1      16.603  -0.462  49.576  1.00  0.00     0.273 C 
HETATM   22  C14 UNL     1      15.298  -1.052  50.029  1.00  0.00     0.032 C 
HETATM   23  C15 UNL     1      15.522  -1.368  51.496  1.00  0.00     0.032 C 
HETATM   24  C16 UNL     1      16.577  -0.336  51.841  1.00  0.00     0.273 C 
ENDBRANCH  19  20
ENDBRANCH   4  19
TORSDOF 5
ENDMDL
MODEL 8
REMARK VINA RESULT:      -7.6      2.519      3.378
REMARK  5 active torsions:
REMARK  status: ('A' for Active; 'I' for Inactive)
REMARK    1  A    between atoms: C4_6  and  N3_7 
REMARK    2  A    between atoms: C5_9  and  C6_10 
REMARK    3  A    between atoms: C7_11  and  C8_12 
REMARK    4  A    between atoms: C11_15  and  C12_16 
REMARK    5  A    between atoms: C12_16  and  N4_17 
ROOT
HETATM    1  C8  UNL     1      22.286   0.527  52.162  1.00  0.00     0.021 A 
HETATM    2  C9  UNL     1      21.944   1.180  50.987  1.00  0.00     0.021 A 
HETATM    3  C10 UNL     1      20.657   1.202  50.507  1.00  0.00     0.013 A 
HETATM    4  C11 UNL     1      19.645   0.562  51.192  1.00  0.00     0.009 A 
HETATM    5  C17 UNL     1      19.969  -0.101  52.380  1.00  0.00     0.125 A 
HETATM    6  F1  UNL     1      19.069  -0.769  53.154  1.00  0.00    -0.205 F 
HETATM    7  C18 UNL     1      21.278  -0.114  52.852  1.00  0.00     0.063 A 
ENDROOT
BRANCH   1   8
HETATM    8  C7  UNL     1      23.663   0.545  52.601  1.00  0.00    -0.061 C 
HETATM    9  C6  UNL     1      24.803   0.553  52.984  1.00  0.00    -0.055 C 
BRANCH   9  10
HETATM   10  C5  UNL     1      26.155   0.547  53.459  1.00  0.00     0.092 A 
HETATM   11  C2  UNL     1      27.114   1.292  52.763  1.00  0.00     0.054 A 
HETATM   12  C1  UNL     1      26.674   2.057  51.561  1.00  0.00     0.072 C 
HETATM   13  N1  UNL     1      28.386   1.294  53.196  1.00  0.00    -0.245 NA
HETATM   14  C3  UNL     1      28.805   0.613  54.277  1.00  0.00     0.235 A 
HETATM   15  N2  UNL     1      27.873  -0.116  54.958  1.00  0.00    -0.219 NA
HETATM   16  C4  UNL     1      26.590  -0.150  54.567  1.00  0.00     0.201 A 
BRANCH  16  17
HETATM   17  N3  UNL     1      25.592  -0.900  55.251  1.00  0.00    -0.076 NA
HETATM   18  O1  UNL     1      25.672  -0.893  56.502  1.00  0.00    -0.059 OA
ENDBRANCH  16  17
ENDBRANCH   9  10
ENDBRANCH   1   8
BRANCH   4  19
HETATM   19  C12 UNL     1      18.202   0.457  50.862  1.00  0.00     0.314 C 
BRANCH  19  20
HETATM   20  N4  UNL     1      17.359   1.363  51.582  1.00  0.00     0.092 N 
HETATM   21  C13 UNL     1      16.087   0.700  51.779  1.00  0.00     0.273 C 
HETATM   22  C14 UNL     1      15.000   1.733  51.703  1.00  0.00     0.032 C 
HETATM   23  C15 UNL     1      15.744   3.043  51.523  1.00  0.00     0.032 C 
HETATM   24  C16 UNL     1      17.007   2.551  50.844  1.00  0.00     0.273 C 
ENDBRANCH  19  20
ENDBRANCH   4  19
TORSDOF 5
ENDMDL
MODEL 9
REMARK VINA RESULT:      -7.6      6.661     10.291
REMARK  5 active torsions:
REMARK  status: ('A' for Active; 'I' for Inactive)
REMARK    1  A    between atoms: C4_6  and  N3_7 
REMARK    2  A    between atoms: C5_9  and  C6_10 
REMARK    3  A    between atoms: C7_11  and  C8_12 
REMARK    4  A    between atoms: C11_15  and  C12_16 
REMARK    5  A    between atoms: C12_16  and  N4_17 
ROOT
HETATM    1  C8  UNL     1      25.974   4.270  49.920  1.00  0.00     0.021 A 
HETATM    2  C9  UNL     1      25.426   5.544  49.891  1.00  0.00     0.021 A 
HETATM    3  C10 UNL     1      26.023   6.586  49.224  1.00  0.00     0.013 A 
HETATM    4  C11 UNL     1      27.210   6.393  48.548  1.00  0.00     0.009 A 
HETATM    5  C17 UNL     1      27.779   5.116  48.564  1.00  0.00     0.125 A 
HETATM    6  F1  UNL     1      28.944   4.789  47.939  1.00  0.00    -0.205 F 
HETATM    7  C18 UNL     1      27.161   4.071  49.246  1.00  0.00     0.063 A 
ENDROOT
BRANCH   1   8
HETATM    8  C7  UNL     1      25.288   3.226  50.647  1.00  0.00    -0.061 C 
HETATM    9  C6  UNL     1      24.735   2.354  51.263  1.00  0.00    -0.055 C 
BRANCH   9  10
HETATM   10  C5  UNL     1      24.093   1.316  52.013  1.00  0.00     0.092 A 
HETATM   11  C2  UNL     1      22.771   0.979  51.699  1.00  0.00     0.054 A 
HETATM   12  C1  UNL     1      22.100   1.722  50.594  1.00  0.00     0.072 C 
HETATM   13  N1  UNL     1      22.157   0.008  52.396  1.00  0.00    -0.245 NA
HETATM   14  C3  UNL     1      22.742  -0.675  53.395  1.00  0.00     0.235 A 
HETATM   15  N2  UNL     1      24.031  -0.350  53.705  1.00  0.00    -0.219 NA
HETATM   16  C4  UNL     1      24.690   0.611  53.039  1.00  0.00     0.201 A 
BRANCH  16  17
HETATM   17  N3  UNL     1      26.032   0.979  53.335  1.00  0.00    -0.076 NA
HETATM   18  O1  UNL     1      26.195   1.624  54.399  1.00  0.00    -0.059 OA
ENDBRANCH  16  17
ENDBRANCH   9  10
ENDBRANCH   1   8
BRANCH   4  19
HETATM   19  C12 UNL     1      28.021   7.363  47.771  1.00  0.00     0.314 C 
BRANCH  19  20
HETATM   20  N4  UNL     1      29.192   7.835  48.445  1.00  0.00     0.092 N 
HETATM   21  C13 UNL     1      28.817   9.032  49.168  1.00  0.00     0.273 C 
HETATM   22  C14 UNL     1      29.981   9.980  49.147  1.00  0.00     0.032 C 
HETATM   23  C15 UNL     1      31.073   9.213  48.426  1.00  0.00     0.032 C 
HETATM   24  C16 UNL     1      30.236   8.292  47.560  1.00  0.00     0.273 C 
ENDBRANCH  19  20
ENDBRANCH   4  19
TORSDOF 5
ENDMDL
