MODEL 1
REMARK VINA RESULT:      -8.0      0.000      0.000
REMARK  4 active torsions:
REMARK  status: ('A' for Active; 'I' for Inactive)
REMARK    1  A    between atoms: C2_2  and  C3_4 
REMARK    2  A    between atoms: C6_9  and  N3_10 
REMARK    3  A    between atoms: N3_10  and  N4_11 
REMARK    4  A    between atoms: C12_20  and  C13_21 
ROOT
HETATM    1  N4  UNL     1      24.821   3.650  51.503  1.00  0.00    -0.247 N 
HETATM    2  C7  UNL     1      25.982   3.353  50.895  1.00  0.00     0.143 A 
HETATM    3  C8  UNL     1      26.071   4.179  49.796  1.00  0.00     0.064 A 
HETATM    4 CL1  UNL     1      27.458   4.029  48.739  1.00  0.00    -0.082 Cl
HETATM    5  C9  UNL     1      24.989   5.020  49.665  1.00  0.00     0.043 A 
HETATM    6  C10 UNL     1      24.253   4.621  50.773  1.00  0.00     0.161 A 
HETATM    7  N5  UNL     1      22.943   5.164  50.993  1.00  0.00    -0.217 NA
HETATM    8  C11 UNL     1      22.539   5.997  50.106  1.00  0.00     0.254 C 
HETATM    9  O2  UNL     1      23.184   6.431  48.980  1.00  0.00    -0.334 OA
HETATM   10  C12 UNL     1      24.562   6.115  48.770  1.00  0.00     0.176 C 
ENDROOT
BRANCH   1  11
HETATM   11  N3  UNL     1      24.335   3.035  52.662  1.00  0.00    -0.289 N 
HETATM   12  H8  UNL     1      23.968   3.619  53.443  1.00  0.00     0.188 HD
BRANCH  11  13
HETATM   13  C6  UNL     1      24.233   1.678  53.012  1.00  0.00     0.100 A 
HETATM   14  C3  UNL     1      25.134   0.735  53.455  1.00  0.00     0.151 A 
HETATM   15  N1  UNL     1      24.530  -0.449  53.649  1.00  0.00    -0.167 NA
HETATM   16  N2  UNL     1      23.245  -0.325  53.347  1.00  0.00    -0.282 N 
HETATM   17  C4  UNL     1      22.152  -1.303  53.382  1.00  0.00     0.179 C 
HETATM   18  C5  UNL     1      23.036   0.951  52.958  1.00  0.00     0.145 A 
BRANCH  14  19
HETATM   19  C2  UNL     1      26.547   1.002  53.664  1.00  0.00     0.178 C 
HETATM   20  C1  UNL     1      27.565  -0.008  53.273  1.00  0.00     0.099 C 
HETATM   21  O1  UNL     1      27.026   2.049  54.164  1.00  0.00    -0.291 OA
ENDBRANCH  14  19
ENDBRANCH  11  13
ENDBRANCH   1  11
BRANCH  10  22
HETATM   22  C13 UNL     1      25.307   7.434  49.026  1.00  0.00     0.072 C 
HETATM   23  C14 UNL     1      25.787   7.533  50.402  1.00  0.00     0.279 C 
HETATM   24  N6  UNL     1      26.822   8.521  50.627  1.00  0.00     0.086 N 
HETATM   25  C15 UNL     1      26.953   9.504  49.596  1.00  0.00     0.300 C 
HETATM   26  H15 UNL     1      27.719   8.111  50.944  1.00  0.00     0.315 HD
HETATM   27  C16 UNL     1      28.000   8.957  48.624  1.00  0.00     0.145 C 
HETATM   28  C17 UNL     1      29.386   9.071  49.211  1.00  0.00     0.041 C 
HETATM   29  O3  UNL     1      27.636   7.618  48.414  1.00  0.00    -0.384 OA
HETATM   30  C18 UNL     1      26.323   7.637  47.948  1.00  0.00     0.177 C 
ENDBRANCH  10  22
TORSDOF 4
ENDMDL
MODEL 2
REMARK VINA RESULT:      -8.0      5.062      7.940
REMARK  4 active torsions:
REMARK  status: ('A' for Active; 'I' for Inactive)
REMARK    1  A    between atoms: C2_2  and  C3_4 
REMARK    2  A    between atoms: C6_9  and  N3_10 
REMARK    3  A    between atoms: N3_10  and  N4_11 
REMARK    4  A    between atoms: C12_20  and  C13_21 
ROOT
HETATM    1  N4  UNL     1      23.928   0.361  52.713  1.00  0.00    -0.247 N 
HETATM    2  C7  UNL     1      23.476  -0.699  53.405  1.00  0.00     0.143 A 
HETATM    3  C8  UNL     1      22.140  -0.467  53.648  1.00  0.00     0.064 A 
HETATM    4 CL1  UNL     1      21.235  -1.644  54.576  1.00  0.00    -0.082 Cl
HETATM    5  C9  UNL     1      21.696   0.728  53.129  1.00  0.00     0.043 A 
HETATM    6  C10 UNL     1      22.880   1.185  52.563  1.00  0.00     0.161 A 
HETATM    7  N5  UNL     1      22.934   2.495  51.981  1.00  0.00    -0.217 NA
HETATM    8  C11 UNL     1      21.845   3.170  52.046  1.00  0.00     0.254 C 
HETATM    9  O2  UNL     1      20.646   2.810  52.598  1.00  0.00    -0.334 OA
HETATM   10  C12 UNL     1      20.420   1.463  53.021  1.00  0.00     0.176 C 
ENDROOT
BRANCH   1  11
HETATM   11  N3  UNL     1      25.242   0.534  52.267  1.00  0.00    -0.289 N 
HETATM   12  H8  UNL     1      25.438   1.173  51.467  1.00  0.00     0.188 HD
BRANCH  11  13
HETATM   13  C6  UNL     1      26.450  -0.025  52.718  1.00  0.00     0.100 A 
HETATM   14  C3  UNL     1      27.550   0.480  53.376  1.00  0.00     0.151 A 
HETATM   15  N1  UNL     1      28.467  -0.480  53.580  1.00  0.00    -0.167 NA
HETATM   16  N2  UNL     1      28.011  -1.618  53.076  1.00  0.00    -0.282 N 
HETATM   17  C4  UNL     1      28.610  -2.956  53.031  1.00  0.00     0.179 C 
HETATM   18  C5  UNL     1      26.793  -1.373  52.547  1.00  0.00     0.145 A 
BRANCH  14  19
HETATM   19  C2  UNL     1      27.686   1.872  53.773  1.00  0.00     0.178 C 
HETATM   20  C1  UNL     1      29.019   2.529  53.751  1.00  0.00     0.099 C 
HETATM   21  O1  UNL     1      26.750   2.617  54.151  1.00  0.00    -0.291 OA
ENDBRANCH  14  19
ENDBRANCH  11  13
ENDBRANCH   1  11
BRANCH  10  22
HETATM   22  C13 UNL     1      19.471   0.878  51.963  1.00  0.00     0.072 C 
HETATM   23  C14 UNL     1      18.716  -0.262  52.475  1.00  0.00     0.279 C 
HETATM   24  N6  UNL     1      17.535  -0.616  51.714  1.00  0.00     0.086 N 
HETATM   25  C15 UNL     1      17.486  -0.073  50.391  1.00  0.00     0.300 C 
HETATM   26  H15 UNL     1      16.656  -0.516  52.251  1.00  0.00     0.315 HD
HETATM   27  C16 UNL     1      16.736   1.255  50.508  1.00  0.00     0.145 C 
HETATM   28  C17 UNL     1      15.259   1.020  50.704  1.00  0.00     0.041 C 
HETATM   29  O3  UNL     1      17.309   1.897  51.617  1.00  0.00    -0.384 OA
HETATM   30  C18 UNL     1      18.674   1.989  51.356  1.00  0.00     0.177 C 
ENDBRANCH  10  22
TORSDOF 4
ENDMDL
MODEL 3
REMARK VINA RESULT:      -7.9      3.753      5.812
REMARK  4 active torsions:
REMARK  status: ('A' for Active; 'I' for Inactive)
REMARK    1  A    between atoms: C2_2  and  C3_4 
REMARK    2  A    between atoms: C6_9  and  N3_10 
REMARK    3  A    between atoms: N3_10  and  N4_11 
REMARK    4  A    between atoms: C12_20  and  C13_21 
ROOT
HETATM    1  N4  UNL     1      25.425   2.915  53.218  1.00  0.00    -0.247 N 
HETATM    2  C7  UNL     1      24.297   3.537  53.602  1.00  0.00     0.143 A 
HETATM    3  C8  UNL     1      23.692   3.997  52.452  1.00  0.00     0.064 A 
HETATM    4 CL1  UNL     1      22.201   4.902  52.588  1.00  0.00    -0.082 Cl
HETATM    5  C9  UNL     1      24.399   3.690  51.311  1.00  0.00     0.043 A 
HETATM    6  C10 UNL     1      25.472   3.016  51.881  1.00  0.00     0.161 A 
HETATM    7  N5  UNL     1      26.566   2.589  51.057  1.00  0.00    -0.217 NA
HETATM    8  C11 UNL     1      26.466   2.890  49.814  1.00  0.00     0.254 C 
HETATM    9  O2  UNL     1      25.463   3.563  49.173  1.00  0.00    -0.334 OA
HETATM   10  C12 UNL     1      24.239   3.855  49.852  1.00  0.00     0.176 C 
ENDROOT
BRANCH   1  11
HETATM   11  N3  UNL     1      26.345   2.307  54.078  1.00  0.00    -0.289 N 
HETATM   12  H8  UNL     1      26.635   2.793  54.954  1.00  0.00     0.188 HD
BRANCH  11  13
HETATM   13  C6  UNL     1      27.009   1.072  53.994  1.00  0.00     0.100 A 
HETATM   14  C3  UNL     1      26.606  -0.240  54.112  1.00  0.00     0.151 A 
HETATM   15  N1  UNL     1      27.645  -1.076  53.951  1.00  0.00    -0.167 NA
HETATM   16  N2  UNL     1      28.737  -0.357  53.727  1.00  0.00    -0.282 N 
HETATM   17  C4  UNL     1      30.124  -0.770  53.488  1.00  0.00     0.179 C 
HETATM   18  C5  UNL     1      28.383   0.945  53.747  1.00  0.00     0.145 A 
BRANCH  14  19
HETATM   19  C2  UNL     1      25.238  -0.644  54.390  1.00  0.00     0.178 C 
HETATM   20  C1  UNL     1      24.172  -0.424  53.377  1.00  0.00     0.099 C 
HETATM   21  O1  UNL     1      24.838  -1.187  55.449  1.00  0.00    -0.291 OA
ENDBRANCH  14  19
ENDBRANCH  11  13
ENDBRANCH   1  11
BRANCH  10  22
HETATM   22  C13 UNL     1      23.216   2.885  49.241  1.00  0.00     0.072 C 
HETATM   23  C14 UNL     1      22.905   1.777  50.143  1.00  0.00     0.279 C 
HETATM   24  N6  UNL     1      21.686   1.056  49.840  1.00  0.00     0.086 N 
HETATM   25  C15 UNL     1      21.174   1.263  48.520  1.00  0.00     0.300 C 
HETATM   26  H15 UNL     1      20.975   1.119  50.590  1.00  0.00     0.315 HD
HETATM   27  C16 UNL     1      20.190   2.429  48.628  1.00  0.00     0.145 C 
HETATM   28  C17 UNL     1      18.909   1.988  49.292  1.00  0.00     0.041 C 
HETATM   29  O3  UNL     1      20.861   3.399  49.389  1.00  0.00    -0.384 OA
HETATM   30  C18 UNL     1      22.053   3.668  48.720  1.00  0.00     0.177 C 
ENDBRANCH  10  22
TORSDOF 4
ENDMDL
MODEL 4
REMARK VINA RESULT:      -7.9      1.217      2.172
REMARK  4 active torsions:
REMARK  status: ('A' for Active; 'I' for Inactive)
REMARK    1  A    between atoms: C2_2  and  C3_4 
REMARK    2  A    between atoms: C6_9  and  N3_10 
REMARK    3  A    between atoms: N3_10  and  N4_11 
REMARK    4  A    between atoms: C12_20  and  C13_21 
ROOT
HETATM    1  N4  UNL     1      24.995   3.446  51.265  1.00  0.00    -0.247 N 
HETATM    2  C7  UNL     1      26.192   3.266  50.680  1.00  0.00     0.143 A 
HETATM    3  C8  UNL     1      26.253   4.158  49.631  1.00  0.00     0.064 A 
HETATM    4 CL1  UNL     1      27.678   4.166  48.614  1.00  0.00    -0.082 Cl
HETATM    5  C9  UNL     1      25.118   4.928  49.511  1.00  0.00     0.043 A 
HETATM    6  C10 UNL     1      24.380   4.416  50.570  1.00  0.00     0.161 A 
HETATM    7  N5  UNL     1      23.029   4.852  50.777  1.00  0.00    -0.217 NA
HETATM    8  C11 UNL     1      22.592   5.705  49.923  1.00  0.00     0.254 C 
HETATM    9  O2  UNL     1      23.237   6.246  48.845  1.00  0.00    -0.334 OA
HETATM   10  C12 UNL     1      24.640   6.039  48.663  1.00  0.00     0.176 C 
ENDROOT
BRANCH   1  11
HETATM   11  N3  UNL     1      24.521   2.733  52.371  1.00  0.00    -0.289 N 
HETATM   12  H8  UNL     1      23.610   2.997  52.805  1.00  0.00     0.188 HD
BRANCH  11  13
HETATM   13  C6  UNL     1      25.068   1.645  53.070  1.00  0.00     0.100 A 
HETATM   14  C3  UNL     1      24.585   0.412  53.449  1.00  0.00     0.151 A 
HETATM   15  N1  UNL     1      25.519  -0.282  54.121  1.00  0.00    -0.167 NA
HETATM   16  N2  UNL     1      26.618   0.455  54.202  1.00  0.00    -0.282 N 
HETATM   17  C4  UNL     1      27.917   0.174  54.824  1.00  0.00     0.179 C 
HETATM   18  C5  UNL     1      26.376   1.625  53.576  1.00  0.00     0.145 A 
BRANCH  14  19
HETATM   19  C2  UNL     1      23.237  -0.050  53.164  1.00  0.00     0.178 C 
HETATM   20  C1  UNL     1      22.567  -1.012  54.079  1.00  0.00     0.099 C 
HETATM   21  O1  UNL     1      22.541   0.293  52.178  1.00  0.00    -0.291 OA
ENDBRANCH  14  19
ENDBRANCH  11  13
ENDBRANCH   1  11
BRANCH  10  22
HETATM   22  C13 UNL     1      25.281   7.390  49.016  1.00  0.00     0.072 C 
HETATM   23  C14 UNL     1      25.738   7.434  50.404  1.00  0.00     0.279 C 
HETATM   24  N6  UNL     1      26.693   8.479  50.708  1.00  0.00     0.086 N 
HETATM   25  C15 UNL     1      26.761   9.535  49.744  1.00  0.00     0.300 C 
HETATM   26  H15 UNL     1      27.615   8.117  51.011  1.00  0.00     0.315 HD
HETATM   27  C16 UNL     1      27.856   9.133  48.755  1.00  0.00     0.145 C 
HETATM   28  C17 UNL     1      29.223   9.310  49.370  1.00  0.00     0.041 C 
HETATM   29  O3  UNL     1      27.595   7.787  48.453  1.00  0.00    -0.384 OA
HETATM   30  C18 UNL     1      26.290   7.739  47.969  1.00  0.00     0.177 C 
ENDBRANCH  10  22
TORSDOF 4
ENDMDL
MODEL 5
REMARK VINA RESULT:      -7.7      4.074      6.962
REMARK  4 active torsions:
REMARK  status: ('A' for Active; 'I' for Inactive)
REMARK    1  A    between atoms: C2_2  and  C3_4 
REMARK    2  A    between atoms: C6_9  and  N3_10 
REMARK    3  A    between atoms: N3_10  and  N4_11 
REMARK    4  A    between atoms: C12_20  and  C13_21 
ROOT
HETATM    1  N4  UNL     1      24.645   0.975  52.263  1.00  0.00    -0.247 N 
HETATM    2  C7  UNL     1      23.814   0.248  53.029  1.00  0.00     0.143 A 
HETATM    3  C8  UNL     1      22.646   0.971  53.135  1.00  0.00     0.064 A 
HETATM    4 CL1  UNL     1      21.343   0.329  54.112  1.00  0.00    -0.082 Cl
HETATM    5  C9  UNL     1      22.686   2.165  52.451  1.00  0.00     0.043 A 
HETATM    6  C10 UNL     1      23.974   2.090  51.936  1.00  0.00     0.161 A 
HETATM    7  N5  UNL     1      24.522   3.205  51.218  1.00  0.00    -0.217 NA
HETATM    8  C11 UNL     1      23.751   4.225  51.117  1.00  0.00     0.254 C 
HETATM    9  O2  UNL     1      22.484   4.393  51.606  1.00  0.00    -0.334 OA
HETATM   10  C12 UNL     1      21.769   3.284  52.157  1.00  0.00     0.176 C 
ENDROOT
BRANCH   1  11
HETATM   11  N3  UNL     1      25.947   0.607  51.909  1.00  0.00    -0.289 N 
HETATM   12  H8  UNL     1      26.159   0.333  50.926  1.00  0.00     0.188 HD
BRANCH  11  13
HETATM   13  C6  UNL     1      27.123   0.527  52.674  1.00  0.00     0.100 A 
HETATM   14  C3  UNL     1      27.930  -0.512  53.082  1.00  0.00     0.151 A 
HETATM   15  N1  UNL     1      28.957  -0.060  53.819  1.00  0.00    -0.167 NA
HETATM   16  N2  UNL     1      28.860   1.259  53.918  1.00  0.00    -0.282 N 
HETATM   17  C4  UNL     1      29.713   2.234  54.606  1.00  0.00     0.179 C 
HETATM   18  C5  UNL     1      27.761   1.642  53.236  1.00  0.00     0.145 A 
BRANCH  14  19
HETATM   19  C2  UNL     1      27.677  -1.907  52.758  1.00  0.00     0.178 C 
HETATM   20  C1  UNL     1      28.688  -2.946  53.085  1.00  0.00     0.099 C 
HETATM   21  O1  UNL     1      26.642  -2.351  52.203  1.00  0.00    -0.291 OA
ENDBRANCH  14  19
ENDBRANCH  11  13
ENDBRANCH   1  11
BRANCH  10  22
HETATM   22  C13 UNL     1      20.711   2.939  51.097  1.00  0.00     0.072 C 
HETATM   23  C14 UNL     1      21.158   1.872  50.204  1.00  0.00     0.279 C 
HETATM   24  N6  UNL     1      20.109   1.213  49.455  1.00  0.00     0.086 N 
HETATM   25  C15 UNL     1      18.871   1.927  49.392  1.00  0.00     0.300 C 
HETATM   26  H15 UNL     1      20.011   0.207  49.683  1.00  0.00     0.315 HD
HETATM   27  C16 UNL     1      18.034   1.425  50.570  1.00  0.00     0.145 C 
HETATM   28  C17 UNL     1      17.501   0.040  50.295  1.00  0.00     0.041 C 
HETATM   29  O3  UNL     1      18.911   1.434  51.666  1.00  0.00    -0.384 OA
HETATM   30  C18 UNL     1      19.392   2.737  51.773  1.00  0.00     0.177 C 
ENDBRANCH  10  22
TORSDOF 4
ENDMDL
MODEL 6
REMARK VINA RESULT:      -7.6      2.960      8.260
REMARK  4 active torsions:
REMARK  status: ('A' for Active; 'I' for Inactive)
REMARK    1  A    between atoms: C2_2  and  C3_4 
REMARK    2  A    between atoms: C6_9  and  N3_10 
REMARK    3  A    between atoms: N3_10  and  N4_11 
REMARK    4  A    between atoms: C12_20  and  C13_21 
ROOT
HETATM    1  N4  UNL     1      24.607   4.402  50.265  1.00  0.00    -0.247 N 
HETATM    2  C7  UNL     1      24.057   4.126  49.070  1.00  0.00     0.143 A 
HETATM    3  C8  UNL     1      23.429   2.906  49.201  1.00  0.00     0.064 A 
HETATM    4 CL1  UNL     1      22.634   2.214  47.804  1.00  0.00    -0.082 Cl
HETATM    5  C9  UNL     1      23.550   2.369  50.463  1.00  0.00     0.043 A 
HETATM    6  C10 UNL     1      24.305   3.368  51.065  1.00  0.00     0.161 A 
HETATM    7  N5  UNL     1      24.788   3.189  52.404  1.00  0.00    -0.217 NA
HETATM    8  C11 UNL     1      24.482   2.070  52.952  1.00  0.00     0.254 C 
HETATM    9  O2  UNL     1      23.765   1.028  52.431  1.00  0.00    -0.334 OA
HETATM   10  C12 UNL     1      23.069   1.178  51.192  1.00  0.00     0.176 C 
ENDROOT
BRANCH   1  11
HETATM   11  N3  UNL     1      25.347   5.549  50.568  1.00  0.00    -0.289 N 
HETATM   12  H8  UNL     1      25.601   5.756  51.558  1.00  0.00     0.188 HD
BRANCH  11  13
HETATM   13  C6  UNL     1      25.862   6.560  49.739  1.00  0.00     0.100 A 
HETATM   14  C3  UNL     1      26.920   6.629  48.859  1.00  0.00     0.151 A 
HETATM   15  N1  UNL     1      27.000   7.848  48.302  1.00  0.00    -0.167 NA
HETATM   16  N2  UNL     1      26.022   8.601  48.786  1.00  0.00    -0.282 N 
HETATM   17  C4  UNL     1      25.662   9.997  48.513  1.00  0.00     0.179 C 
HETATM   18  C5  UNL     1      25.317   7.849  49.657  1.00  0.00     0.145 A 
BRANCH  14  19
HETATM   19  C2  UNL     1      27.825   5.522  48.596  1.00  0.00     0.178 C 
HETATM   20  C1  UNL     1      29.185   5.781  48.056  1.00  0.00     0.099 C 
HETATM   21  O1  UNL     1      27.568   4.308  48.785  1.00  0.00    -0.291 OA
ENDBRANCH  14  19
ENDBRANCH  11  13
ENDBRANCH   1  11
BRANCH  10  22
HETATM   22  C13 UNL     1      21.587   1.267  51.587  1.00  0.00     0.072 C 
HETATM   23  C14 UNL     1      20.705   0.816  50.513  1.00  0.00     0.279 C 
HETATM   24  N6  UNL     1      19.355   0.483  50.918  1.00  0.00     0.086 N 
HETATM   25  C15 UNL     1      18.964   0.997  52.195  1.00  0.00     0.300 C 
HETATM   26  H15 UNL     1      19.114  -0.512  50.765  1.00  0.00     0.315 HD
HETATM   27  C16 UNL     1      19.297  -0.098  53.210  1.00  0.00     0.145 C 
HETATM   28  C17 UNL     1      18.306  -1.231  53.118  1.00  0.00     0.041 C 
HETATM   29  O3  UNL     1      20.595  -0.517  52.877  1.00  0.00    -0.384 OA
HETATM   30  C18 UNL     1      21.399   0.620  52.922  1.00  0.00     0.177 C 
ENDBRANCH  10  22
TORSDOF 4
ENDMDL
MODEL 7
REMARK VINA RESULT:      -7.5      2.701      4.041
REMARK  4 active torsions:
REMARK  status: ('A' for Active; 'I' for Inactive)
REMARK    1  A    between atoms: C2_2  and  C3_4 
REMARK    2  A    between atoms: C6_9  and  N3_10 
REMARK    3  A    between atoms: N3_10  and  N4_11 
REMARK    4  A    between atoms: C12_20  and  C13_21 
ROOT
HETATM    1  N4  UNL     1      25.141   2.595  51.425  1.00  0.00    -0.247 N 
HETATM    2  C7  UNL     1      24.062   3.135  52.017  1.00  0.00     0.143 A 
HETATM    3  C8  UNL     1      23.898   4.386  51.464  1.00  0.00     0.064 A 
HETATM    4 CL1  UNL     1      22.592   5.398  52.042  1.00  0.00    -0.082 Cl
HETATM    5  C9  UNL     1      24.848   4.685  50.514  1.00  0.00     0.043 A 
HETATM    6  C10 UNL     1      25.589   3.511  50.554  1.00  0.00     0.161 A 
HETATM    7  N5  UNL     1      26.795   3.401  49.784  1.00  0.00    -0.217 NA
HETATM    8  C11 UNL     1      27.108   4.443  49.104  1.00  0.00     0.254 C 
HETATM    9  O2  UNL     1      26.453   5.640  49.020  1.00  0.00    -0.334 OA
HETATM   10  C12 UNL     1      25.146   5.790  49.580  1.00  0.00     0.176 C 
ENDROOT
BRANCH   1  11
HETATM   11  N3  UNL     1      25.665   1.327  51.702  1.00  0.00    -0.289 N 
HETATM   12  H8  UNL     1      25.951   0.703  50.917  1.00  0.00     0.188 HD
BRANCH  11  13
HETATM   13  C6  UNL     1      25.903   0.674  52.922  1.00  0.00     0.100 A 
HETATM   14  C3  UNL     1      27.017   0.505  53.715  1.00  0.00     0.151 A 
HETATM   15  N1  UNL     1      26.722  -0.221  54.806  1.00  0.00    -0.167 NA
HETATM   16  N2  UNL     1      25.437  -0.545  54.766  1.00  0.00    -0.282 N 
HETATM   17  C4  UNL     1      24.614  -1.321  55.700  1.00  0.00     0.179 C 
HETATM   18  C5  UNL     1      24.915  -0.017  53.639  1.00  0.00     0.145 A 
BRANCH  14  19
HETATM   19  C2  UNL     1      28.329   1.036  53.388  1.00  0.00     0.178 C 
HETATM   20  C1  UNL     1      29.553   0.254  53.704  1.00  0.00     0.099 C 
HETATM   21  O1  UNL     1      28.552   2.142  52.837  1.00  0.00    -0.291 OA
ENDBRANCH  14  19
ENDBRANCH  11  13
ENDBRANCH   1  11
BRANCH  10  22
HETATM   22  C13 UNL     1      24.205   5.828  48.366  1.00  0.00     0.072 C 
HETATM   23  C14 UNL     1      23.324   4.663  48.318  1.00  0.00     0.279 C 
HETATM   24  N6  UNL     1      22.159   4.802  47.470  1.00  0.00     0.086 N 
HETATM   25  C15 UNL     1      22.227   5.871  46.521  1.00  0.00     0.300 C 
HETATM   26  H15 UNL     1      21.264   4.748  47.990  1.00  0.00     0.315 HD
HETATM   27  C16 UNL     1      21.595   7.084  47.205  1.00  0.00     0.145 C 
HETATM   28  C17 UNL     1      20.094   6.942  47.266  1.00  0.00     0.041 C 
HETATM   29  O3  UNL     1      22.164   7.113  48.488  1.00  0.00    -0.384 OA
HETATM   30  C18 UNL     1      23.544   7.168  48.304  1.00  0.00     0.177 C 
ENDBRANCH  10  22
TORSDOF 4
ENDMDL
MODEL 8
REMARK VINA RESULT:      -7.5      3.072      7.381
REMARK  4 active torsions:
REMARK  status: ('A' for Active; 'I' for Inactive)
REMARK    1  A    between atoms: C2_2  and  C3_4 
REMARK    2  A    between atoms: C6_9  and  N3_10 
REMARK    3  A    between atoms: N3_10  and  N4_11 
REMARK    4  A    between atoms: C12_20  and  C13_21 
ROOT
HETATM    1  N4  UNL     1      22.350   3.824  51.876  1.00  0.00    -0.247 N 
HETATM    2  C7  UNL     1      21.679   2.732  52.281  1.00  0.00     0.143 A 
HETATM    3  C8  UNL     1      22.559   1.676  52.190  1.00  0.00     0.064 A 
HETATM    4 CL1  UNL     1      21.995   0.071  52.606  1.00  0.00    -0.082 Cl
HETATM    5  C9  UNL     1      23.803   2.048  51.734  1.00  0.00     0.043 A 
HETATM    6  C10 UNL     1      23.585   3.408  51.559  1.00  0.00     0.161 A 
HETATM    7  N5  UNL     1      24.607   4.225  50.970  1.00  0.00    -0.217 NA
HETATM    8  C11 UNL     1      25.676   3.604  50.628  1.00  0.00     0.254 C 
HETATM    9  O2  UNL     1      25.968   2.273  50.744  1.00  0.00    -0.334 OA
HETATM   10  C12 UNL     1      25.112   1.408  51.494  1.00  0.00     0.176 C 
ENDROOT
BRANCH   1  11
HETATM   11  N3  UNL     1      21.821   5.117  51.807  1.00  0.00    -0.289 N 
HETATM   12  H8  UNL     1      21.748   5.694  52.673  1.00  0.00     0.188 HD
BRANCH  11  13
HETATM   13  C6  UNL     1      21.331   5.856  50.718  1.00  0.00     0.100 A 
HETATM   14  C3  UNL     1      21.806   6.933  50.002  1.00  0.00     0.151 A 
HETATM   15  N1  UNL     1      20.943   7.282  49.034  1.00  0.00    -0.167 NA
HETATM   16  N2  UNL     1      19.899   6.466  49.081  1.00  0.00    -0.282 N 
HETATM   17  C4  UNL     1      18.686   6.411  48.258  1.00  0.00     0.179 C 
HETATM   18  C5  UNL     1      20.106   5.593  50.090  1.00  0.00     0.145 A 
BRANCH  14  19
HETATM   19  C2  UNL     1      23.068   7.597  50.283  1.00  0.00     0.178 C 
HETATM   20  C1  UNL     1      23.626   8.583  49.320  1.00  0.00     0.099 C 
HETATM   21  O1  UNL     1      23.774   7.420  51.306  1.00  0.00    -0.291 OA
ENDBRANCH  14  19
ENDBRANCH  11  13
ENDBRANCH   1  11
BRANCH  10  22
HETATM   22  C13 UNL     1      25.891   1.118  52.787  1.00  0.00     0.072 C 
HETATM   23  C14 UNL     1      25.642  -0.234  53.285  1.00  0.00     0.279 C 
HETATM   24  N6  UNL     1      26.612  -0.731  54.238  1.00  0.00     0.086 N 
HETATM   25  C15 UNL     1      27.434   0.272  54.842  1.00  0.00     0.300 C 
HETATM   26  H15 UNL     1      27.130  -1.562  53.900  1.00  0.00     0.315 HD
HETATM   27  C16 UNL     1      28.684   0.378  53.966  1.00  0.00     0.145 C 
HETATM   28  C17 UNL     1      29.591  -0.808  54.184  1.00  0.00     0.041 C 
HETATM   29  O3  UNL     1      28.200   0.423  52.649  1.00  0.00    -0.384 OA
HETATM   30  C18 UNL     1      27.322   1.504  52.591  1.00  0.00     0.177 C 
ENDBRANCH  10  22
TORSDOF 4
ENDMDL
MODEL 9
REMARK VINA RESULT:      -7.4      1.628      2.343
REMARK  4 active torsions:
REMARK  status: ('A' for Active; 'I' for Inactive)
REMARK    1  A    between atoms: C2_2  and  C3_4 
REMARK    2  A    between atoms: C6_9  and  N3_10 
REMARK    3  A    between atoms: N3_10  and  N4_11 
REMARK    4  A    between atoms: C12_20  and  C13_21 
ROOT
HETATM    1  N4  UNL     1      24.806   4.232  51.027  1.00  0.00    -0.247 N 
HETATM    2  C7  UNL     1      25.997   3.857  50.530  1.00  0.00     0.143 A 
HETATM    3  C8  UNL     1      26.259   4.695  49.468  1.00  0.00     0.064 A 
HETATM    4 CL1  UNL     1      27.731   4.458  48.550  1.00  0.00    -0.082 Cl
HETATM    5  C9  UNL     1      25.263   5.621  49.252  1.00  0.00     0.043 A 
HETATM    6  C10 UNL     1      24.390   5.259  50.270  1.00  0.00     0.161 A 
HETATM    7  N5  UNL     1      23.110   5.898  50.375  1.00  0.00    -0.217 NA
HETATM    8  C11 UNL     1      22.861   6.777  49.474  1.00  0.00     0.254 C 
HETATM    9  O2  UNL     1      23.648   7.181  48.431  1.00  0.00    -0.334 OA
HETATM   10  C12 UNL     1      25.012   6.762  48.349  1.00  0.00     0.176 C 
ENDROOT
BRANCH   1  11
HETATM   11  N3  UNL     1      24.161   3.634  52.115  1.00  0.00    -0.289 N 
HETATM   12  H8  UNL     1      23.661   4.228  52.811  1.00  0.00     0.188 HD
BRANCH  11  13
HETATM   13  C6  UNL     1      24.040   2.285  52.488  1.00  0.00     0.100 A 
HETATM   14  C3  UNL     1      23.098   1.309  52.250  1.00  0.00     0.151 A 
HETATM   15  N1  UNL     1      23.444   0.155  52.844  1.00  0.00    -0.167 NA
HETATM   16  N2  UNL     1      24.597   0.332  53.475  1.00  0.00    -0.282 N 
HETATM   17  C4  UNL     1      25.406  -0.596  54.272  1.00  0.00     0.179 C 
HETATM   18  C5  UNL     1      24.981   1.611  53.278  1.00  0.00     0.145 A 
BRANCH  14  19
HETATM   19  C2  UNL     1      21.890   1.524  51.471  1.00  0.00     0.178 C 
HETATM   20  C1  UNL     1      21.207   0.377  50.817  1.00  0.00     0.099 C 
HETATM   21  O1  UNL     1      21.331   2.632  51.281  1.00  0.00    -0.291 OA
ENDBRANCH  14  19
ENDBRANCH  11  13
ENDBRANCH   1  11
BRANCH  10  22
HETATM   22  C13 UNL     1      25.825   8.014  48.714  1.00  0.00     0.072 C 
HETATM   23  C14 UNL     1      26.168   8.050  50.134  1.00  0.00     0.279 C 
HETATM   24  N6  UNL     1      27.247   8.949  50.488  1.00  0.00     0.086 N 
HETATM   25  C15 UNL     1      27.557   9.938  49.501  1.00  0.00     0.300 C 
HETATM   26  H15 UNL     1      28.073   8.465  50.881  1.00  0.00     0.315 HD
HETATM   27  C16 UNL     1      28.653   9.330  48.624  1.00  0.00     0.145 C 
HETATM   28  C17 UNL     1      29.976   9.324  49.350  1.00  0.00     0.041 C 
HETATM   29  O3  UNL     1      28.211   8.027  48.344  1.00  0.00    -0.384 OA
HETATM   30  C18 UNL     1      26.958   8.157  47.749  1.00  0.00     0.177 C 
ENDBRANCH  10  22
TORSDOF 4
ENDMDL
