MODEL 1
REMARK VINA RESULT:      -9.4      0.000      0.000
REMARK  2 active torsions:
REMARK  status: ('A' for Active; 'I' for Inactive)
REMARK    1  A    between atoms: C4_6  and  N2_8 
REMARK    2  A    between atoms: N2_8  and  C5_9 
ROOT
HETATM    1  C1  UNL     1      27.997   2.241  53.491  1.00  0.00     0.111 C 
HETATM    2  N1  UNL     1      26.855   1.282  53.339  1.00  0.00    -0.306 N 
HETATM    3  C2  UNL     1      26.777   0.912  51.981  1.00  0.00     0.169 C 
HETATM    4  S1  UNL     1      26.113   2.092  50.719  1.00  0.00    -0.084 SA
HETATM    5  C3  UNL     1      24.254   2.510  51.254  1.00  0.00     0.246 A 
HETATM    6  C4  UNL     1      24.179   3.876  51.564  1.00  0.00     0.192 A 
HETATM    7  O1  UNL     1      23.405   3.427  50.623  1.00  0.00    -0.283 OA
HETATM    8  C11 UNL     1      24.614   1.654  52.354  1.00  0.00    -0.036 C 
HETATM    9  C12 UNL     1      24.884   1.042  53.121  1.00  0.00    -0.090 C 
HETATM   10  C13 UNL     1      25.223   0.280  54.036  1.00  0.00     0.107 A 
HETATM   11  C14 UNL     1      25.751  -0.398  54.903  1.00  0.00    -0.070 A 
HETATM   12  C15 UNL     1      24.712  -1.192  55.498  1.00  0.00     0.059 C 
HETATM   13  C16 UNL     1      23.296  -1.143  55.181  1.00  0.00     0.179 C 
HETATM   14  O2  UNL     1      22.470  -1.194  54.067  1.00  0.00    -0.351 OA
HETATM   15  C17 UNL     1      22.343  -0.240  53.093  1.00  0.00     0.070 A 
HETATM   16  C18 UNL     1      21.032   0.287  53.375  1.00  0.00     0.037 A 
HETATM   17  C19 UNL     1      20.363   1.324  52.671  1.00  0.00     0.005 A 
HETATM   18  C20 UNL     1      20.971   1.959  51.570  1.00  0.00     0.024 A 
HETATM   19  C21 UNL     1      22.264   1.586  51.135  1.00  0.00     0.015 A 
HETATM   20  C22 UNL     1      22.414   0.628  52.089  1.00  0.00     0.060 A 
HETATM   21  N3  UNL     1      23.397   1.904  50.236  1.00  0.00    -0.239 NA
HETATM   22  C23 UNL     1      26.941   0.331  54.421  1.00  0.00     0.125 A 
HETATM   23  H21 UNL     1      22.685   1.487  49.717  1.00  0.00     0.132 HD
ENDROOT
BRANCH   6  24
HETATM   24  N2  UNL     1      24.188   5.235  51.960  1.00  0.00    -0.335 N 
HETATM   25  H6  UNL     1      24.539   4.875  52.903  1.00  0.00     0.168 HD
BRANCH  24  26
HETATM   26  C5  UNL     1      23.826   6.373  51.189  1.00  0.00     0.033 A 
HETATM   27  C6  UNL     1      22.534   6.756  50.900  1.00  0.00     0.029 A 
HETATM   28  C7  UNL     1      22.332   7.886  50.133  1.00  0.00     0.002 A 
HETATM   29  C8  UNL     1      23.449   8.562  49.703  1.00  0.00     0.000 A 
HETATM   30  C9  UNL     1      24.753   8.212  49.969  1.00  0.00     0.002 A 
HETATM   31  C10 UNL     1      24.937   7.084  50.735  1.00  0.00     0.029 A 
ENDBRANCH  24  26
ENDBRANCH   6  24
TORSDOF 2
ENDMDL
MODEL 2
REMARK VINA RESULT:      -9.1      2.528      5.060
REMARK  2 active torsions:
REMARK  status: ('A' for Active; 'I' for Inactive)
REMARK    1  A    between atoms: C4_6  and  N2_8 
REMARK    2  A    between atoms: N2_8  and  C5_9 
ROOT
HETATM    1  C1  UNL     1      20.643   5.007  48.606  1.00  0.00     0.111 C 
HETATM    2  N1  UNL     1      20.580   4.130  49.820  1.00  0.00    -0.306 N 
HETATM    3  C2  UNL     1      20.851   4.931  50.948  1.00  0.00     0.169 C 
HETATM    4  S1  UNL     1      22.574   5.507  51.304  1.00  0.00    -0.084 SA
HETATM    5  C3  UNL     1      23.680   3.882  51.539  1.00  0.00     0.246 A 
HETATM    6  C4  UNL     1      24.639   3.847  50.516  1.00  0.00     0.192 A 
HETATM    7  O1  UNL     1      25.065   3.854  51.743  1.00  0.00    -0.283 OA
HETATM    8  C11 UNL     1      22.425   3.252  51.219  1.00  0.00    -0.036 C 
HETATM    9  C12 UNL     1      21.529   2.824  50.997  1.00  0.00    -0.090 C 
HETATM   10  C13 UNL     1      20.427   2.320  50.744  1.00  0.00     0.107 A 
HETATM   11  C14 UNL     1      19.305   1.999  50.384  1.00  0.00    -0.070 A 
HETATM   12  C15 UNL     1      19.032   0.719  50.975  1.00  0.00     0.059 C 
HETATM   13  C16 UNL     1      19.941  -0.075  51.782  1.00  0.00     0.179 C 
HETATM   14  O2  UNL     1      20.761   0.078  52.892  1.00  0.00    -0.351 OA
HETATM   15  C17 UNL     1      21.919   0.805  52.965  1.00  0.00     0.070 A 
HETATM   16  C18 UNL     1      22.910  -0.236  53.045  1.00  0.00     0.037 A 
HETATM   17  C19 UNL     1      24.317  -0.066  53.139  1.00  0.00     0.005 A 
HETATM   18  C20 UNL     1      24.889   1.221  53.163  1.00  0.00     0.024 A 
HETATM   19  C21 UNL     1      24.082   2.381  53.091  1.00  0.00     0.015 A 
HETATM   20  C22 UNL     1      22.916   1.682  53.023  1.00  0.00     0.060 A 
HETATM   21  N3  UNL     1      24.058   3.854  52.951  1.00  0.00    -0.239 NA
HETATM   22  C23 UNL     1      19.406   3.301  49.695  1.00  0.00     0.125 A 
HETATM   23  H21 UNL     1      24.316   3.625  53.862  1.00  0.00     0.132 HD
ENDROOT
BRANCH   6  24
HETATM   24  N2  UNL     1      25.516   3.814  49.406  1.00  0.00    -0.335 N 
HETATM   25  H6  UNL     1      25.157   2.820  49.254  1.00  0.00     0.168 HD
BRANCH  24  26
HETATM   26  C5  UNL     1      26.383   4.842  48.945  1.00  0.00     0.033 A 
HETATM   27  C6  UNL     1      27.733   4.696  48.712  1.00  0.00     0.029 A 
HETATM   28  C7  UNL     1      28.454   5.787  48.267  1.00  0.00     0.002 A 
HETATM   29  C8  UNL     1      27.765   6.962  48.085  1.00  0.00     0.000 A 
HETATM   30  C9  UNL     1      26.420   7.149  48.306  1.00  0.00     0.002 A 
HETATM   31  C10 UNL     1      25.716   6.052  48.749  1.00  0.00     0.029 A 
ENDBRANCH  24  26
ENDBRANCH   6  24
TORSDOF 2
ENDMDL
MODEL 3
REMARK VINA RESULT:      -9.1      2.811      4.986
REMARK  2 active torsions:
REMARK  status: ('A' for Active; 'I' for Inactive)
REMARK    1  A    between atoms: C4_6  and  N2_8 
REMARK    2  A    between atoms: N2_8  and  C5_9 
ROOT
HETATM    1  C1  UNL     1      19.145   2.090  51.345  1.00  0.00     0.111 C 
HETATM    2  N1  UNL     1      20.332   1.835  52.225  1.00  0.00    -0.306 N 
HETATM    3  C2  UNL     1      20.809   3.081  52.680  1.00  0.00     0.169 C 
HETATM    4  S1  UNL     1      21.740   4.207  51.543  1.00  0.00    -0.084 SA
HETATM    5  C3  UNL     1      23.348   3.215  50.952  1.00  0.00     0.246 A 
HETATM    6  C4  UNL     1      23.260   3.015  49.567  1.00  0.00     0.192 A 
HETATM    7  O1  UNL     1      24.292   3.662  50.019  1.00  0.00    -0.283 OA
HETATM    8  C11 UNL     1      22.737   2.188  51.756  1.00  0.00    -0.036 C 
HETATM    9  C12 UNL     1      22.294   1.476  52.332  1.00  0.00    -0.090 C 
HETATM   10  C13 UNL     1      21.751   0.629  53.052  1.00  0.00     0.107 A 
HETATM   11  C14 UNL     1      21.035  -0.113  53.707  1.00  0.00    -0.070 A 
HETATM   12  C15 UNL     1      21.903  -1.039  54.379  1.00  0.00     0.059 C 
HETATM   13  C16 UNL     1      23.347  -1.125  54.247  1.00  0.00     0.179 C 
HETATM   14  O2  UNL     1      24.456  -0.292  54.312  1.00  0.00    -0.351 OA
HETATM   15  C17 UNL     1      24.803   0.686  53.420  1.00  0.00     0.070 A 
HETATM   16  C18 UNL     1      25.951   0.099  52.778  1.00  0.00     0.037 A 
HETATM   17  C19 UNL     1      26.736   0.677  51.745  1.00  0.00     0.005 A 
HETATM   18  C20 UNL     1      26.432   1.954  51.234  1.00  0.00     0.024 A 
HETATM   19  C21 UNL     1      25.336   2.697  51.731  1.00  0.00     0.015 A 
HETATM   20  C22 UNL     1      24.973   1.742  52.631  1.00  0.00     0.060 A 
HETATM   21  N3  UNL     1      24.488   3.899  51.561  1.00  0.00    -0.239 NA
HETATM   22  C23 UNL     1      19.993   0.742  53.104  1.00  0.00     0.125 A 
HETATM   23  H21 UNL     1      25.339   4.162  51.958  1.00  0.00     0.132 HD
ENDROOT
BRANCH   6  24
HETATM   24  N2  UNL     1      23.069   2.757  48.188  1.00  0.00    -0.335 N 
HETATM   25  H6  UNL     1      24.032   2.297  48.223  1.00  0.00     0.168 HD
BRANCH  24  26
HETATM   26  C5  UNL     1      21.948   3.095  47.382  1.00  0.00     0.033 A 
HETATM   27  C6  UNL     1      22.016   3.608  46.105  1.00  0.00     0.029 A 
HETATM   28  C7  UNL     1      20.841   3.895  45.439  1.00  0.00     0.002 A 
HETATM   29  C8  UNL     1      19.665   3.646  46.107  1.00  0.00     0.000 A 
HETATM   30  C9  UNL     1      19.554   3.135  47.380  1.00  0.00     0.002 A 
HETATM   31  C10 UNL     1      20.735   2.855  48.028  1.00  0.00     0.029 A 
ENDBRANCH  24  26
ENDBRANCH   6  24
TORSDOF 2
ENDMDL
MODEL 4
REMARK VINA RESULT:      -8.8      2.575      6.563
REMARK  2 active torsions:
REMARK  status: ('A' for Active; 'I' for Inactive)
REMARK    1  A    between atoms: C4_6  and  N2_8 
REMARK    2  A    between atoms: N2_8  and  C5_9 
ROOT
HETATM    1  C1  UNL     1      25.137   6.793  48.482  1.00  0.00     0.111 C 
HETATM    2  N1  UNL     1      23.828   6.083  48.658  1.00  0.00    -0.306 N 
HETATM    3  C2  UNL     1      23.255   6.524  49.868  1.00  0.00     0.169 C 
HETATM    4  S1  UNL     1      23.926   5.946  51.494  1.00  0.00    -0.084 SA
HETATM    5  C3  UNL     1      23.744   3.975  51.516  1.00  0.00     0.246 A 
HETATM    6  C4  UNL     1      25.028   3.412  51.567  1.00  0.00     0.192 A 
HETATM    7  O1  UNL     1      24.201   3.119  52.525  1.00  0.00    -0.283 OA
HETATM    8  C11 UNL     1      23.242   4.229  50.190  1.00  0.00    -0.036 C 
HETATM    9  C12 UNL     1      22.885   4.428  49.258  1.00  0.00    -0.090 C 
HETATM   10  C13 UNL     1      22.436   4.690  48.135  1.00  0.00     0.107 A 
HETATM   11  C14 UNL     1      22.123   5.114  47.033  1.00  0.00    -0.070 A 
HETATM   12  C15 UNL     1      21.115   4.228  46.521  1.00  0.00     0.059 C 
HETATM   13  C16 UNL     1      20.618   3.020  47.156  1.00  0.00     0.179 C 
HETATM   14  O2  UNL     1      20.116   2.615  48.385  1.00  0.00    -0.351 OA
HETATM   15  C17 UNL     1      20.808   2.506  49.561  1.00  0.00     0.070 A 
HETATM   16  C18 UNL     1      20.880   1.076  49.722  1.00  0.00     0.037 A 
HETATM   17  C19 UNL     1      21.500   0.371  50.788  1.00  0.00     0.005 A 
HETATM   18  C20 UNL     1      22.135   1.061  51.839  1.00  0.00     0.024 A 
HETATM   19  C21 UNL     1      22.176   2.475  51.863  1.00  0.00     0.015 A 
HETATM   20  C22 UNL     1      21.485   2.612  50.699  1.00  0.00     0.060 A 
HETATM   21  N3  UNL     1      22.731   3.676  52.528  1.00  0.00    -0.239 NA
HETATM   22  C23 UNL     1      23.141   6.123  47.390  1.00  0.00     0.125 A 
HETATM   23  H21 UNL     1      22.020   3.306  53.081  1.00  0.00     0.132 HD
ENDROOT
BRANCH   6  24
HETATM   24  N2  UNL     1      26.347   2.902  51.516  1.00  0.00    -0.335 N 
HETATM   25  H6  UNL     1      26.566   3.751  50.906  1.00  0.00     0.168 HD
BRANCH  24  26
HETATM   26  C5  UNL     1      26.854   1.725  52.131  1.00  0.00     0.033 A 
HETATM   27  C6  UNL     1      26.380   0.450  51.914  1.00  0.00     0.029 A 
HETATM   28  C7  UNL     1      26.968  -0.603  52.587  1.00  0.00     0.002 A 
HETATM   29  C8  UNL     1      28.002  -0.302  53.441  1.00  0.00     0.000 A 
HETATM   30  C9  UNL     1      28.504   0.956  53.686  1.00  0.00     0.002 A 
HETATM   31  C10 UNL     1      27.907   1.993  53.007  1.00  0.00     0.029 A 
ENDBRANCH  24  26
ENDBRANCH   6  24
TORSDOF 2
ENDMDL
MODEL 5
REMARK VINA RESULT:      -8.4      3.397      6.255
REMARK  2 active torsions:
REMARK  status: ('A' for Active; 'I' for Inactive)
REMARK    1  A    between atoms: C4_6  and  N2_8 
REMARK    2  A    between atoms: N2_8  and  C5_9 
ROOT
HETATM    1  C1  UNL     1      22.915   7.911  46.846  1.00  0.00     0.111 C 
HETATM    2  N1  UNL     1      22.405   6.661  47.499  1.00  0.00    -0.306 N 
HETATM    3  C2  UNL     1      21.538   7.040  48.544  1.00  0.00     0.169 C 
HETATM    4  S1  UNL     1      22.211   7.735  50.122  1.00  0.00    -0.084 SA
HETATM    5  C3  UNL     1      23.389   6.347  50.898  1.00  0.00     0.246 A 
HETATM    6  C4  UNL     1      24.700   6.844  50.924  1.00  0.00     0.192 A 
HETATM    7  O1  UNL     1      24.168   6.483  52.054  1.00  0.00    -0.283 OA
HETATM    8  C11 UNL     1      23.019   5.669  49.683  1.00  0.00    -0.036 C 
HETATM    9  C12 UNL     1      22.741   5.203  48.822  1.00  0.00    -0.090 C 
HETATM   10  C13 UNL     1      22.378   4.643  47.780  1.00  0.00     0.107 A 
HETATM   11  C14 UNL     1      22.005   4.286  46.673  1.00  0.00    -0.070 A 
HETATM   12  C15 UNL     1      21.921   2.852  46.708  1.00  0.00     0.059 C 
HETATM   13  C16 UNL     1      22.281   1.990  47.819  1.00  0.00     0.179 C 
HETATM   14  O2  UNL     1      22.028   1.874  49.180  1.00  0.00    -0.351 OA
HETATM   15  C17 UNL     1      22.461   2.712  50.171  1.00  0.00     0.070 A 
HETATM   16  C18 UNL     1      23.447   1.896  50.831  1.00  0.00     0.037 A 
HETATM   17  C19 UNL     1      24.238   2.258  51.953  1.00  0.00     0.005 A 
HETATM   18  C20 UNL     1      24.111   3.529  52.547  1.00  0.00     0.024 A 
HETATM   19  C21 UNL     1      23.195   4.482  52.043  1.00  0.00     0.015 A 
HETATM   20  C22 UNL     1      22.743   3.666  51.052  1.00  0.00     0.060 A 
HETATM   21  N3  UNL     1      22.717   5.882  52.111  1.00  0.00    -0.239 NA
HETATM   22  C23 UNL     1      22.034   5.745  46.448  1.00  0.00     0.125 A 
HETATM   23  H21 UNL     1      22.372   5.389  52.878  1.00  0.00     0.132 HD
ENDROOT
BRANCH   6  24
HETATM   24  N2  UNL     1      26.016   7.359  50.833  1.00  0.00    -0.335 N 
HETATM   25  H6  UNL     1      26.105   7.095  51.864  1.00  0.00     0.168 HD
BRANCH  24  26
HETATM   26  C5  UNL     1      26.657   7.922  49.696  1.00  0.00     0.033 A 
HETATM   27  C6  UNL     1      27.553   8.969  49.729  1.00  0.00     0.029 A 
HETATM   28  C7  UNL     1      28.097   9.417  48.542  1.00  0.00     0.002 A 
HETATM   29  C8  UNL     1      27.701   8.779  47.390  1.00  0.00     0.000 A 
HETATM   30  C9  UNL     1      26.811   7.733  47.315  1.00  0.00     0.002 A 
HETATM   31  C10 UNL     1      26.279   7.298  48.507  1.00  0.00     0.029 A 
ENDBRANCH  24  26
ENDBRANCH   6  24
TORSDOF 2
ENDMDL
MODEL 6
REMARK VINA RESULT:      -8.3      8.464     11.797
REMARK  2 active torsions:
REMARK  status: ('A' for Active; 'I' for Inactive)
REMARK    1  A    between atoms: C4_6  and  N2_8 
REMARK    2  A    between atoms: N2_8  and  C5_9 
ROOT
HETATM    1  C1  UNL     1      31.529   3.300  46.683  1.00  0.00     0.111 C 
HETATM    2  N1  UNL     1      32.474   4.438  46.433  1.00  0.00    -0.306 N 
HETATM    3  C2  UNL     1      33.024   4.824  47.672  1.00  0.00     0.169 C 
HETATM    4  S1  UNL     1      32.014   5.774  48.898  1.00  0.00    -0.084 SA
HETATM    5  C3  UNL     1      31.483   7.462  48.012  1.00  0.00     0.246 A 
HETATM    6  C4  UNL     1      30.086   7.475  47.885  1.00  0.00     0.192 A 
HETATM    7  O1  UNL     1      30.641   8.443  48.551  1.00  0.00    -0.283 OA
HETATM    8  C11 UNL     1      32.188   6.849  46.917  1.00  0.00    -0.036 C 
HETATM    9  C12 UNL     1      32.696   6.404  46.156  1.00  0.00    -0.090 C 
HETATM   10  C13 UNL     1      33.332   5.855  45.247  1.00  0.00     0.107 A 
HETATM   11  C14 UNL     1      33.897   5.134  44.439  1.00  0.00    -0.070 A 
HETATM   12  C15 UNL     1      34.578   5.999  43.517  1.00  0.00     0.059 C 
HETATM   13  C16 UNL     1      34.540   7.451  43.502  1.00  0.00     0.179 C 
HETATM   14  O2  UNL     1      34.724   8.512  44.378  1.00  0.00    -0.351 OA
HETATM   15  C17 UNL     1      33.910   8.870  45.419  1.00  0.00     0.070 A 
HETATM   16  C18 UNL     1      33.318  10.085  44.919  1.00  0.00     0.037 A 
HETATM   17  C19 UNL     1      32.373  10.908  45.586  1.00  0.00     0.005 A 
HETATM   18  C20 UNL     1      31.909  10.577  46.875  1.00  0.00     0.024 A 
HETATM   19  C21 UNL     1      32.368   9.416  47.540  1.00  0.00     0.015 A 
HETATM   20  C22 UNL     1      33.190   9.041  46.523  1.00  0.00     0.060 A 
HETATM   21  N3  UNL     1      32.202   8.526  48.711  1.00  0.00    -0.239 NA
HETATM   22  C23 UNL     1      33.269   4.094  45.280  1.00  0.00     0.125 A 
HETATM   23  H21 UNL     1      32.669   9.335  48.989  1.00  0.00     0.132 HD
ENDROOT
BRANCH   6  24
HETATM   24  N2  UNL     1      28.686   7.387  47.695  1.00  0.00    -0.335 N 
HETATM   25  H6  UNL     1      28.794   8.264  47.093  1.00  0.00     0.168 HD
BRANCH  24  26
HETATM   26  C5  UNL     1      27.791   6.416  48.219  1.00  0.00     0.033 A 
HETATM   27  C6  UNL     1      28.126   5.116  48.532  1.00  0.00     0.029 A 
HETATM   28  C7  UNL     1      27.148   4.279  49.032  1.00  0.00     0.002 A 
HETATM   29  C8  UNL     1      25.888   4.807  49.185  1.00  0.00     0.000 A 
HETATM   30  C9  UNL     1      25.514   6.096  48.885  1.00  0.00     0.002 A 
HETATM   31  C10 UNL     1      26.500   6.917  48.388  1.00  0.00     0.029 A 
ENDBRANCH  24  26
ENDBRANCH   6  24
TORSDOF 2
ENDMDL
MODEL 7
REMARK VINA RESULT:      -8.3      1.690      2.542
REMARK  2 active torsions:
REMARK  status: ('A' for Active; 'I' for Inactive)
REMARK    1  A    between atoms: C4_6  and  N2_8 
REMARK    2  A    between atoms: N2_8  and  C5_9 
ROOT
HETATM    1  C1  UNL     1      26.029   4.501  49.932  1.00  0.00     0.111 C 
HETATM    2  N1  UNL     1      25.653   3.157  50.478  1.00  0.00    -0.306 N 
HETATM    3  C2  UNL     1      25.004   2.438  49.453  1.00  0.00     0.169 C 
HETATM    4  S1  UNL     1      23.270   2.858  48.960  1.00  0.00    -0.084 SA
HETATM    5  C3  UNL     1      22.144   2.606  50.568  1.00  0.00     0.246 A 
HETATM    6  C4  UNL     1      21.610   3.850  50.934  1.00  0.00     0.192 A 
HETATM    7  O1  UNL     1      20.776   2.889  50.666  1.00  0.00    -0.283 OA
HETATM    8  C11 UNL     1      23.427   2.301  51.146  1.00  0.00    -0.036 C 
HETATM    9  C12 UNL     1      24.342   2.082  51.535  1.00  0.00    -0.090 C 
HETATM   10  C13 UNL     1      25.459   1.802  51.988  1.00  0.00     0.107 A 
HETATM   11  C14 UNL     1      26.634   1.659  52.289  1.00  0.00    -0.070 A 
HETATM   12  C15 UNL     1      26.673   0.701  53.358  1.00  0.00     0.059 C 
HETATM   13  C16 UNL     1      25.532   0.079  54.007  1.00  0.00     0.179 C 
HETATM   14  O2  UNL     1      24.373  -0.601  53.660  1.00  0.00    -0.351 OA
HETATM   15  C17 UNL     1      23.269  -0.082  53.040  1.00  0.00     0.070 A 
HETATM   16  C18 UNL     1      22.308  -0.082  54.113  1.00  0.00     0.037 A 
HETATM   17  C19 UNL     1      20.960   0.360  54.047  1.00  0.00     0.005 A 
HETATM   18  C20 UNL     1      20.423   0.867  52.848  1.00  0.00     0.024 A 
HETATM   19  C21 UNL     1      21.210   0.954  51.676  1.00  0.00     0.015 A 
HETATM   20  C22 UNL     1      22.320   0.435  52.266  1.00  0.00     0.060 A 
HETATM   21  N3  UNL     1      21.289   1.454  50.284  1.00  0.00    -0.239 NA
HETATM   22  C23 UNL     1      26.791   2.652  51.208  1.00  0.00     0.125 A 
HETATM   23  H21 UNL     1      20.724   0.660  50.306  1.00  0.00     0.132 HD
ENDROOT
BRANCH   6  24
HETATM   24  N2  UNL     1      21.182   5.145  51.312  1.00  0.00    -0.335 N 
HETATM   25  H6  UNL     1      20.615   4.649  52.069  1.00  0.00     0.168 HD
BRANCH  24  26
HETATM   26  C5  UNL     1      21.541   6.390  50.728  1.00  0.00     0.033 A 
HETATM   27  C6  UNL     1      20.665   7.261  50.116  1.00  0.00     0.029 A 
HETATM   28  C7  UNL     1      21.157   8.437  49.587  1.00  0.00     0.002 A 
HETATM   29  C8  UNL     1      22.508   8.663  49.707  1.00  0.00     0.000 A 
HETATM   30  C9  UNL     1      23.414   7.821  50.310  1.00  0.00     0.002 A 
HETATM   31  C10 UNL     1      22.907   6.653  50.832  1.00  0.00     0.029 A 
ENDBRANCH  24  26
ENDBRANCH   6  24
TORSDOF 2
ENDMDL
MODEL 8
REMARK VINA RESULT:      -8.2      3.026      6.581
REMARK  2 active torsions:
REMARK  status: ('A' for Active; 'I' for Inactive)
REMARK    1  A    between atoms: C4_6  and  N2_8 
REMARK    2  A    between atoms: N2_8  and  C5_9 
ROOT
HETATM    1  C1  UNL     1      24.761   4.406  49.892  1.00  0.00     0.111 C 
HETATM    2  N1  UNL     1      23.289   4.442  49.609  1.00  0.00    -0.306 N 
HETATM    3  C2  UNL     1      22.667   5.171  50.644  1.00  0.00     0.169 C 
HETATM    4  S1  UNL     1      22.450   4.424  52.324  1.00  0.00    -0.084 SA
HETATM    5  C3  UNL     1      21.341   2.802  52.086  1.00  0.00     0.246 A 
HETATM    6  C4  UNL     1      22.109   1.684  52.444  1.00  0.00     0.192 A 
HETATM    7  O1  UNL     1      20.999   1.886  53.089  1.00  0.00    -0.283 OA
HETATM    8  C11 UNL     1      21.450   3.200  50.707  1.00  0.00    -0.036 C 
HETATM    9  C12 UNL     1      21.533   3.499  49.738  1.00  0.00    -0.090 C 
HETATM   10  C13 UNL     1      21.628   3.889  48.567  1.00  0.00     0.107 A 
HETATM   11  C14 UNL     1      21.907   4.353  47.472  1.00  0.00    -0.070 A 
HETATM   12  C15 UNL     1      20.804   4.052  46.602  1.00  0.00     0.059 C 
HETATM   13  C16 UNL     1      19.621   3.280  46.938  1.00  0.00     0.179 C 
HETATM   14  O2  UNL     1      18.642   3.239  47.922  1.00  0.00    -0.351 OA
HETATM   15  C17 UNL     1      18.805   2.866  49.229  1.00  0.00     0.070 A 
HETATM   16  C18 UNL     1      18.125   1.596  49.254  1.00  0.00     0.037 A 
HETATM   17  C19 UNL     1      17.973   0.735  50.372  1.00  0.00     0.005 A 
HETATM   18  C20 UNL     1      18.513   1.078  51.627  1.00  0.00     0.024 A 
HETATM   19  C21 UNL     1      19.223   2.287  51.811  1.00  0.00     0.015 A 
HETATM   20  C22 UNL     1      19.071   2.685  50.518  1.00  0.00     0.060 A 
HETATM   21  N3  UNL     1      20.060   3.093  52.728  1.00  0.00    -0.239 NA
HETATM   22  C23 UNL     1      23.124   4.748  48.209  1.00  0.00     0.125 A 
HETATM   23  H21 UNL     1      19.129   3.150  53.012  1.00  0.00     0.132 HD
ENDROOT
BRANCH   6  24
HETATM   24  N2  UNL     1      22.962   0.589  52.721  1.00  0.00    -0.335 N 
HETATM   25  H6  UNL     1      22.071   0.068  52.995  1.00  0.00     0.168 HD
BRANCH  24  26
HETATM   26  C5  UNL     1      24.376   0.526  52.587  1.00  0.00     0.033 A 
HETATM   27  C6  UNL     1      25.138   1.377  51.815  1.00  0.00     0.029 A 
HETATM   28  C7  UNL     1      26.506   1.193  51.776  1.00  0.00     0.002 A 
HETATM   29  C8  UNL     1      27.022   0.159  52.520  1.00  0.00     0.000 A 
HETATM   30  C9  UNL     1      26.297  -0.711  53.301  1.00  0.00     0.002 A 
HETATM   31  C10 UNL     1      24.936  -0.514  53.329  1.00  0.00     0.029 A 
ENDBRANCH  24  26
ENDBRANCH   6  24
TORSDOF 2
ENDMDL
MODEL 9
REMARK VINA RESULT:      -8.1      9.390     12.008
REMARK  2 active torsions:
REMARK  status: ('A' for Active; 'I' for Inactive)
REMARK    1  A    between atoms: C4_6  and  N2_8 
REMARK    2  A    between atoms: N2_8  and  C5_9 
ROOT
HETATM    1  C1  UNL     1      32.048   7.675  49.323  1.00  0.00     0.111 C 
HETATM    2  N1  UNL     1      32.999   7.103  48.314  1.00  0.00    -0.306 N 
HETATM    3  C2  UNL     1      33.740   8.168  47.763  1.00  0.00     0.169 C 
HETATM    4  S1  UNL     1      32.961   9.330  46.550  1.00  0.00    -0.084 SA
HETATM    5  C3  UNL     1      32.387   8.237  45.003  1.00  0.00     0.246 A 
HETATM    6  C4  UNL     1      30.989   8.296  44.913  1.00  0.00     0.192 A 
HETATM    7  O1  UNL     1      31.679   8.700  43.888  1.00  0.00    -0.283 OA
HETATM    8  C11 UNL     1      32.899   7.183  45.841  1.00  0.00    -0.036 C 
HETATM    9  C12 UNL     1      33.270   6.453  46.445  1.00  0.00    -0.090 C 
HETATM   10  C13 UNL     1      33.744   5.580  47.183  1.00  0.00     0.107 A 
HETATM   11  C14 UNL     1      34.153   4.845  48.070  1.00  0.00    -0.070 A 
HETATM   12  C15 UNL     1      34.733   3.702  47.423  1.00  0.00     0.059 C 
HETATM   13  C16 UNL     1      34.761   3.433  45.996  1.00  0.00     0.179 C 
HETATM   14  O2  UNL     1      35.118   4.075  44.818  1.00  0.00    -0.351 OA
HETATM   15  C17 UNL     1      34.480   5.134  44.231  1.00  0.00     0.070 A 
HETATM   16  C18 UNL     1      33.880   4.509  43.081  1.00  0.00     0.037 A 
HETATM   17  C19 UNL     1      33.079   5.139  42.091  1.00  0.00     0.005 A 
HETATM   18  C20 UNL     1      32.790   6.516  42.165  1.00  0.00     0.024 A 
HETATM   19  C21 UNL     1      33.286   7.310  43.225  1.00  0.00     0.015 A 
HETATM   20  C22 UNL     1      33.934   6.276  43.825  1.00  0.00     0.060 A 
HETATM   21  N3  UNL     1      33.249   8.633  43.890  1.00  0.00    -0.239 NA
HETATM   22  C23 UNL     1      33.604   5.933  48.904  1.00  0.00     0.125 A 
HETATM   23  H21 UNL     1      33.788   8.698  43.081  1.00  0.00     0.132 HD
ENDROOT
BRANCH   6  24
HETATM   24  N2  UNL     1      29.574   8.313  44.932  1.00  0.00    -0.335 N 
HETATM   25  H6  UNL     1      29.644   8.668  43.927  1.00  0.00     0.168 HD
BRANCH  24  26
HETATM   26  C5  UNL     1      28.709   7.947  45.999  1.00  0.00     0.033 A 
HETATM   27  C6  UNL     1      29.075   7.193  47.093  1.00  0.00     0.029 A 
HETATM   28  C7  UNL     1      28.125   6.910  48.055  1.00  0.00     0.002 A 
HETATM   29  C8  UNL     1      26.859   7.407  47.851  1.00  0.00     0.000 A 
HETATM   30  C9  UNL     1      26.454   8.162  46.775  1.00  0.00     0.002 A 
HETATM   31  C10 UNL     1      27.413   8.435  45.826  1.00  0.00     0.029 A 
ENDBRANCH  24  26
ENDBRANCH   6  24
TORSDOF 2
ENDMDL
