MODEL 1
REMARK VINA RESULT:      -7.0      0.000      0.000
REMARK  7 active torsions:
REMARK  status: ('A' for Active; 'I' for Inactive)
REMARK    1  A    between atoms: C2_2  and  N1_4 
REMARK    2  A    between atoms: C2_2  and  C4_5 
REMARK    3  A    between atoms: C5_6  and  C6_7 
REMARK    4  A    between atoms: C16_17  and  N2_18 
REMARK    5  A    between atoms: N2_18  and  C17_19 
REMARK    6  A    between atoms: C17_19  and  C18_20 
REMARK    7  A    between atoms: C18_20  and  C19_21 
ROOT
HETATM    1  C6  UNL     1      30.671   5.700  47.645  1.00  0.00     0.018 A 
HETATM    2  C7  UNL     1      30.853   6.965  47.141  1.00  0.00     0.023 A 
HETATM    3  C8  UNL     1      29.724   7.754  47.192  1.00  0.00     0.039 A 
HETATM    4  C9  UNL     1      28.434   7.468  47.672  1.00  0.00     0.081 A 
HETATM    5  C10 UNL     1      28.399   6.152  48.150  1.00  0.00    -0.023 A 
HETATM    6  C11 UNL     1      29.458   5.301  48.143  1.00  0.00     0.030 A 
HETATM    7  C12 UNL     1      27.144   5.482  48.726  1.00  0.00     0.045 C 
HETATM    8  C13 UNL     1      26.163   6.663  48.587  1.00  0.00     0.032 C 
HETATM    9  C14 UNL     1      26.691   7.739  49.489  1.00  0.00    -0.024 C 
HETATM   10  C15 UNL     1      27.308   8.927  49.610  1.00  0.00     0.027 C 
HETATM   11  C16 UNL     1      27.901   9.932  48.720  1.00  0.00     0.050 C 
HETATM   12  C20 UNL     1      28.021   9.774  47.371  1.00  0.00     0.171 C 
HETATM   13  O1  UNL     1      27.444   8.502  47.595  1.00  0.00    -0.320 OA
ENDROOT
BRANCH   1  14
HETATM   14  C5  UNL     1      31.780   4.795  47.642  1.00  0.00    -0.064 C 
HETATM   15  C4  UNL     1      32.724   4.052  47.642  1.00  0.00    -0.060 C 
BRANCH  15  16
HETATM   16  C2  UNL     1      33.883   3.158  47.659  1.00  0.00     0.210 C 
HETATM   17  C1  UNL     1      33.378   1.804  48.099  1.00  0.00     0.063 C 
HETATM   18  C3  UNL     1      34.577   3.133  46.321  1.00  0.00     0.063 C 
BRANCH  16  19
HETATM   19  N1  UNL     1      34.841   3.575  48.693  1.00  0.00     0.099 N 
HETATM   20  H7  UNL     1      34.591   3.005  49.543  1.00  0.00     0.315 HD
HETATM   21  H8  UNL     1      35.808   3.317  48.392  1.00  0.00     0.315 HD
ENDBRANCH  16  19
ENDBRANCH  15  16
ENDBRANCH   1  14
BRANCH  11  22
HETATM   22  N2  UNL     1      28.331  11.110  49.461  1.00  0.00    -0.388 N 
HETATM   23  H18 UNL     1      28.142  11.142  50.476  1.00  0.00     0.159 HD
BRANCH  22  24
HETATM   24  C17 UNL     1      28.988  12.089  48.603  1.00  0.00     0.122 C 
BRANCH  24  25
HETATM   25  C18 UNL     1      30.435  12.213  49.012  1.00  0.00     0.051 C 
BRANCH  25  26
HETATM   26  C19 UNL     1      31.319  11.284  48.183  1.00  0.00     0.224 C 
HETATM   27  F1  UNL     1      31.391  10.040  48.762  1.00  0.00    -0.255 F 
ENDBRANCH  25  26
ENDBRANCH  24  25
ENDBRANCH  22  24
ENDBRANCH  11  22
TORSDOF 7
ENDMDL
MODEL 2
REMARK VINA RESULT:      -7.0      6.669      9.477
REMARK  7 active torsions:
REMARK  status: ('A' for Active; 'I' for Inactive)
REMARK    1  A    between atoms: C2_2  and  N1_4 
REMARK    2  A    between atoms: C2_2  and  C4_5 
REMARK    3  A    between atoms: C5_6  and  C6_7 
REMARK    4  A    between atoms: C16_17  and  N2_18 
REMARK    5  A    between atoms: N2_18  and  C17_19 
REMARK    6  A    between atoms: C17_19  and  C18_20 
REMARK    7  A    between atoms: C18_20  and  C19_21 
ROOT
HETATM    1  C6  UNL     1      24.729   3.778  49.776  1.00  0.00     0.018 A 
HETATM    2  C7  UNL     1      23.630   3.495  49.002  1.00  0.00     0.023 A 
HETATM    3  C8  UNL     1      22.846   2.476  49.499  1.00  0.00     0.039 A 
HETATM    4  C9  UNL     1      22.994   1.694  50.658  1.00  0.00     0.081 A 
HETATM    5  C10 UNL     1      24.150   2.093  51.341  1.00  0.00    -0.023 A 
HETATM    6  C11 UNL     1      24.984   3.085  50.930  1.00  0.00     0.030 A 
HETATM    7  C12 UNL     1      24.648   1.443  52.639  1.00  0.00     0.045 C 
HETATM    8  C13 UNL     1      23.532   0.395  52.818  1.00  0.00     0.032 C 
HETATM    9  C14 UNL     1      22.269   1.176  53.028  1.00  0.00    -0.024 C 
HETATM   10  C15 UNL     1      21.092   1.600  52.536  1.00  0.00     0.027 C 
HETATM   11  C16 UNL     1      20.344   1.487  51.278  1.00  0.00     0.050 C 
HETATM   12  C20 UNL     1      20.832   0.886  50.156  1.00  0.00     0.171 C 
HETATM   13  O1  UNL     1      22.005   0.691  50.923  1.00  0.00    -0.320 OA
ENDROOT
BRANCH   1  14
HETATM   14  C5  UNL     1      25.613   4.821  49.354  1.00  0.00    -0.064 C 
HETATM   15  C4  UNL     1      26.360   5.685  48.982  1.00  0.00    -0.060 C 
BRANCH  15  16
HETATM   16  C2  UNL     1      27.262   6.737  48.509  1.00  0.00     0.210 C 
HETATM   17  C1  UNL     1      28.557   6.058  48.130  1.00  0.00     0.063 C 
HETATM   18  C3  UNL     1      26.645   7.523  47.380  1.00  0.00     0.063 C 
BRANCH  16  19
HETATM   19  N1  UNL     1      27.605   7.653  49.606  1.00  0.00     0.099 N 
HETATM   20  H7  UNL     1      27.196   7.211  50.470  1.00  0.00     0.315 HD
HETATM   21  H8  UNL     1      28.645   7.691  49.712  1.00  0.00     0.315 HD
ENDBRANCH  16  19
ENDBRANCH  15  16
ENDBRANCH   1  14
BRANCH  11  22
HETATM   22  N2  UNL     1      19.021   2.088  51.391  1.00  0.00    -0.388 N 
HETATM   23  H18 UNL     1      18.197   1.472  51.299  1.00  0.00     0.159 HD
BRANCH  22  24
HETATM   24  C17 UNL     1      19.091   3.524  51.630  1.00  0.00     0.122 C 
BRANCH  24  25
HETATM   25  C18 UNL     1      19.623   4.205  50.394  1.00  0.00     0.051 C 
BRANCH  25  26
HETATM   26  C19 UNL     1      20.702   5.225  50.753  1.00  0.00     0.224 C 
HETATM   27  F1  UNL     1      21.609   4.681  51.629  1.00  0.00    -0.255 F 
ENDBRANCH  25  26
ENDBRANCH  24  25
ENDBRANCH  22  24
ENDBRANCH  11  22
TORSDOF 7
ENDMDL
MODEL 3
REMARK VINA RESULT:      -7.0      4.801      6.221
REMARK  7 active torsions:
REMARK  status: ('A' for Active; 'I' for Inactive)
REMARK    1  A    between atoms: C2_2  and  N1_4 
REMARK    2  A    between atoms: C2_2  and  C4_5 
REMARK    3  A    between atoms: C5_6  and  C6_7 
REMARK    4  A    between atoms: C16_17  and  N2_18 
REMARK    5  A    between atoms: N2_18  and  C17_19 
REMARK    6  A    between atoms: C17_19  and  C18_20 
REMARK    7  A    between atoms: C18_20  and  C19_21 
ROOT
HETATM    1  C6  UNL     1      25.961   2.456  51.116  1.00  0.00     0.018 A 
HETATM    2  C7  UNL     1      26.725   2.920  50.073  1.00  0.00     0.023 A 
HETATM    3  C8  UNL     1      26.277   4.110  49.540  1.00  0.00     0.039 A 
HETATM    4  C9  UNL     1      25.177   4.910  49.894  1.00  0.00     0.081 A 
HETATM    5  C10 UNL     1      24.497   4.315  50.964  1.00  0.00    -0.023 A 
HETATM    6  C11 UNL     1      24.861   3.147  51.554  1.00  0.00     0.030 A 
HETATM    7  C12 UNL     1      23.225   4.893  51.600  1.00  0.00     0.045 C 
HETATM    8  C13 UNL     1      23.082   6.157  50.730  1.00  0.00     0.032 C 
HETATM    9  C14 UNL     1      24.290   6.994  51.025  1.00  0.00    -0.024 C 
HETATM   10  C15 UNL     1      25.481   7.467  50.618  1.00  0.00     0.027 C 
HETATM   11  C16 UNL     1      26.352   7.333  49.443  1.00  0.00     0.050 C 
HETATM   12  C20 UNL     1      26.094   6.493  48.400  1.00  0.00     0.171 C 
HETATM   13  O1  UNL     1      24.955   6.115  49.149  1.00  0.00    -0.320 OA
ENDROOT
BRANCH   1  14
HETATM   14  C5  UNL     1      26.335   1.227  51.746  1.00  0.00    -0.064 C 
HETATM   15  C4  UNL     1      26.657   0.206  52.291  1.00  0.00    -0.060 C 
BRANCH  15  16
HETATM   16  C2  UNL     1      27.041  -1.031  52.974  1.00  0.00     0.210 C 
HETATM   17  C1  UNL     1      26.668  -2.167  52.053  1.00  0.00     0.063 C 
HETATM   18  C3  UNL     1      28.500  -1.019  53.352  1.00  0.00     0.063 C 
BRANCH  16  19
HETATM   19  N1  UNL     1      26.229  -1.224  54.185  1.00  0.00     0.099 N 
HETATM   20  H7  UNL     1      25.933  -2.234  54.157  1.00  0.00     0.315 HD
HETATM   21  H8  UNL     1      26.828  -1.076  55.029  1.00  0.00     0.315 HD
ENDBRANCH  16  19
ENDBRANCH  15  16
ENDBRANCH   1  14
BRANCH  11  22
HETATM   22  N2  UNL     1      27.508   8.214  49.536  1.00  0.00    -0.388 N 
HETATM   23  H18 UNL     1      27.680   8.697  50.433  1.00  0.00     0.159 HD
BRANCH  22  24
HETATM   24  C17 UNL     1      28.261   8.264  48.290  1.00  0.00     0.122 C 
BRANCH  24  25
HETATM   25  C18 UNL     1      29.626   7.660  48.512  1.00  0.00     0.051 C 
BRANCH  25  26
HETATM   26  C19 UNL     1      29.781   6.356  47.733  1.00  0.00     0.224 C 
HETATM   27  F1  UNL     1      29.177   5.319  48.401  1.00  0.00    -0.255 F 
ENDBRANCH  25  26
ENDBRANCH  24  25
ENDBRANCH  22  24
ENDBRANCH  11  22
TORSDOF 7
ENDMDL
MODEL 4
REMARK VINA RESULT:      -7.0      6.354      9.272
REMARK  7 active torsions:
REMARK  status: ('A' for Active; 'I' for Inactive)
REMARK    1  A    between atoms: C2_2  and  N1_4 
REMARK    2  A    between atoms: C2_2  and  C4_5 
REMARK    3  A    between atoms: C5_6  and  C6_7 
REMARK    4  A    between atoms: C16_17  and  N2_18 
REMARK    5  A    between atoms: N2_18  and  C17_19 
REMARK    6  A    between atoms: C17_19  and  C18_20 
REMARK    7  A    between atoms: C18_20  and  C19_21 
ROOT
HETATM    1  C6  UNL     1      24.427   4.738  49.496  1.00  0.00     0.018 A 
HETATM    2  C7  UNL     1      24.007   4.877  50.797  1.00  0.00     0.023 A 
HETATM    3  C8  UNL     1      22.897   4.122  51.109  1.00  0.00     0.039 A 
HETATM    4  C9  UNL     1      22.141   3.243  50.315  1.00  0.00     0.081 A 
HETATM    5  C10 UNL     1      22.682   3.203  49.024  1.00  0.00    -0.023 A 
HETATM    6  C11 UNL     1      23.771   3.910  48.622  1.00  0.00     0.030 A 
HETATM    7  C12 UNL     1      22.100   2.370  47.874  1.00  0.00     0.045 C 
HETATM    8  C13 UNL     1      20.920   1.725  48.627  1.00  0.00     0.032 C 
HETATM    9  C14 UNL     1      21.536   0.865  49.690  1.00  0.00    -0.024 C 
HETATM   10  C15 UNL     1      21.808   0.677  50.993  1.00  0.00     0.027 C 
HETATM   11  C16 UNL     1      21.602   1.400  52.255  1.00  0.00     0.050 C 
HETATM   12  C20 UNL     1      21.067   2.651  52.333  1.00  0.00     0.171 C 
HETATM   13  O1  UNL     1      21.021   2.584  50.921  1.00  0.00    -0.320 OA
ENDROOT
BRANCH   1  14
HETATM   14  C5  UNL     1      25.572   5.478  49.063  1.00  0.00    -0.064 C 
HETATM   15  C4  UNL     1      26.543   6.096  48.718  1.00  0.00    -0.060 C 
BRANCH  15  16
HETATM   16  C2  UNL     1      27.738   6.835  48.308  1.00  0.00     0.210 C 
HETATM   17  C1  UNL     1      28.851   5.822  48.182  1.00  0.00     0.063 C 
HETATM   18  C3  UNL     1      27.493   7.617  47.042  1.00  0.00     0.063 C 
BRANCH  16  19
HETATM   19  N1  UNL     1      28.165   7.757  49.371  1.00  0.00     0.099 N 
HETATM   20  H7  UNL     1      27.271   8.126  49.788  1.00  0.00     0.315 HD
HETATM   21  H8  UNL     1      28.678   7.220  50.107  1.00  0.00     0.315 HD
ENDBRANCH  16  19
ENDBRANCH  15  16
ENDBRANCH   1  14
BRANCH  11  22
HETATM   22  N2  UNL     1      22.031   0.605  53.398  1.00  0.00    -0.388 N 
HETATM   23  H18 UNL     1      21.454   0.631  54.253  1.00  0.00     0.159 HD
BRANCH  22  24
HETATM   24  C17 UNL     1      23.261  -0.129  53.124  1.00  0.00     0.122 C 
BRANCH  24  25
HETATM   25  C18 UNL     1      24.443   0.762  53.412  1.00  0.00     0.051 C 
BRANCH  25  26
HETATM   26  C19 UNL     1      25.411   0.787  52.233  1.00  0.00     0.224 C 
HETATM   27  F1  UNL     1      24.932   1.594  51.230  1.00  0.00    -0.255 F 
ENDBRANCH  25  26
ENDBRANCH  24  25
ENDBRANCH  22  24
ENDBRANCH  11  22
TORSDOF 7
ENDMDL
MODEL 5
REMARK VINA RESULT:      -6.9      7.940      9.442
REMARK  7 active torsions:
REMARK  status: ('A' for Active; 'I' for Inactive)
REMARK    1  A    between atoms: C2_2  and  N1_4 
REMARK    2  A    between atoms: C2_2  and  C4_5 
REMARK    3  A    between atoms: C5_6  and  C6_7 
REMARK    4  A    between atoms: C16_17  and  N2_18 
REMARK    5  A    between atoms: N2_18  and  C17_19 
REMARK    6  A    between atoms: C17_19  and  C18_20 
REMARK    7  A    between atoms: C18_20  and  C19_21 
ROOT
HETATM    1  C6  UNL     1      24.961   0.792  52.398  1.00  0.00     0.018 A 
HETATM    2  C7  UNL     1      24.784   1.571  51.280  1.00  0.00     0.023 A 
HETATM    3  C8  UNL     1      23.464   1.743  50.924  1.00  0.00     0.039 A 
HETATM    4  C9  UNL     1      22.288   1.254  51.518  1.00  0.00     0.081 A 
HETATM    5  C10 UNL     1      22.622   0.482  52.638  1.00  0.00    -0.023 A 
HETATM    6  C11 UNL     1      23.892   0.255  53.067  1.00  0.00     0.030 A 
HETATM    7  C12 UNL     1      21.595  -0.238  53.522  1.00  0.00     0.045 C 
HETATM    8  C13 UNL     1      20.311   0.196  52.788  1.00  0.00     0.032 C 
HETATM    9  C14 UNL     1      20.238   1.686  52.940  1.00  0.00    -0.024 C 
HETATM   10  C15 UNL     1      20.363   2.899  52.375  1.00  0.00     0.027 C 
HETATM   11  C16 UNL     1      20.730   3.449  51.064  1.00  0.00     0.050 C 
HETATM   12  C20 UNL     1      21.162   2.689  50.018  1.00  0.00     0.171 C 
HETATM   13  O1  UNL     1      21.035   1.604  50.916  1.00  0.00    -0.320 OA
ENDROOT
BRANCH   1  14
HETATM   14  C5  UNL     1      26.293   0.548  52.859  1.00  0.00    -0.064 C 
HETATM   15  C4  UNL     1      27.406   0.350  53.265  1.00  0.00    -0.060 C 
BRANCH  15  16
HETATM   16  C2  UNL     1      28.755   0.101  53.779  1.00  0.00     0.210 C 
HETATM   17  C1  UNL     1      28.669   0.197  55.283  1.00  0.00     0.063 C 
HETATM   18  C3  UNL     1      29.293  -1.220  53.291  1.00  0.00     0.063 C 
BRANCH  16  19
HETATM   19  N1  UNL     1      29.669   1.177  53.368  1.00  0.00     0.099 N 
HETATM   20  H7  UNL     1      30.632   0.754  53.424  1.00  0.00     0.315 HD
HETATM   21  H8  UNL     1      29.475   1.433  52.373  1.00  0.00     0.315 HD
ENDBRANCH  16  19
ENDBRANCH  15  16
ENDBRANCH   1  14
BRANCH  11  22
HETATM   22  N2  UNL     1      20.564   4.896  51.030  1.00  0.00    -0.388 N 
HETATM   23  H18 UNL     1      19.748   5.303  51.514  1.00  0.00     0.159 HD
BRANCH  22  24
HETATM   24  C17 UNL     1      21.630   5.552  50.283  1.00  0.00     0.122 C 
BRANCH  24  25
HETATM   25  C18 UNL     1      22.552   6.252  51.249  1.00  0.00     0.051 C 
BRANCH  25  26
HETATM   26  C19 UNL     1      23.740   5.364  51.614  1.00  0.00     0.224 C 
HETATM   27  F1  UNL     1      23.439   4.574  52.697  1.00  0.00    -0.255 F 
ENDBRANCH  25  26
ENDBRANCH  24  25
ENDBRANCH  22  24
ENDBRANCH  11  22
TORSDOF 7
ENDMDL
MODEL 6
REMARK VINA RESULT:      -6.8      7.378      9.360
REMARK  7 active torsions:
REMARK  status: ('A' for Active; 'I' for Inactive)
REMARK    1  A    between atoms: C2_2  and  N1_4 
REMARK    2  A    between atoms: C2_2  and  C4_5 
REMARK    3  A    between atoms: C5_6  and  C6_7 
REMARK    4  A    between atoms: C16_17  and  N2_18 
REMARK    5  A    between atoms: N2_18  and  C17_19 
REMARK    6  A    between atoms: C17_19  and  C18_20 
REMARK    7  A    between atoms: C18_20  and  C19_21 
ROOT
HETATM    1  C6  UNL     1      25.778   2.284  52.276  1.00  0.00     0.018 A 
HETATM    2  C7  UNL     1      24.676   2.458  53.078  1.00  0.00     0.023 A 
HETATM    3  C8  UNL     1      23.704   3.262  52.523  1.00  0.00     0.039 A 
HETATM    4  C9  UNL     1      23.665   3.921  51.282  1.00  0.00     0.081 A 
HETATM    5  C10 UNL     1      24.847   3.654  50.579  1.00  0.00    -0.023 A 
HETATM    6  C11 UNL     1      25.860   2.875  51.042  1.00  0.00     0.030 A 
HETATM    7  C12 UNL     1      25.171   4.229  49.193  1.00  0.00     0.045 C 
HETATM    8  C13 UNL     1      23.879   5.040  48.970  1.00  0.00     0.032 C 
HETATM    9  C14 UNL     1      22.770   4.033  48.916  1.00  0.00    -0.024 C 
HETATM   10  C15 UNL     1      21.707   3.470  49.517  1.00  0.00     0.027 C 
HETATM   11  C16 UNL     1      20.999   3.593  50.798  1.00  0.00     0.050 C 
HETATM   12  C20 UNL     1      21.415   4.394  51.820  1.00  0.00     0.171 C 
HETATM   13  O1  UNL     1      22.503   4.700  50.970  1.00  0.00    -0.320 OA
ENDROOT
BRANCH   1  14
HETATM   14  C5  UNL     1      26.850   1.465  52.753  1.00  0.00    -0.064 C 
HETATM   15  C4  UNL     1      27.748   0.787  53.173  1.00  0.00    -0.060 C 
BRANCH  15  16
HETATM   16  C2  UNL     1      28.832  -0.043  53.703  1.00  0.00     0.210 C 
HETATM   17  C1  UNL     1      28.668  -0.061  55.204  1.00  0.00     0.063 C 
HETATM   18  C3  UNL     1      28.825  -1.417  53.082  1.00  0.00     0.063 C 
BRANCH  16  19
HETATM   19  N1  UNL     1      30.135   0.592  53.458  1.00  0.00     0.099 N 
HETATM   20  H7  UNL     1      30.805  -0.206  53.309  1.00  0.00     0.315 HD
HETATM   21  H8  UNL     1      30.084   1.153  52.576  1.00  0.00     0.315 HD
ENDBRANCH  16  19
ENDBRANCH  15  16
ENDBRANCH   1  14
BRANCH  11  22
HETATM   22  N2  UNL     1      19.802   2.763  50.824  1.00  0.00    -0.388 N 
HETATM   23  H18 UNL     1      19.128   2.856  50.047  1.00  0.00     0.159 HD
BRANCH  22  24
HETATM   24  C17 UNL     1      19.759   1.901  51.999  1.00  0.00     0.122 C 
BRANCH  24  25
HETATM   25  C18 UNL     1      20.180   0.507  51.604  1.00  0.00     0.051 C 
BRANCH  25  26
HETATM   26  C19 UNL     1      21.611   0.219  52.051  1.00  0.00     0.224 C 
HETATM   27  F1  UNL     1      22.507   0.610  51.086  1.00  0.00    -0.255 F 
ENDBRANCH  25  26
ENDBRANCH  24  25
ENDBRANCH  22  24
ENDBRANCH  11  22
TORSDOF 7
ENDMDL
MODEL 7
REMARK VINA RESULT:      -6.8      4.735      6.296
REMARK  7 active torsions:
REMARK  status: ('A' for Active; 'I' for Inactive)
REMARK    1  A    between atoms: C2_2  and  N1_4 
REMARK    2  A    between atoms: C2_2  and  C4_5 
REMARK    3  A    between atoms: C5_6  and  C6_7 
REMARK    4  A    between atoms: C16_17  and  N2_18 
REMARK    5  A    between atoms: N2_18  and  C17_19 
REMARK    6  A    between atoms: C17_19  and  C18_20 
REMARK    7  A    between atoms: C18_20  and  C19_21 
ROOT
HETATM    1  C6  UNL     1      25.771   2.631  51.197  1.00  0.00     0.018 A 
HETATM    2  C7  UNL     1      26.650   2.976  50.200  1.00  0.00     0.023 A 
HETATM    3  C8  UNL     1      26.341   4.162  49.570  1.00  0.00     0.039 A 
HETATM    4  C9  UNL     1      25.283   5.061  49.787  1.00  0.00     0.081 A 
HETATM    5  C10 UNL     1      24.474   4.581  50.825  1.00  0.00    -0.023 A 
HETATM    6  C11 UNL     1      24.697   3.426  51.504  1.00  0.00     0.030 A 
HETATM    7  C12 UNL     1      23.205   5.288  51.321  1.00  0.00     0.045 C 
HETATM    8  C13 UNL     1      23.232   6.506  50.376  1.00  0.00     0.032 C 
HETATM    9  C14 UNL     1      24.474   7.267  50.729  1.00  0.00    -0.024 C 
HETATM   10  C15 UNL     1      25.727   7.626  50.399  1.00  0.00     0.027 C 
HETATM   11  C16 UNL     1      26.676   7.359  49.310  1.00  0.00     0.050 C 
HETATM   12  C20 UNL     1      26.438   6.482  48.295  1.00  0.00     0.171 C 
HETATM   13  O1  UNL     1      25.217   6.233  48.964  1.00  0.00    -0.320 OA
ENDROOT
BRANCH   1  14
HETATM   14  C5  UNL     1      25.996   1.417  51.920  1.00  0.00    -0.064 C 
HETATM   15  C4  UNL     1      26.190   0.409  52.544  1.00  0.00    -0.060 C 
BRANCH  15  16
HETATM   16  C2  UNL     1      26.416  -0.812  53.321  1.00  0.00     0.210 C 
HETATM   17  C1  UNL     1      25.194  -1.004  54.188  1.00  0.00     0.063 C 
HETATM   18  C3  UNL     1      26.706  -1.988  52.424  1.00  0.00     0.063 C 
BRANCH  16  19
HETATM   19  N1  UNL     1      27.536  -0.627  54.255  1.00  0.00     0.099 N 
HETATM   20  H7  UNL     1      27.090  -0.332  55.162  1.00  0.00     0.315 HD
HETATM   21  H8  UNL     1      28.016  -1.544  54.404  1.00  0.00     0.315 HD
ENDBRANCH  16  19
ENDBRANCH  15  16
ENDBRANCH   1  14
BRANCH  11  22
HETATM   22  N2  UNL     1      27.887   8.156  49.455  1.00  0.00    -0.388 N 
HETATM   23  H18 UNL     1      28.786   7.730  49.178  1.00  0.00     0.159 HD
BRANCH  22  24
HETATM   24  C17 UNL     1      27.609   9.483  49.990  1.00  0.00     0.122 C 
BRANCH  24  25
HETATM   25  C18 UNL     1      27.971  10.520  48.956  1.00  0.00     0.051 C 
BRANCH  25  26
HETATM   26  C19 UNL     1      26.722  11.207  48.408  1.00  0.00     0.224 C 
HETATM   27  F1  UNL     1      25.593  10.507  48.757  1.00  0.00    -0.255 F 
ENDBRANCH  25  26
ENDBRANCH  24  25
ENDBRANCH  22  24
ENDBRANCH  11  22
TORSDOF 7
ENDMDL
MODEL 8
REMARK VINA RESULT:      -6.8      7.924      9.351
REMARK  7 active torsions:
REMARK  status: ('A' for Active; 'I' for Inactive)
REMARK    1  A    between atoms: C2_2  and  N1_4 
REMARK    2  A    between atoms: C2_2  and  C4_5 
REMARK    3  A    between atoms: C5_6  and  C6_7 
REMARK    4  A    between atoms: C16_17  and  N2_18 
REMARK    5  A    between atoms: N2_18  and  C17_19 
REMARK    6  A    between atoms: C17_19  and  C18_20 
REMARK    7  A    between atoms: C18_20  and  C19_21 
ROOT
HETATM    1  C6  UNL     1      24.541   1.153  52.272  1.00  0.00     0.018 A 
HETATM    2  C7  UNL     1      24.525   1.856  51.092  1.00  0.00     0.023 A 
HETATM    3  C8  UNL     1      23.259   2.107  50.609  1.00  0.00     0.039 A 
HETATM    4  C9  UNL     1      22.000   1.762  51.130  1.00  0.00     0.081 A 
HETATM    5  C10 UNL     1      22.172   1.054  52.326  1.00  0.00    -0.023 A 
HETATM    6  C11 UNL     1      23.377   0.758  52.880  1.00  0.00     0.030 A 
HETATM    7  C12 UNL     1      21.016   0.491  53.164  1.00  0.00     0.045 C 
HETATM    8  C13 UNL     1      19.840   0.970  52.292  1.00  0.00     0.032 C 
HETATM    9  C14 UNL     1      19.886   2.468  52.333  1.00  0.00    -0.024 C 
HETATM   10  C15 UNL     1      20.162   3.620  51.698  1.00  0.00     0.027 C 
HETATM   11  C16 UNL     1      20.683   4.035  50.389  1.00  0.00     0.050 C 
HETATM   12  C20 UNL     1      21.130   3.164  49.440  1.00  0.00     0.171 C 
HETATM   13  O1  UNL     1      20.835   2.166  50.398  1.00  0.00    -0.320 OA
ENDROOT
BRANCH   1  14
HETATM   14  C5  UNL     1      25.804   0.837  52.865  1.00  0.00    -0.064 C 
HETATM   15  C4  UNL     1      26.874   0.585  53.348  1.00  0.00    -0.060 C 
BRANCH  15  16
HETATM   16  C2  UNL     1      28.184   0.299  53.938  1.00  0.00     0.210 C 
HETATM   17  C1  UNL     1      28.741  -0.892  53.194  1.00  0.00     0.063 C 
HETATM   18  C3  UNL     1      29.083   1.508  53.893  1.00  0.00     0.063 C 
BRANCH  16  19
HETATM   19  N1  UNL     1      28.036  -0.143  55.332  1.00  0.00     0.099 N 
HETATM   20  H7  UNL     1      27.590  -1.095  55.272  1.00  0.00     0.315 HD
HETATM   21  H8  UNL     1      28.983  -0.245  55.764  1.00  0.00     0.315 HD
ENDBRANCH  16  19
ENDBRANCH  15  16
ENDBRANCH   1  14
BRANCH  11  22
HETATM   22  N2  UNL     1      20.648   5.484  50.239  1.00  0.00    -0.388 N 
HETATM   23  H18 UNL     1      20.038   5.883  49.507  1.00  0.00     0.159 HD
BRANCH  22  24
HETATM   24  C17 UNL     1      21.519   6.155  51.195  1.00  0.00     0.122 C 
BRANCH  24  25
HETATM   25  C18 UNL     1      22.955   5.953  50.782  1.00  0.00     0.051 C 
BRANCH  25  26
HETATM   26  C19 UNL     1      23.801   5.468  51.957  1.00  0.00     0.224 C 
HETATM   27  F1  UNL     1      23.078   4.612  52.752  1.00  0.00    -0.255 F 
ENDBRANCH  25  26
ENDBRANCH  24  25
ENDBRANCH  22  24
ENDBRANCH  11  22
TORSDOF 7
ENDMDL
MODEL 9
REMARK VINA RESULT:      -6.8      9.577     12.751
REMARK  7 active torsions:
REMARK  status: ('A' for Active; 'I' for Inactive)
REMARK    1  A    between atoms: C2_2  and  N1_4 
REMARK    2  A    between atoms: C2_2  and  C4_5 
REMARK    3  A    between atoms: C5_6  and  C6_7 
REMARK    4  A    between atoms: C16_17  and  N2_18 
REMARK    5  A    between atoms: N2_18  and  C17_19 
REMARK    6  A    between atoms: C17_19  and  C18_20 
REMARK    7  A    between atoms: C18_20  and  C19_21 
ROOT
HETATM    1  C6  UNL     1      20.110   0.409  52.716  1.00  0.00     0.018 A 
HETATM    2  C7  UNL     1      20.183   1.752  52.441  1.00  0.00     0.023 A 
HETATM    3  C8  UNL     1      21.450   2.280  52.564  1.00  0.00     0.039 A 
HETATM    4  C9  UNL     1      22.661   1.665  52.923  1.00  0.00     0.081 A 
HETATM    5  C10 UNL     1      22.434   0.306  53.174  1.00  0.00    -0.023 A 
HETATM    6  C11 UNL     1      21.224  -0.304  53.078  1.00  0.00     0.030 A 
HETATM    7  C12 UNL     1      23.525  -0.679  53.618  1.00  0.00     0.045 C 
HETATM    8  C13 UNL     1      24.722   0.292  53.640  1.00  0.00     0.032 C 
HETATM    9  C14 UNL     1      24.910   0.737  52.220  1.00  0.00    -0.024 C 
HETATM   10  C15 UNL     1      24.789   1.712  51.303  1.00  0.00     0.027 C 
HETATM   11  C16 UNL     1      24.282   3.089  51.250  1.00  0.00     0.050 C 
HETATM   12  C20 UNL     1      23.663   3.710  52.295  1.00  0.00     0.171 C 
HETATM   13  O1  UNL     1      23.841   2.479  52.968  1.00  0.00    -0.320 OA
ENDROOT
BRANCH   1  14
HETATM   14  C5  UNL     1      18.840  -0.244  52.618  1.00  0.00    -0.064 C 
HETATM   15  C4  UNL     1      17.765  -0.773  52.538  1.00  0.00    -0.060 C 
BRANCH  15  16
HETATM   16  C2  UNL     1      16.447  -1.401  52.429  1.00  0.00     0.210 C 
HETATM   17  C1  UNL     1      15.999  -1.220  50.998  1.00  0.00     0.063 C 
HETATM   18  C3  UNL     1      16.488  -2.843  52.866  1.00  0.00     0.063 C 
BRANCH  16  19
HETATM   19  N1  UNL     1      15.461  -0.676  53.243  1.00  0.00     0.099 N 
HETATM   20  H7  UNL     1      15.314   0.240  52.744  1.00  0.00     0.315 HD
HETATM   21  H8  UNL     1      14.558  -1.204  53.243  1.00  0.00     0.315 HD
ENDBRANCH  16  19
ENDBRANCH  15  16
ENDBRANCH   1  14
BRANCH  11  22
HETATM   22  N2  UNL     1      24.535   3.699  49.952  1.00  0.00    -0.388 N 
HETATM   23  H18 UNL     1      25.514   3.894  49.688  1.00  0.00     0.159 HD
BRANCH  22  24
HETATM   24  C17 UNL     1      23.303   3.938  49.209  1.00  0.00     0.122 C 
BRANCH  24  25
HETATM   25  C18 UNL     1      23.001   2.735  48.351  1.00  0.00     0.051 C 
BRANCH  25  26
HETATM   26  C19 UNL     1      21.726   2.036  48.818  1.00  0.00     0.224 C 
HETATM   27  F1  UNL     1      22.030   0.956  49.610  1.00  0.00    -0.255 F 
ENDBRANCH  25  26
ENDBRANCH  24  25
ENDBRANCH  22  24
ENDBRANCH  11  22
TORSDOF 7
ENDMDL
