MODEL 1
REMARK VINA RESULT:      -8.4      0.000      0.000
REMARK  9 active torsions:
REMARK  status: ('A' for Active; 'I' for Inactive)
REMARK    1  A    between atoms: O1_2  and  C2_3 
REMARK    2  A    between atoms: C6_9  and  N3_10 
REMARK    3  A    between atoms: N3_10  and  C7_11 
REMARK    4  A    between atoms: C15_21  and  O2_22 
REMARK    5  A    between atoms: O2_22  and  C16_23 
REMARK    6  A    between atoms: C16_23  and  C17_24 
REMARK    7  A    between atoms: C17_24  and  O3_25 
REMARK    8  A    between atoms: C17_24  and  C18_26 
REMARK    9  A    between atoms: C18_26  and  N4_27 
ROOT
HETATM    1  C2  UNL     1      19.655  -0.063  52.342  1.00  0.00     0.103 A 
HETATM    2  C3  UNL     1      20.018  -0.694  53.514  1.00  0.00     0.072 A 
HETATM    3  C4  UNL     1      21.344  -0.758  53.883  1.00  0.00     0.075 A 
HETATM    4  N1  UNL     1      21.598  -1.390  55.037  1.00  0.00    -0.241 NA
HETATM    5  C5  UNL     1      22.866  -1.498  55.470  1.00  0.00     0.236 A 
HETATM    6  N2  UNL     1      23.837  -0.965  54.725  1.00  0.00    -0.224 NA
HETATM    7  C6  UNL     1      23.678  -0.321  53.569  1.00  0.00     0.142 A 
HETATM    8  C13 UNL     1      22.376  -0.224  53.148  1.00  0.00     0.042 A 
HETATM    9  C14 UNL     1      21.961   0.394  51.988  1.00  0.00     0.057 A 
HETATM   10  C15 UNL     1      20.645   0.479  51.585  1.00  0.00     0.103 A 
ENDROOT
BRANCH  10  11
HETATM   11  O2  UNL     1      20.291   1.111  50.414  1.00  0.00    -0.346 OA
BRANCH  11  12
HETATM   12  C16 UNL     1      19.627   2.328  50.282  1.00  0.00     0.209 C 
BRANCH  12  13
HETATM   13  C17 UNL     1      20.120   3.215  51.432  1.00  0.00     0.170 C 
BRANCH  13  14
HETATM   14  O3  UNL     1      19.005   3.569  52.219  1.00  0.00    -0.392 OA
HETATM   15  H14 UNL     1      18.234   3.043  51.839  1.00  0.00     0.210 HD
ENDBRANCH  13  14
BRANCH  13  16
HETATM   16  C18 UNL     1      20.639   4.476  50.812  1.00  0.00     0.306 C 
BRANCH  16  17
HETATM   17  N4  UNL     1      22.059   4.658  51.047  1.00  0.00     0.095 N 
HETATM   18  C19 UNL     1      22.823   4.291  49.888  1.00  0.00     0.298 C 
HETATM   19  C20 UNL     1      23.493   2.960  50.104  1.00  0.00     0.198 C 
HETATM   20  O4  UNL     1      24.357   2.949  51.172  1.00  0.00    -0.388 OA
HETATM   21  C21 UNL     1      23.956   3.725  52.250  1.00  0.00     0.198 C 
HETATM   22  C22 UNL     1      22.441   3.844  52.187  1.00  0.00     0.298 C 
ENDBRANCH  16  17
ENDBRANCH  13  16
ENDBRANCH  12  13
ENDBRANCH  11  12
ENDBRANCH  10  11
BRANCH   1  23
HETATM   23  O1  UNL     1      18.341   0.016  51.950  1.00  0.00    -0.353 OA
HETATM   24  C1  UNL     1      17.347  -0.894  52.355  1.00  0.00     0.210 C 
ENDBRANCH   1  23
BRANCH   7  25
HETATM   25  N3  UNL     1      24.691   0.240  52.785  1.00  0.00    -0.340 N 
HETATM   26  H6  UNL     1      24.491   0.730  51.893  1.00  0.00     0.167 HD
BRANCH  25  27
HETATM   27  C7  UNL     1      26.092   0.272  52.994  1.00  0.00     0.035 A 
HETATM   28  C8  UNL     1      26.854   1.409  53.225  1.00  0.00     0.032 A 
HETATM   29  C9  UNL     1      28.212   1.399  53.423  1.00  0.00     0.046 A 
HETATM   30  C10 UNL     1      28.911   0.213  53.403  1.00  0.00     0.138 A 
HETATM   31  F1  UNL     1      30.244   0.316  53.610  1.00  0.00    -0.204 F 
HETATM   32  C11 UNL     1      28.197  -0.945  53.178  1.00  0.00     0.074 A 
HETATM   33 CL1  UNL     1      29.142  -2.410  53.166  1.00  0.00    -0.081 Cl
HETATM   34  C12 UNL     1      26.839  -0.880  52.984  1.00  0.00     0.056 A 
ENDBRANCH  25  27
ENDBRANCH   7  25
TORSDOF 9
ENDMDL
MODEL 2
REMARK VINA RESULT:      -8.3      2.039      2.651
REMARK  9 active torsions:
REMARK  status: ('A' for Active; 'I' for Inactive)
REMARK    1  A    between atoms: O1_2  and  C2_3 
REMARK    2  A    between atoms: C6_9  and  N3_10 
REMARK    3  A    between atoms: N3_10  and  C7_11 
REMARK    4  A    between atoms: C15_21  and  O2_22 
REMARK    5  A    between atoms: O2_22  and  C16_23 
REMARK    6  A    between atoms: C16_23  and  C17_24 
REMARK    7  A    between atoms: C17_24  and  O3_25 
REMARK    8  A    between atoms: C17_24  and  C18_26 
REMARK    9  A    between atoms: C18_26  and  N4_27 
ROOT
HETATM    1  C2  UNL     1      20.322   2.298  52.541  1.00  0.00     0.103 A 
HETATM    2  C3  UNL     1      20.361   1.221  53.403  1.00  0.00     0.072 A 
HETATM    3  C4  UNL     1      21.546   0.553  53.621  1.00  0.00     0.075 A 
HETATM    4  N1  UNL     1      21.485  -0.479  54.474  1.00  0.00    -0.241 NA
HETATM    5  C5  UNL     1      22.596  -1.186  54.742  1.00  0.00     0.236 A 
HETATM    6  N2  UNL     1      23.733  -0.830  54.140  1.00  0.00    -0.224 NA
HETATM    7  C6  UNL     1      23.887   0.177  53.282  1.00  0.00     0.142 A 
HETATM    8  C13 UNL     1      22.740   0.884  53.024  1.00  0.00     0.042 A 
HETATM    9  C14 UNL     1      22.646   1.964  52.174  1.00  0.00     0.057 A 
HETATM   10  C15 UNL     1      21.481   2.659  51.930  1.00  0.00     0.103 A 
ENDROOT
BRANCH  10  11
HETATM   11  O2  UNL     1      21.451   3.733  51.069  1.00  0.00    -0.346 OA
BRANCH  11  12
HETATM   12  C16 UNL     1      21.991   4.999  51.283  1.00  0.00     0.209 C 
BRANCH  12  13
HETATM   13  C17 UNL     1      22.396   5.533  49.903  1.00  0.00     0.170 C 
BRANCH  13  14
HETATM   14  O3  UNL     1      21.255   5.515  49.075  1.00  0.00    -0.392 OA
HETATM   15  H14 UNL     1      21.413   6.237  48.389  1.00  0.00     0.210 HD
ENDBRANCH  13  14
BRANCH  13  16
HETATM   16  C18 UNL     1      23.371   4.551  49.330  1.00  0.00     0.306 C 
BRANCH  16  17
HETATM   17  N4  UNL     1      24.579   4.450  50.126  1.00  0.00     0.095 N 
HETATM   18  C19 UNL     1      25.495   5.510  49.809  1.00  0.00     0.298 C 
HETATM   19  C20 UNL     1      26.631   4.985  48.971  1.00  0.00     0.198 C 
HETATM   20  O4  UNL     1      27.360   4.001  49.591  1.00  0.00    -0.388 OA
HETATM   21  C21 UNL     1      26.616   3.146  50.392  1.00  0.00     0.198 C 
HETATM   22  C22 UNL     1      25.189   3.157  49.867  1.00  0.00     0.298 C 
ENDBRANCH  16  17
ENDBRANCH  13  16
ENDBRANCH  12  13
ENDBRANCH  11  12
ENDBRANCH  10  11
BRANCH   1  23
HETATM   23  O1  UNL     1      19.155   2.984  52.305  1.00  0.00    -0.353 OA
HETATM   24  C1  UNL     1      18.144   2.532  51.436  1.00  0.00     0.210 C 
ENDBRANCH   1  23
BRANCH   7  25
HETATM   25  N3  UNL     1      25.076   0.555  52.650  1.00  0.00    -0.340 N 
HETATM   26  H6  UNL     1      25.085   1.176  51.818  1.00  0.00     0.167 HD
BRANCH  25  27
HETATM   27  C7  UNL     1      26.417   0.218  52.957  1.00  0.00     0.035 A 
HETATM   28  C8  UNL     1      27.030  -1.000  52.698  1.00  0.00     0.032 A 
HETATM   29  C9  UNL     1      28.334  -1.288  53.012  1.00  0.00     0.046 A 
HETATM   30  C10 UNL     1      29.129  -0.344  53.623  1.00  0.00     0.138 A 
HETATM   31  F1  UNL     1      30.399  -0.731  53.888  1.00  0.00    -0.204 F 
HETATM   32  C11 UNL     1      28.566   0.883  53.900  1.00  0.00     0.074 A 
HETATM   33 CL1  UNL     1      29.626   2.031  54.672  1.00  0.00    -0.081 Cl
HETATM   34  C12 UNL     1      27.255   1.120  53.566  1.00  0.00     0.056 A 
ENDBRANCH  25  27
ENDBRANCH   7  25
TORSDOF 9
ENDMDL
MODEL 3
REMARK VINA RESULT:      -8.2      1.226      1.674
REMARK  9 active torsions:
REMARK  status: ('A' for Active; 'I' for Inactive)
REMARK    1  A    between atoms: O1_2  and  C2_3 
REMARK    2  A    between atoms: C6_9  and  N3_10 
REMARK    3  A    between atoms: N3_10  and  C7_11 
REMARK    4  A    between atoms: C15_21  and  O2_22 
REMARK    5  A    between atoms: O2_22  and  C16_23 
REMARK    6  A    between atoms: C16_23  and  C17_24 
REMARK    7  A    between atoms: C17_24  and  O3_25 
REMARK    8  A    between atoms: C17_24  and  C18_26 
REMARK    9  A    between atoms: C18_26  and  N4_27 
ROOT
HETATM    1  C2  UNL     1      19.649   0.058  52.045  1.00  0.00     0.103 A 
HETATM    2  C3  UNL     1      19.946  -0.558  53.243  1.00  0.00     0.072 A 
HETATM    3  C4  UNL     1      21.252  -0.645  53.672  1.00  0.00     0.075 A 
HETATM    4  N1  UNL     1      21.440  -1.261  54.848  1.00  0.00    -0.241 NA
HETATM    5  C5  UNL     1      22.684  -1.390  55.339  1.00  0.00     0.236 A 
HETATM    6  N2  UNL     1      23.700  -0.893  54.628  1.00  0.00    -0.224 NA
HETATM    7  C6  UNL     1      23.607  -0.268  53.455  1.00  0.00     0.142 A 
HETATM    8  C13 UNL     1      22.328  -0.149  52.974  1.00  0.00     0.042 A 
HETATM    9  C14 UNL     1      21.979   0.456  51.787  1.00  0.00     0.057 A 
HETATM   10  C15 UNL     1      20.684   0.564  51.323  1.00  0.00     0.103 A 
ENDROOT
BRANCH  10  11
HETATM   11  O2  UNL     1      20.398   1.181  50.127  1.00  0.00    -0.346 OA
BRANCH  11  12
HETATM   12  C16 UNL     1      21.200   1.224  48.989  1.00  0.00     0.209 C 
BRANCH  12  13
HETATM   13  C17 UNL     1      21.552   2.701  48.766  1.00  0.00     0.170 C 
BRANCH  13  14
HETATM   14  O3  UNL     1      21.404   2.982  47.392  1.00  0.00    -0.392 OA
HETATM   15  H14 UNL     1      21.143   3.955  47.348  1.00  0.00     0.210 HD
ENDBRANCH  13  14
BRANCH  13  16
HETATM   16  C18 UNL     1      23.005   2.852  49.092  1.00  0.00     0.306 C 
BRANCH  16  17
HETATM   17  N4  UNL     1      23.269   4.034  49.890  1.00  0.00     0.095 N 
HETATM   18  C19 UNL     1      24.230   3.756  50.920  1.00  0.00     0.298 C 
HETATM   19  C20 UNL     1      23.546   3.647  52.258  1.00  0.00     0.198 C 
HETATM   20  O4  UNL     1      22.884   4.791  52.629  1.00  0.00    -0.388 OA
HETATM   21  C21 UNL     1      22.290   5.482  51.583  1.00  0.00     0.198 C 
HETATM   22  C22 UNL     1      22.015   4.480  50.473  1.00  0.00     0.298 C 
ENDBRANCH  16  17
ENDBRANCH  13  16
ENDBRANCH  12  13
ENDBRANCH  11  12
ENDBRANCH  10  11
BRANCH   1  23
HETATM   23  O1  UNL     1      18.356   0.161  51.593  1.00  0.00    -0.353 OA
HETATM   24  C1  UNL     1      17.253  -0.434  52.236  1.00  0.00     0.210 C 
ENDBRANCH   1  23
BRANCH   7  25
HETATM   25  N3  UNL     1      24.667   0.255  52.707  1.00  0.00    -0.340 N 
HETATM   26  H6  UNL     1      24.556   0.535  51.714  1.00  0.00     0.167 HD
BRANCH  25  27
HETATM   27  C7  UNL     1      26.010   0.503  53.082  1.00  0.00     0.035 A 
HETATM   28  C8  UNL     1      26.535   1.730  53.466  1.00  0.00     0.032 A 
HETATM   29  C9  UNL     1      27.844   1.930  53.822  1.00  0.00     0.046 A 
HETATM   30  C10 UNL     1      28.737   0.881  53.816  1.00  0.00     0.138 A 
HETATM   31  F1  UNL     1      30.002   1.187  54.185  1.00  0.00    -0.204 F 
HETATM   32  C11 UNL     1      28.263  -0.358  53.443  1.00  0.00     0.074 A 
HETATM   33 CL1  UNL     1      29.443  -1.641  53.457  1.00  0.00    -0.081 Cl
HETATM   34  C12 UNL     1      26.943  -0.505  53.094  1.00  0.00     0.056 A 
ENDBRANCH  25  27
ENDBRANCH   7  25
TORSDOF 9
ENDMDL
MODEL 4
REMARK VINA RESULT:      -8.0      6.004      9.308
REMARK  9 active torsions:
REMARK  status: ('A' for Active; 'I' for Inactive)
REMARK    1  A    between atoms: O1_2  and  C2_3 
REMARK    2  A    between atoms: C6_9  and  N3_10 
REMARK    3  A    between atoms: N3_10  and  C7_11 
REMARK    4  A    between atoms: C15_21  and  O2_22 
REMARK    5  A    between atoms: O2_22  and  C16_23 
REMARK    6  A    between atoms: C16_23  and  C17_24 
REMARK    7  A    between atoms: C17_24  and  O3_25 
REMARK    8  A    between atoms: C17_24  and  C18_26 
REMARK    9  A    between atoms: C18_26  and  N4_27 
ROOT
HETATM    1  C2  UNL     1      27.483   7.007  47.849  1.00  0.00     0.103 A 
HETATM    2  C3  UNL     1      26.129   6.967  48.105  1.00  0.00     0.072 A 
HETATM    3  C4  UNL     1      25.581   5.890  48.766  1.00  0.00     0.075 A 
HETATM    4  N1  UNL     1      24.256   5.942  48.968  1.00  0.00    -0.241 NA
HETATM    5  C5  UNL     1      23.642   4.930  49.605  1.00  0.00     0.236 A 
HETATM    6  N2  UNL     1      24.382   3.898  50.017  1.00  0.00    -0.224 NA
HETATM    7  C6  UNL     1      25.698   3.762  49.860  1.00  0.00     0.142 A 
HETATM    8  C13 UNL     1      26.303   4.806  49.207  1.00  0.00     0.042 A 
HETATM    9  C14 UNL     1      27.649   4.895  48.927  1.00  0.00     0.057 A 
HETATM   10  C15 UNL     1      28.236   5.955  48.270  1.00  0.00     0.103 A 
ENDROOT
BRANCH  10  11
HETATM   11  O2  UNL     1      29.589   5.987  48.019  1.00  0.00    -0.346 OA
BRANCH  11  12
HETATM   12  C16 UNL     1      30.568   6.643  48.762  1.00  0.00     0.209 C 
BRANCH  12  13
HETATM   13  C17 UNL     1      31.540   5.560  49.245  1.00  0.00     0.170 C 
BRANCH  13  14
HETATM   14  O3  UNL     1      31.495   5.528  50.654  1.00  0.00    -0.392 OA
HETATM   15  H14 UNL     1      31.379   6.489  50.936  1.00  0.00     0.210 HD
ENDBRANCH  13  14
BRANCH  13  16
HETATM   16  C18 UNL     1      32.915   6.012  48.858  1.00  0.00     0.306 C 
BRANCH  16  17
HETATM   17  N4  UNL     1      33.561   5.087  47.947  1.00  0.00     0.095 N 
HETATM   18  C19 UNL     1      33.822   5.710  46.680  1.00  0.00     0.298 C 
HETATM   19  C20 UNL     1      32.841   5.224  45.647  1.00  0.00     0.198 C 
HETATM   20  O4  UNL     1      32.890   3.867  45.441  1.00  0.00    -0.388 OA
HETATM   21  C21 UNL     1      33.152   3.117  46.579  1.00  0.00     0.198 C 
HETATM   22  C22 UNL     1      32.694   3.933  47.777  1.00  0.00     0.298 C 
ENDBRANCH  16  17
ENDBRANCH  13  16
ENDBRANCH  12  13
ENDBRANCH  11  12
ENDBRANCH  10  11
BRANCH   1  23
HETATM   23  O1  UNL     1      28.057   8.068  47.193  1.00  0.00    -0.353 OA
HETATM   24  C1  UNL     1      27.435   9.322  47.038  1.00  0.00     0.210 C 
ENDBRANCH   1  23
BRANCH   7  25
HETATM   25  N3  UNL     1      26.478   2.684  50.290  1.00  0.00    -0.340 N 
HETATM   26  H6  UNL     1      27.156   2.209  49.664  1.00  0.00     0.167 HD
BRANCH  25  27
HETATM   27  C7  UNL     1      26.529   2.043  51.552  1.00  0.00     0.035 A 
HETATM   28  C8  UNL     1      25.517   1.281  52.119  1.00  0.00     0.032 A 
HETATM   29  C9  UNL     1      25.605   0.676  53.347  1.00  0.00     0.046 A 
HETATM   30  C10 UNL     1      26.747   0.800  54.106  1.00  0.00     0.138 A 
HETATM   31  F1  UNL     1      26.729   0.164  55.300  1.00  0.00    -0.204 F 
HETATM   32  C11 UNL     1      27.781   1.548  53.585  1.00  0.00     0.074 A 
HETATM   33 CL1  UNL     1      29.197   1.664  54.596  1.00  0.00    -0.081 Cl
HETATM   34  C12 UNL     1      27.642   2.134  52.351  1.00  0.00     0.056 A 
ENDBRANCH  25  27
ENDBRANCH   7  25
TORSDOF 9
ENDMDL
MODEL 5
REMARK VINA RESULT:      -7.8      2.180      5.280
REMARK  9 active torsions:
REMARK  status: ('A' for Active; 'I' for Inactive)
REMARK    1  A    between atoms: O1_2  and  C2_3 
REMARK    2  A    between atoms: C6_9  and  N3_10 
REMARK    3  A    between atoms: N3_10  and  C7_11 
REMARK    4  A    between atoms: C15_21  and  O2_22 
REMARK    5  A    between atoms: O2_22  and  C16_23 
REMARK    6  A    between atoms: C16_23  and  C17_24 
REMARK    7  A    between atoms: C17_24  and  O3_25 
REMARK    8  A    between atoms: C17_24  and  C18_26 
REMARK    9  A    between atoms: C18_26  and  N4_27 
ROOT
HETATM    1  C2  UNL     1      21.978   1.609  50.289  1.00  0.00     0.103 A 
HETATM    2  C3  UNL     1      22.752   2.420  49.484  1.00  0.00     0.072 A 
HETATM    3  C4  UNL     1      24.006   2.810  49.897  1.00  0.00     0.075 A 
HETATM    4  N1  UNL     1      24.681   3.598  49.048  1.00  0.00    -0.241 NA
HETATM    5  C5  UNL     1      25.913   4.024  49.374  1.00  0.00     0.236 A 
HETATM    6  N2  UNL     1      26.425   3.644  50.547  1.00  0.00    -0.224 NA
HETATM    7  C6  UNL     1      25.829   2.867  51.450  1.00  0.00     0.142 A 
HETATM    8  C13 UNL     1      24.573   2.444  51.095  1.00  0.00     0.042 A 
HETATM    9  C14 UNL     1      23.761   1.636  51.861  1.00  0.00     0.057 A 
HETATM   10  C15 UNL     1      22.501   1.223  51.483  1.00  0.00     0.103 A 
ENDROOT
BRANCH  10  11
HETATM   11  O2  UNL     1      21.737   0.413  52.292  1.00  0.00    -0.346 OA
BRANCH  11  12
HETATM   12  C16 UNL     1      21.920   0.167  53.651  1.00  0.00     0.209 C 
BRANCH  12  13
HETATM   13  C17 UNL     1      20.608  -0.442  54.159  1.00  0.00     0.170 C 
BRANCH  13  14
HETATM   14  O3  UNL     1      20.923  -1.581  54.929  1.00  0.00    -0.392 OA
HETATM   15  H14 UNL     1      20.449  -1.446  55.808  1.00  0.00     0.210 HD
ENDBRANCH  13  14
BRANCH  13  16
HETATM   16  C18 UNL     1      19.858  -0.919  52.954  1.00  0.00     0.306 C 
BRANCH  16  17
HETATM   17  N4  UNL     1      18.471  -0.497  52.967  1.00  0.00     0.095 N 
HETATM   18  C19 UNL     1      17.650  -1.450  53.659  1.00  0.00     0.298 C 
HETATM   19  C20 UNL     1      16.847  -2.260  52.675  1.00  0.00     0.198 C 
HETATM   20  O4  UNL     1      16.008  -1.501  51.897  1.00  0.00    -0.388 OA
HETATM   21  C21 UNL     1      16.509  -0.255  51.549  1.00  0.00     0.198 C 
HETATM   22  C22 UNL     1      18.026  -0.346  51.592  1.00  0.00     0.298 C 
ENDBRANCH  16  17
ENDBRANCH  13  16
ENDBRANCH  12  13
ENDBRANCH  11  12
ENDBRANCH  10  11
BRANCH   1  23
HETATM   23  O1  UNL     1      20.724   1.204  49.903  1.00  0.00    -0.353 OA
HETATM   24  C1  UNL     1      19.732   2.080  49.423  1.00  0.00     0.210 C 
ENDBRANCH   1  23
BRANCH   7  25
HETATM   25  N3  UNL     1      26.361   2.465  52.680  1.00  0.00    -0.340 N 
HETATM   26  H6  UNL     1      26.086   2.916  53.573  1.00  0.00     0.167 HD
BRANCH  25  27
HETATM   27  C7  UNL     1      27.305   1.452  52.976  1.00  0.00     0.035 A 
HETATM   28  C8  UNL     1      28.564   1.648  53.527  1.00  0.00     0.032 A 
HETATM   29  C9  UNL     1      29.451   0.638  53.799  1.00  0.00     0.046 A 
HETATM   30  C10 UNL     1      29.122  -0.672  53.528  1.00  0.00     0.138 A 
HETATM   31  F1  UNL     1      30.068  -1.589  53.835  1.00  0.00    -0.204 F 
HETATM   32  C11 UNL     1      27.881  -0.918  52.980  1.00  0.00     0.074 A 
HETATM   33 CL1  UNL     1      27.528  -2.595  52.663  1.00  0.00    -0.081 Cl
HETATM   34  C12 UNL     1      27.030   0.129  52.726  1.00  0.00     0.056 A 
ENDBRANCH  25  27
ENDBRANCH   7  25
TORSDOF 9
ENDMDL
MODEL 6
REMARK VINA RESULT:      -7.8      2.816      4.626
REMARK  9 active torsions:
REMARK  status: ('A' for Active; 'I' for Inactive)
REMARK    1  A    between atoms: O1_2  and  C2_3 
REMARK    2  A    between atoms: C6_9  and  N3_10 
REMARK    3  A    between atoms: N3_10  and  C7_11 
REMARK    4  A    between atoms: C15_21  and  O2_22 
REMARK    5  A    between atoms: O2_22  and  C16_23 
REMARK    6  A    between atoms: C16_23  and  C17_24 
REMARK    7  A    between atoms: C17_24  and  O3_25 
REMARK    8  A    between atoms: C17_24  and  C18_26 
REMARK    9  A    between atoms: C18_26  and  N4_27 
ROOT
HETATM    1  C2  UNL     1      23.062   2.818  49.306  1.00  0.00     0.103 A 
HETATM    2  C3  UNL     1      22.352   1.852  49.989  1.00  0.00     0.072 A 
HETATM    3  C4  UNL     1      22.838   1.344  51.173  1.00  0.00     0.075 A 
HETATM    4  N1  UNL     1      22.078   0.410  51.762  1.00  0.00    -0.241 NA
HETATM    5  C5  UNL     1      22.480  -0.139  52.921  1.00  0.00     0.236 A 
HETATM    6  N2  UNL     1      23.636   0.271  53.449  1.00  0.00    -0.224 NA
HETATM    7  C6  UNL     1      24.453   1.189  52.935  1.00  0.00     0.142 A 
HETATM    8  C13 UNL     1      24.022   1.735  51.753  1.00  0.00     0.042 A 
HETATM    9  C14 UNL     1      24.692   2.700  51.033  1.00  0.00     0.057 A 
HETATM   10  C15 UNL     1      24.239   3.234  49.845  1.00  0.00     0.103 A 
ENDROOT
BRANCH  10  11
HETATM   11  O2  UNL     1      24.954   4.199  49.171  1.00  0.00    -0.346 OA
BRANCH  11  12
HETATM   12  C16 UNL     1      26.270   4.589  49.407  1.00  0.00     0.209 C 
BRANCH  12  13
HETATM   13  C17 UNL     1      26.345   6.082  49.063  1.00  0.00     0.170 C 
BRANCH  13  14
HETATM   14  O3  UNL     1      27.696   6.480  49.134  1.00  0.00    -0.392 OA
HETATM   15  H14 UNL     1      27.678   7.487  49.082  1.00  0.00     0.210 HD
ENDBRANCH  13  14
BRANCH  13  16
HETATM   16  C18 UNL     1      25.613   6.811  50.148  1.00  0.00     0.306 C 
BRANCH  16  17
HETATM   17  N4  UNL     1      24.789   7.885  49.628  1.00  0.00     0.095 N 
HETATM   18  C19 UNL     1      23.619   8.074  50.438  1.00  0.00     0.298 C 
HETATM   19  C20 UNL     1      22.406   7.513  49.744  1.00  0.00     0.198 C 
HETATM   20  O4  UNL     1      22.149   8.101  48.530  1.00  0.00    -0.388 OA
HETATM   21  C21 UNL     1      23.280   8.457  47.808  1.00  0.00     0.198 C 
HETATM   22  C22 UNL     1      24.414   7.554  48.264  1.00  0.00     0.298 C 
ENDBRANCH  16  17
ENDBRANCH  13  16
ENDBRANCH  12  13
ENDBRANCH  11  12
ENDBRANCH  10  11
BRANCH   1  23
HETATM   23  O1  UNL     1      22.602   3.343  48.123  1.00  0.00    -0.353 OA
HETATM   24  C1  UNL     1      21.484   2.845  47.428  1.00  0.00     0.210 C 
ENDBRANCH   1  23
BRANCH   7  25
HETATM   25  N3  UNL     1      25.664   1.623  53.484  1.00  0.00    -0.340 N 
HETATM   26  H6  UNL     1      25.763   2.552  53.937  1.00  0.00     0.167 HD
BRANCH  25  27
HETATM   27  C7  UNL     1      26.919   0.970  53.550  1.00  0.00     0.035 A 
HETATM   28  C8  UNL     1      28.123   1.556  53.916  1.00  0.00     0.032 A 
HETATM   29  C9  UNL     1      29.320   0.888  53.968  1.00  0.00     0.046 A 
HETATM   30  C10 UNL     1      29.388  -0.449  53.646  1.00  0.00     0.138 A 
HETATM   31  F1  UNL     1      30.616  -1.010  53.730  1.00  0.00    -0.204 F 
HETATM   32  C11 UNL     1      28.217  -1.076  53.276  1.00  0.00     0.074 A 
HETATM   33 CL1  UNL     1      28.372  -2.767  52.883  1.00  0.00    -0.081 Cl
HETATM   34  C12 UNL     1      27.045  -0.362  53.240  1.00  0.00     0.056 A 
ENDBRANCH  25  27
ENDBRANCH   7  25
TORSDOF 9
ENDMDL
MODEL 7
REMARK VINA RESULT:      -7.8      4.082      6.650
REMARK  9 active torsions:
REMARK  status: ('A' for Active; 'I' for Inactive)
REMARK    1  A    between atoms: O1_2  and  C2_3 
REMARK    2  A    between atoms: C6_9  and  N3_10 
REMARK    3  A    between atoms: N3_10  and  C7_11 
REMARK    4  A    between atoms: C15_21  and  O2_22 
REMARK    5  A    between atoms: O2_22  and  C16_23 
REMARK    6  A    between atoms: C16_23  and  C17_24 
REMARK    7  A    between atoms: C17_24  and  O3_25 
REMARK    8  A    between atoms: C17_24  and  C18_26 
REMARK    9  A    between atoms: C18_26  and  N4_27 
ROOT
HETATM    1  C2  UNL     1      27.105   0.581  53.445  1.00  0.00     0.103 A 
HETATM    2  C3  UNL     1      26.574  -0.092  54.526  1.00  0.00     0.072 A 
HETATM    3  C4  UNL     1      25.250  -0.470  54.524  1.00  0.00     0.075 A 
HETATM    4  N1  UNL     1      24.826  -1.118  55.619  1.00  0.00    -0.241 NA
HETATM    5  C5  UNL     1      23.547  -1.521  55.698  1.00  0.00     0.236 A 
HETATM    6  N2  UNL     1      22.735  -1.258  54.671  1.00  0.00    -0.224 NA
HETATM    7  C6  UNL     1      23.068  -0.622  53.549  1.00  0.00     0.142 A 
HETATM    8  C13 UNL     1      24.378  -0.220  53.491  1.00  0.00     0.042 A 
HETATM    9  C14 UNL     1      24.956   0.453  52.437  1.00  0.00     0.057 A 
HETATM   10  C15 UNL     1      26.277   0.847  52.400  1.00  0.00     0.103 A 
ENDROOT
BRANCH  10  11
HETATM   11  O2  UNL     1      26.798   1.518  51.316  1.00  0.00    -0.346 OA
BRANCH  11  12
HETATM   12  C16 UNL     1      26.776   2.891  51.086  1.00  0.00     0.209 C 
BRANCH  12  13
HETATM   13  C17 UNL     1      26.423   3.074  49.605  1.00  0.00     0.170 C 
BRANCH  13  14
HETATM   14  O3  UNL     1      27.352   3.974  49.042  1.00  0.00    -0.392 OA
HETATM   15  H14 UNL     1      28.085   4.062  49.729  1.00  0.00     0.210 HD
ENDBRANCH  13  14
BRANCH  13  16
HETATM   16  C18 UNL     1      25.083   3.740  49.561  1.00  0.00     0.306 C 
BRANCH  16  17
HETATM   17  N4  UNL     1      24.962   4.798  50.545  1.00  0.00     0.095 N 
HETATM   18  C19 UNL     1      23.748   4.662  51.300  1.00  0.00     0.298 C 
HETATM   19  C20 UNL     1      22.736   5.683  50.850  1.00  0.00     0.198 C 
HETATM   20  O4  UNL     1      23.160   6.980  51.006  1.00  0.00    -0.388 OA
HETATM   21  C21 UNL     1      24.515   7.177  50.783  1.00  0.00     0.198 C 
HETATM   22  C22 UNL     1      24.989   6.074  49.851  1.00  0.00     0.298 C 
ENDBRANCH  16  17
ENDBRANCH  13  16
ENDBRANCH  12  13
ENDBRANCH  11  12
ENDBRANCH  10  11
BRANCH   1  23
HETATM   23  O1  UNL     1      28.422   0.969  53.419  1.00  0.00    -0.353 OA
HETATM   24  C1  UNL     1      28.917   2.104  54.090  1.00  0.00     0.210 C 
ENDBRANCH   1  23
BRANCH   7  25
HETATM   25  N3  UNL     1      22.221  -0.345  52.470  1.00  0.00    -0.340 N 
HETATM   26  H6  UNL     1      22.230  -0.913  51.602  1.00  0.00     0.167 HD
BRANCH  25  27
HETATM   27  C7  UNL     1      21.248   0.672  52.315  1.00  0.00     0.035 A 
HETATM   28  C8  UNL     1      21.437   2.025  52.563  1.00  0.00     0.032 A 
HETATM   29  C9  UNL     1      20.467   2.981  52.400  1.00  0.00     0.046 A 
HETATM   30  C10 UNL     1      19.208   2.630  51.965  1.00  0.00     0.138 A 
HETATM   31  F1  UNL     1      18.328   3.650  51.839  1.00  0.00    -0.204 F 
HETATM   32  C11 UNL     1      18.971   1.298  51.705  1.00  0.00     0.074 A 
HETATM   33 CL1  UNL     1      17.359   0.923  51.158  1.00  0.00    -0.081 Cl
HETATM   34  C12 UNL     1      19.977   0.380  51.885  1.00  0.00     0.056 A 
ENDBRANCH  25  27
ENDBRANCH   7  25
TORSDOF 9
ENDMDL
MODEL 8
REMARK VINA RESULT:      -7.7      4.072      6.984
REMARK  9 active torsions:
REMARK  status: ('A' for Active; 'I' for Inactive)
REMARK    1  A    between atoms: O1_2  and  C2_3 
REMARK    2  A    between atoms: C6_9  and  N3_10 
REMARK    3  A    between atoms: N3_10  and  C7_11 
REMARK    4  A    between atoms: C15_21  and  O2_22 
REMARK    5  A    between atoms: O2_22  and  C16_23 
REMARK    6  A    between atoms: C16_23  and  C17_24 
REMARK    7  A    between atoms: C17_24  and  O3_25 
REMARK    8  A    between atoms: C17_24  and  C18_26 
REMARK    9  A    between atoms: C18_26  and  N4_27 
ROOT
HETATM    1  C2  UNL     1      26.228  -0.115  52.988  1.00  0.00     0.103 A 
HETATM    2  C3  UNL     1      25.413  -0.772  53.886  1.00  0.00     0.072 A 
HETATM    3  C4  UNL     1      24.069  -0.473  53.948  1.00  0.00     0.075 A 
HETATM    4  N1  UNL     1      23.359  -1.164  54.851  1.00  0.00    -0.241 NA
HETATM    5  C5  UNL     1      22.042  -0.933  54.977  1.00  0.00     0.236 A 
HETATM    6  N2  UNL     1      21.481  -0.013  54.188  1.00  0.00    -0.224 NA
HETATM    7  C6  UNL     1      22.107   0.718  53.267  1.00  0.00     0.142 A 
HETATM    8  C13 UNL     1      23.450   0.466  53.156  1.00  0.00     0.042 A 
HETATM    9  C14 UNL     1      24.307   1.093  52.278  1.00  0.00     0.057 A 
HETATM   10  C15 UNL     1      25.656   0.822  52.185  1.00  0.00     0.103 A 
ENDROOT
BRANCH  10  11
HETATM   11  O2  UNL     1      26.462   1.482  51.286  1.00  0.00    -0.346 OA
BRANCH  11  12
HETATM   12  C16 UNL     1      26.837   2.823  51.318  1.00  0.00     0.209 C 
BRANCH  12  13
HETATM   13  C17 UNL     1      26.396   3.426  49.979  1.00  0.00     0.170 C 
BRANCH  13  14
HETATM   14  O3  UNL     1      27.463   4.199  49.475  1.00  0.00    -0.392 OA
HETATM   15  H14 UNL     1      28.070   4.358  50.265  1.00  0.00     0.210 HD
ENDBRANCH  13  14
BRANCH  13  16
HETATM   16  C18 UNL     1      25.272   4.369  50.279  1.00  0.00     0.306 C 
BRANCH  16  17
HETATM   17  N4  UNL     1      24.233   4.325  49.268  1.00  0.00     0.095 N 
HETATM   18  C19 UNL     1      23.282   5.382  49.462  1.00  0.00     0.298 C 
HETATM   19  C20 UNL     1      22.006   4.837  50.047  1.00  0.00     0.198 C 
HETATM   20  O4  UNL     1      21.398   3.894  49.254  1.00  0.00    -0.388 OA
HETATM   21  C21 UNL     1      22.273   3.067  48.565  1.00  0.00     0.198 C 
HETATM   22  C22 UNL     1      23.577   3.030  49.345  1.00  0.00     0.298 C 
ENDBRANCH  16  17
ENDBRANCH  13  16
ENDBRANCH  12  13
ENDBRANCH  11  12
ENDBRANCH  10  11
BRANCH   1  23
HETATM   23  O1  UNL     1      27.571  -0.392  52.904  1.00  0.00    -0.353 OA
HETATM   24  C1  UNL     1      28.495  -0.105  53.926  1.00  0.00     0.210 C 
ENDBRANCH   1  23
BRANCH   7  25
HETATM   25  N3  UNL     1      21.525   1.683  52.437  1.00  0.00    -0.340 N 
HETATM   26  H6  UNL     1      22.005   2.574  52.207  1.00  0.00     0.167 HD
BRANCH  25  27
HETATM   27  C7  UNL     1      20.271   1.680  51.779  1.00  0.00     0.035 A 
HETATM   28  C8  UNL     1      19.797   0.686  50.935  1.00  0.00     0.032 A 
HETATM   29  C9  UNL     1      18.573   0.720  50.315  1.00  0.00     0.046 A 
HETATM   30  C10 UNL     1      17.724   1.787  50.508  1.00  0.00     0.138 A 
HETATM   31  F1  UNL     1      16.543   1.720  49.850  1.00  0.00    -0.204 F 
HETATM   32  C11 UNL     1      18.150   2.800  51.338  1.00  0.00     0.074 A 
HETATM   33 CL1  UNL     1      17.027   4.118  51.540  1.00  0.00    -0.081 Cl
HETATM   34  C12 UNL     1      19.384   2.717  51.934  1.00  0.00     0.056 A 
ENDBRANCH  25  27
ENDBRANCH   7  25
TORSDOF 9
ENDMDL
MODEL 9
REMARK VINA RESULT:      -7.7      3.667      5.017
REMARK  9 active torsions:
REMARK  status: ('A' for Active; 'I' for Inactive)
REMARK    1  A    between atoms: O1_2  and  C2_3 
REMARK    2  A    between atoms: C6_9  and  N3_10 
REMARK    3  A    between atoms: N3_10  and  C7_11 
REMARK    4  A    between atoms: C15_21  and  O2_22 
REMARK    5  A    between atoms: O2_22  and  C16_23 
REMARK    6  A    between atoms: C16_23  and  C17_24 
REMARK    7  A    between atoms: C17_24  and  O3_25 
REMARK    8  A    between atoms: C17_24  and  C18_26 
REMARK    9  A    between atoms: C18_26  and  N4_27 
ROOT
HETATM    1  C2  UNL     1      22.374   0.434  53.560  1.00  0.00     0.103 A 
HETATM    2  C3  UNL     1      23.676  -0.017  53.502  1.00  0.00     0.072 A 
HETATM    3  C4  UNL     1      24.609   0.658  52.746  1.00  0.00     0.075 A 
HETATM    4  N1  UNL     1      25.847   0.144  52.752  1.00  0.00    -0.241 NA
HETATM    5  C5  UNL     1      26.817   0.741  52.039  1.00  0.00     0.236 A 
HETATM    6  N2  UNL     1      26.508   1.837  51.342  1.00  0.00    -0.224 NA
HETATM    7  C6  UNL     1      25.310   2.416  51.277  1.00  0.00     0.142 A 
HETATM    8  C13 UNL     1      24.336   1.789  52.012  1.00  0.00     0.042 A 
HETATM    9  C14 UNL     1      23.023   2.197  52.104  1.00  0.00     0.057 A 
HETATM   10  C15 UNL     1      22.061   1.551  52.850  1.00  0.00     0.103 A 
ENDROOT
BRANCH  10  11
HETATM   11  O2  UNL     1      20.763   2.008  52.903  1.00  0.00    -0.346 OA
BRANCH  11  12
HETATM   12  C16 UNL     1      19.749   1.769  51.979  1.00  0.00     0.209 C 
BRANCH  12  13
HETATM   13  C17 UNL     1      19.427   3.123  51.333  1.00  0.00     0.170 C 
BRANCH  13  14
HETATM   14  O3  UNL     1      18.304   3.665  51.992  1.00  0.00    -0.392 OA
HETATM   15  H14 UNL     1      17.606   2.937  51.967  1.00  0.00     0.210 HD
ENDBRANCH  13  14
BRANCH  13  16
HETATM   16  C18 UNL     1      19.016   2.840  49.921  1.00  0.00     0.306 C 
BRANCH  16  17
HETATM   17  N4  UNL     1      19.925   3.428  48.957  1.00  0.00     0.095 N 
HETATM   18  C19 UNL     1      20.575   2.412  48.177  1.00  0.00     0.298 C 
HETATM   19  C20 UNL     1      22.001   2.239  48.629  1.00  0.00     0.198 C 
HETATM   20  O4  UNL     1      22.756   3.380  48.507  1.00  0.00    -0.388 OA
HETATM   21  C21 UNL     1      22.070   4.559  48.760  1.00  0.00     0.198 C 
HETATM   22  C22 UNL     1      20.906   4.220  49.678  1.00  0.00     0.298 C 
ENDBRANCH  16  17
ENDBRANCH  13  16
ENDBRANCH  12  13
ENDBRANCH  11  12
ENDBRANCH  10  11
BRANCH   1  23
HETATM   23  O1  UNL     1      21.423  -0.218  54.307  1.00  0.00    -0.353 OA
HETATM   24  C1  UNL     1      21.419  -1.608  54.528  1.00  0.00     0.210 C 
ENDBRANCH   1  23
BRANCH   7  25
HETATM   25  N3  UNL     1      24.981   3.564  50.550  1.00  0.00    -0.340 N 
HETATM   26  H6  UNL     1      23.998   3.873  50.421  1.00  0.00     0.167 HD
BRANCH  25  27
HETATM   27  C7  UNL     1      25.819   4.489  49.881  1.00  0.00     0.035 A 
HETATM   28  C8  UNL     1      26.949   4.175  49.138  1.00  0.00     0.032 A 
HETATM   29  C9  UNL     1      27.736   5.102  48.504  1.00  0.00     0.046 A 
HETATM   30  C10 UNL     1      27.431   6.443  48.577  1.00  0.00     0.138 A 
HETATM   31  F1  UNL     1      28.273   7.271  47.916  1.00  0.00    -0.204 F 
HETATM   32  C11 UNL     1      26.318   6.806  49.304  1.00  0.00     0.074 A 
HETATM   33 CL1  UNL     1      25.989   8.517  49.355  1.00  0.00    -0.081 Cl
HETATM   34  C12 UNL     1      25.563   5.838  49.920  1.00  0.00     0.056 A 
ENDBRANCH  25  27
ENDBRANCH   7  25
TORSDOF 9
ENDMDL
