MODEL 1
REMARK VINA RESULT:      -6.3      0.000      0.000
REMARK  9 active torsions:
REMARK  status: ('A' for Active; 'I' for Inactive)
REMARK    1  A    between atoms: N1_2  and  C3_4 
REMARK    2  A    between atoms: C3_4  and  C4_5 
REMARK    3  A    between atoms: C5_6  and  C6_7 
REMARK       I    between atoms: C6_7  and  N2_9 
REMARK    4  A    between atoms: C10_15  and  C11_16 
REMARK    5  A    between atoms: C11_16  and  C12_17 
REMARK    6  A    between atoms: C12_17  and  O2_18 
REMARK    7  A    between atoms: C13_19  and  C14_20 
REMARK    8  A    between atoms: C14_20  and  C15_21 
REMARK    9  A    between atoms: C15_21  and  N4_22 
ROOT
HETATM    1  C6  UNL     1      25.053   1.343  52.226  1.00  0.00     0.245 C 
HETATM    2  O1  UNL     1      24.241   1.063  53.173  1.00  0.00    -0.268 OA
HETATM    3  N2  UNL     1      24.764   2.489  51.421  1.00  0.00    -0.317 N 
HETATM    4  C7  UNL     1      25.554   2.940  50.327  1.00  0.00     0.148 C 
HETATM    5  C8  UNL     1      24.766   3.681  49.317  1.00  0.00     0.100 C 
HETATM    6  S1  UNL     1      23.048   3.303  49.860  1.00  0.00    -0.112 SA
HETATM    7  C9  UNL     1      23.616   3.377  51.597  1.00  0.00     0.252 C 
HETATM    8  N3  UNL     1      24.167   4.697  51.813  1.00  0.00    -0.363 N 
HETATM    9  C10 UNL     1      24.543   5.629  50.806  1.00  0.00     0.013 C 
HETATM   10  C13 UNL     1      24.928   5.140  49.654  1.00  0.00    -0.041 C 
HETATM   11  H15 UNL     1      24.275   4.930  52.843  1.00  0.00     0.162 HD
ENDROOT
BRANCH   1  12
HETATM   12  C5  UNL     1      26.229   0.528  51.971  1.00  0.00     0.072 C 
HETATM   13  C4  UNL     1      27.152   0.192  52.834  1.00  0.00     0.008 C 
BRANCH  13  14
HETATM   14  C3  UNL     1      27.386   0.449  54.254  1.00  0.00     0.299 C 
BRANCH  14  15
HETATM   15  N1  UNL     1      28.787   0.374  54.622  1.00  0.00     0.083 N 
HETATM   16  C1  UNL     1      29.521  -0.615  53.858  1.00  0.00     0.309 C 
HETATM   17  C2  UNL     1      29.329   1.716  54.370  1.00  0.00     0.309 C 
ENDBRANCH  14  15
ENDBRANCH  13  14
ENDBRANCH   1  12
BRANCH  10  18
HETATM   18  C14 UNL     1      25.538   5.972  48.627  1.00  0.00     0.056 C 
BRANCH  18  19
HETATM   19  C15 UNL     1      27.067   5.831  48.632  1.00  0.00     0.115 C 
BRANCH  19  20
HETATM   20  N4  UNL     1      27.692   7.000  49.200  1.00  0.00    -0.430 N 
HETATM   21  H25 UNL     1      28.667   7.144  48.924  1.00  0.00     0.149 HD
HETATM   22  H26 UNL     1      27.446   7.173  50.183  1.00  0.00     0.149 HD
ENDBRANCH  19  20
ENDBRANCH  18  19
ENDBRANCH  10  18
BRANCH   9  23
HETATM   23  C11 UNL     1      24.475   7.049  51.123  1.00  0.00     0.083 C 
BRANCH  23  24
HETATM   24  C12 UNL     1      23.097   7.568  50.694  1.00  0.00     0.170 C 
BRANCH  24  25
HETATM   25  O2  UNL     1      22.140   6.862  51.418  1.00  0.00    -0.400 OA
HETATM   26  H20 UNL     1      22.497   6.748  52.332  1.00  0.00     0.209 HD
ENDBRANCH  24  25
ENDBRANCH  23  24
ENDBRANCH   9  23
TORSDOF 9
ENDMDL
MODEL 2
REMARK VINA RESULT:      -6.2      2.446      6.589
REMARK  9 active torsions:
REMARK  status: ('A' for Active; 'I' for Inactive)
REMARK    1  A    between atoms: N1_2  and  C3_4 
REMARK    2  A    between atoms: C3_4  and  C4_5 
REMARK    3  A    between atoms: C5_6  and  C6_7 
REMARK       I    between atoms: C6_7  and  N2_9 
REMARK    4  A    between atoms: C10_15  and  C11_16 
REMARK    5  A    between atoms: C11_16  and  C12_17 
REMARK    6  A    between atoms: C12_17  and  O2_18 
REMARK    7  A    between atoms: C13_19  and  C14_20 
REMARK    8  A    between atoms: C14_20  and  C15_21 
REMARK    9  A    between atoms: C15_21  and  N4_22 
ROOT
HETATM    1  C6  UNL     1      25.309   3.463  49.829  1.00  0.00     0.245 C 
HETATM    2  O1  UNL     1      24.352   4.094  49.265  1.00  0.00    -0.268 OA
HETATM    3  N2  UNL     1      25.017   2.758  51.040  1.00  0.00    -0.317 N 
HETATM    4  C7  UNL     1      25.961   2.011  51.798  1.00  0.00     0.148 C 
HETATM    5  C8  UNL     1      25.614   1.939  53.236  1.00  0.00     0.100 C 
HETATM    6  S1  UNL     1      24.280   3.204  53.342  1.00  0.00    -0.112 SA
HETATM    7  C9  UNL     1      23.707   2.692  51.683  1.00  0.00     0.252 C 
HETATM    8  N3  UNL     1      23.374   1.286  51.759  1.00  0.00    -0.363 N 
HETATM    9  C10 UNL     1      23.759   0.383  52.789  1.00  0.00     0.013 C 
HETATM   10  C13 UNL     1      24.878   0.637  53.419  1.00  0.00    -0.041 C 
HETATM   11  H15 UNL     1      22.785   0.961  50.938  1.00  0.00     0.162 HD
ENDROOT
BRANCH   1  12
HETATM   12  C5  UNL     1      26.650   3.459  49.268  1.00  0.00     0.072 C 
HETATM   13  C4  UNL     1      27.317   4.494  48.828  1.00  0.00     0.008 C 
BRANCH  13  14
HETATM   14  C3  UNL     1      27.054   5.927  48.718  1.00  0.00     0.299 C 
BRANCH  14  15
HETATM   15  N1  UNL     1      28.097   6.644  48.010  1.00  0.00     0.083 N 
HETATM   16  C1  UNL     1      28.345   7.964  48.554  1.00  0.00     0.309 C 
HETATM   17  C2  UNL     1      29.298   5.808  48.135  1.00  0.00     0.309 C 
ENDBRANCH  14  15
ENDBRANCH  13  14
ENDBRANCH   1  12
BRANCH  10  18
HETATM   18  C14 UNL     1      25.484  -0.319  54.334  1.00  0.00     0.056 C 
BRANCH  18  19
HETATM   19  C15 UNL     1      26.739   0.267  54.999  1.00  0.00     0.115 C 
BRANCH  19  20
HETATM   20  N4  UNL     1      27.915  -0.487  54.638  1.00  0.00    -0.430 N 
HETATM   21  H25 UNL     1      28.762   0.073  54.510  1.00  0.00     0.149 HD
HETATM   22  H26 UNL     1      27.738  -1.243  53.964  1.00  0.00     0.149 HD
ENDBRANCH  19  20
ENDBRANCH  18  19
ENDBRANCH  10  18
BRANCH   9  23
HETATM   23  C11 UNL     1      22.889  -0.752  53.069  1.00  0.00     0.083 C 
BRANCH  23  24
HETATM   24  C12 UNL     1      21.860  -0.317  54.120  1.00  0.00     0.170 C 
BRANCH  24  25
HETATM   25  O2  UNL     1      21.959  -1.199  55.192  1.00  0.00    -0.400 OA
HETATM   26  H20 UNL     1      21.059  -1.272  55.592  1.00  0.00     0.209 HD
ENDBRANCH  24  25
ENDBRANCH  23  24
ENDBRANCH   9  23
TORSDOF 9
ENDMDL
MODEL 3
REMARK VINA RESULT:      -6.1      2.177      3.251
REMARK  9 active torsions:
REMARK  status: ('A' for Active; 'I' for Inactive)
REMARK    1  A    between atoms: N1_2  and  C3_4 
REMARK    2  A    between atoms: C3_4  and  C4_5 
REMARK    3  A    between atoms: C5_6  and  C6_7 
REMARK       I    between atoms: C6_7  and  N2_9 
REMARK    4  A    between atoms: C10_15  and  C11_16 
REMARK    5  A    between atoms: C11_16  and  C12_17 
REMARK    6  A    between atoms: C12_17  and  O2_18 
REMARK    7  A    between atoms: C13_19  and  C14_20 
REMARK    8  A    between atoms: C14_20  and  C15_21 
REMARK    9  A    between atoms: C15_21  and  N4_22 
ROOT
HETATM    1  C6  UNL     1      25.332   1.296  53.599  1.00  0.00     0.245 C 
HETATM    2  O1  UNL     1      25.837   1.991  54.545  1.00  0.00    -0.268 OA
HETATM    3  N2  UNL     1      24.619   1.990  52.572  1.00  0.00    -0.317 N 
HETATM    4  C7  UNL     1      23.991   1.375  51.453  1.00  0.00     0.148 C 
HETATM    5  C8  UNL     1      22.845   2.157  50.936  1.00  0.00     0.100 C 
HETATM    6  S1  UNL     1      22.611   3.381  52.292  1.00  0.00    -0.112 SA
HETATM    7  C9  UNL     1      24.426   3.438  52.509  1.00  0.00     0.252 C 
HETATM    8  N3  UNL     1      24.996   3.859  51.249  1.00  0.00    -0.363 N 
HETATM    9  C10 UNL     1      24.339   3.868  49.987  1.00  0.00     0.013 C 
HETATM   10  C13 UNL     1      23.388   2.988  49.803  1.00  0.00    -0.041 C 
HETATM   11  H15 UNL     1      26.004   4.180  51.344  1.00  0.00     0.162 HD
ENDROOT
BRANCH   1  12
HETATM   12  C5  UNL     1      25.473  -0.151  53.563  1.00  0.00     0.072 C 
HETATM   13  C4  UNL     1      26.547  -0.826  53.246  1.00  0.00     0.008 C 
BRANCH  13  14
HETATM   14  C3  UNL     1      27.908  -0.478  52.841  1.00  0.00     0.299 C 
BRANCH  14  15
HETATM   15  N1  UNL     1      28.821  -0.358  53.961  1.00  0.00     0.083 N 
HETATM   16  C1  UNL     1      30.029  -1.141  53.794  1.00  0.00     0.309 C 
HETATM   17  C2  UNL     1      29.149   1.072  54.044  1.00  0.00     0.309 C 
ENDBRANCH  14  15
ENDBRANCH  13  14
ENDBRANCH   1  12
BRANCH  10  18
HETATM   18  C14 UNL     1      22.794   2.754  48.495  1.00  0.00     0.056 C 
BRANCH  18  19
HETATM   19  C15 UNL     1      21.804   1.580  48.535  1.00  0.00     0.115 C 
BRANCH  19  20
HETATM   20  N4  UNL     1      20.479   2.008  48.159  1.00  0.00    -0.430 N 
HETATM   21  H25 UNL     1      19.839   2.164  48.943  1.00  0.00     0.149 HD
HETATM   22  H26 UNL     1      20.105   1.536  47.327  1.00  0.00     0.149 HD
ENDBRANCH  19  20
ENDBRANCH  18  19
ENDBRANCH  10  18
BRANCH   9  23
HETATM   23  C11 UNL     1      24.768   4.846  48.995  1.00  0.00     0.083 C 
BRANCH  23  24
HETATM   24  C12 UNL     1      25.059   6.165  49.721  1.00  0.00     0.170 C 
BRANCH  24  25
HETATM   25  O2  UNL     1      26.400   6.151  50.092  1.00  0.00    -0.400 OA
HETATM   26  H20 UNL     1      26.778   5.294  49.778  1.00  0.00     0.209 HD
ENDBRANCH  24  25
ENDBRANCH  23  24
ENDBRANCH   9  23
TORSDOF 9
ENDMDL
MODEL 4
REMARK VINA RESULT:      -6.0      2.267      6.981
REMARK  9 active torsions:
REMARK  status: ('A' for Active; 'I' for Inactive)
REMARK    1  A    between atoms: N1_2  and  C3_4 
REMARK    2  A    between atoms: C3_4  and  C4_5 
REMARK    3  A    between atoms: C5_6  and  C6_7 
REMARK       I    between atoms: C6_7  and  N2_9 
REMARK    4  A    between atoms: C10_15  and  C11_16 
REMARK    5  A    between atoms: C11_16  and  C12_17 
REMARK    6  A    between atoms: C12_17  and  O2_18 
REMARK    7  A    between atoms: C13_19  and  C14_20 
REMARK    8  A    between atoms: C14_20  and  C15_21 
REMARK    9  A    between atoms: C15_21  and  N4_22 
ROOT
HETATM    1  C6  UNL     1      25.760   3.222  49.896  1.00  0.00     0.245 C 
HETATM    2  O1  UNL     1      24.639   3.168  49.286  1.00  0.00    -0.268 OA
HETATM    3  N2  UNL     1      25.875   2.523  51.139  1.00  0.00    -0.317 N 
HETATM    4  C7  UNL     1      27.044   2.481  51.949  1.00  0.00     0.148 C 
HETATM    5  C8  UNL     1      26.741   2.275  53.383  1.00  0.00     0.100 C 
HETATM    6  S1  UNL     1      24.920   2.548  53.404  1.00  0.00    -0.112 SA
HETATM    7  C9  UNL     1      24.813   1.739  51.767  1.00  0.00     0.252 C 
HETATM    8  N3  UNL     1      25.342   0.402  51.915  1.00  0.00    -0.363 N 
HETATM    9  C10 UNL     1      26.132  -0.079  52.997  1.00  0.00     0.013 C 
HETATM   10  C13 UNL     1      26.876   0.795  53.626  1.00  0.00    -0.041 C 
HETATM   11  H15 UNL     1      25.081  -0.232  51.104  1.00  0.00     0.162 HD
ENDROOT
BRANCH   1  12
HETATM   12  C5  UNL     1      26.883   3.969  49.353  1.00  0.00     0.072 C 
HETATM   13  C4  UNL     1      26.883   5.220  48.975  1.00  0.00     0.008 C 
BRANCH  13  14
HETATM   14  C3  UNL     1      25.888   6.290  48.934  1.00  0.00     0.299 C 
BRANCH  14  15
HETATM   15  N1  UNL     1      25.829   7.059  50.162  1.00  0.00     0.083 N 
HETATM   16  C1  UNL     1      25.878   8.490  49.937  1.00  0.00     0.309 C 
HETATM   17  C2  UNL     1      24.557   6.687  50.795  1.00  0.00     0.309 C 
ENDBRANCH  14  15
ENDBRANCH  13  14
ENDBRANCH   1  12
BRANCH  10  18
HETATM   18  C14 UNL     1      27.882   0.394  54.600  1.00  0.00     0.056 C 
BRANCH  18  19
HETATM   19  C15 UNL     1      29.145  -0.139  53.907  1.00  0.00     0.115 C 
BRANCH  19  20
HETATM   20  N4  UNL     1      30.030   0.941  53.545  1.00  0.00    -0.430 N 
HETATM   21  H25 UNL     1      29.939   1.267  52.579  1.00  0.00     0.149 HD
HETATM   22  H26 UNL     1      30.979   0.853  53.929  1.00  0.00     0.149 HD
ENDBRANCH  19  20
ENDBRANCH  18  19
ENDBRANCH  10  18
BRANCH   9  23
HETATM   23  C11 UNL     1      26.058  -1.496  53.326  1.00  0.00     0.083 C 
BRANCH  23  24
HETATM   24  C12 UNL     1      26.749  -2.283  52.204  1.00  0.00     0.170 C 
BRANCH  24  25
HETATM   25  O2  UNL     1      27.740  -3.064  52.791  1.00  0.00    -0.400 OA
HETATM   26  H20 UNL     1      27.731  -3.938  52.330  1.00  0.00     0.209 HD
ENDBRANCH  24  25
ENDBRANCH  23  24
ENDBRANCH   9  23
TORSDOF 9
ENDMDL
MODEL 5
REMARK VINA RESULT:      -6.0      2.422      6.861
REMARK  9 active torsions:
REMARK  status: ('A' for Active; 'I' for Inactive)
REMARK    1  A    between atoms: N1_2  and  C3_4 
REMARK    2  A    between atoms: C3_4  and  C4_5 
REMARK    3  A    between atoms: C5_6  and  C6_7 
REMARK       I    between atoms: C6_7  and  N2_9 
REMARK    4  A    between atoms: C10_15  and  C11_16 
REMARK    5  A    between atoms: C11_16  and  C12_17 
REMARK    6  A    between atoms: C12_17  and  O2_18 
REMARK    7  A    between atoms: C13_19  and  C14_20 
REMARK    8  A    between atoms: C14_20  and  C15_21 
REMARK    9  A    between atoms: C15_21  and  N4_22 
ROOT
HETATM    1  C6  UNL     1      24.283   3.786  51.503  1.00  0.00     0.245 C 
HETATM    2  O1  UNL     1      23.765   4.638  52.302  1.00  0.00    -0.268 OA
HETATM    3  N2  UNL     1      24.967   2.668  52.076  1.00  0.00    -0.317 N 
HETATM    4  C7  UNL     1      25.604   1.633  51.337  1.00  0.00     0.148 C 
HETATM    5  C8  UNL     1      26.722   1.004  52.076  1.00  0.00     0.100 C 
HETATM    6  S1  UNL     1      26.931   2.184  53.474  1.00  0.00    -0.112 SA
HETATM    7  C9  UNL     1      25.117   2.414  53.508  1.00  0.00     0.252 C 
HETATM    8  N3  UNL     1      24.524   1.116  53.743  1.00  0.00    -0.363 N 
HETATM    9  C10 UNL     1      25.171  -0.144  53.604  1.00  0.00     0.013 C 
HETATM   10  C13 UNL     1      26.146  -0.222  52.734  1.00  0.00    -0.041 C 
HETATM   11  H15 UNL     1      23.508   1.179  54.045  1.00  0.00     0.162 HD
ENDROOT
BRANCH   1  12
HETATM   12  C5  UNL     1      24.185   3.942  50.061  1.00  0.00     0.072 C 
HETATM   13  C4  UNL     1      24.895   4.742  49.310  1.00  0.00     0.008 C 
BRANCH  13  14
HETATM   14  C3  UNL     1      25.965   5.709  49.547  1.00  0.00     0.299 C 
BRANCH  14  15
HETATM   15  N1  UNL     1      26.825   5.901  48.396  1.00  0.00     0.083 N 
HETATM   16  C1  UNL     1      27.340   7.251  48.292  1.00  0.00     0.309 C 
HETATM   17  C2  UNL     1      27.928   4.947  48.570  1.00  0.00     0.309 C 
ENDBRANCH  14  15
ENDBRANCH  13  14
ENDBRANCH   1  12
BRANCH  10  18
HETATM   18  C14 UNL     1      26.737  -1.495  52.347  1.00  0.00     0.056 C 
BRANCH  18  19
HETATM   19  C15 UNL     1      28.087  -1.716  53.045  1.00  0.00     0.115 C 
BRANCH  19  20
HETATM   20  N4  UNL     1      28.413  -3.120  53.106  1.00  0.00    -0.430 N 
HETATM   21  H25 UNL     1      28.067  -3.606  53.938  1.00  0.00     0.149 HD
HETATM   22  H26 UNL     1      29.364  -3.345  52.786  1.00  0.00     0.149 HD
ENDBRANCH  19  20
ENDBRANCH  18  19
ENDBRANCH  10  18
BRANCH   9  23
HETATM   23  C11 UNL     1      24.706  -1.250  54.430  1.00  0.00     0.083 C 
BRANCH  23  24
HETATM   24  C12 UNL     1      23.221  -1.022  54.743  1.00  0.00     0.170 C 
BRANCH  24  25
HETATM   25  O2  UNL     1      22.892  -1.839  55.820  1.00  0.00    -0.400 OA
HETATM   26  H20 UNL     1      22.269  -1.328  56.391  1.00  0.00     0.209 HD
ENDBRANCH  24  25
ENDBRANCH  23  24
ENDBRANCH   9  23
TORSDOF 9
ENDMDL
MODEL 6
REMARK VINA RESULT:      -5.9      2.986      7.174
REMARK  9 active torsions:
REMARK  status: ('A' for Active; 'I' for Inactive)
REMARK    1  A    between atoms: N1_2  and  C3_4 
REMARK    2  A    between atoms: C3_4  and  C4_5 
REMARK    3  A    between atoms: C5_6  and  C6_7 
REMARK       I    between atoms: C6_7  and  N2_9 
REMARK    4  A    between atoms: C10_15  and  C11_16 
REMARK    5  A    between atoms: C11_16  and  C12_17 
REMARK    6  A    between atoms: C12_17  and  O2_18 
REMARK    7  A    between atoms: C13_19  and  C14_20 
REMARK    8  A    between atoms: C14_20  and  C15_21 
REMARK    9  A    between atoms: C15_21  and  N4_22 
ROOT
HETATM    1  C6  UNL     1      24.519   3.524  51.183  1.00  0.00     0.245 C 
HETATM    2  O1  UNL     1      24.077   4.503  51.877  1.00  0.00    -0.268 OA
HETATM    3  N2  UNL     1      25.188   2.467  51.877  1.00  0.00    -0.317 N 
HETATM    4  C7  UNL     1      25.743   1.310  51.263  1.00  0.00     0.148 C 
HETATM    5  C8  UNL     1      26.873   0.739  52.031  1.00  0.00     0.100 C 
HETATM    6  S1  UNL     1      27.201   2.092  53.237  1.00  0.00    -0.112 SA
HETATM    7  C9  UNL     1      25.402   2.408  53.321  1.00  0.00     0.252 C 
HETATM    8  N3  UNL     1      24.771   1.184  53.765  1.00  0.00    -0.363 N 
HETATM    9  C10 UNL     1      25.359  -0.111  53.776  1.00  0.00     0.013 C 
HETATM   10  C13 UNL     1      26.284  -0.355  52.882  1.00  0.00    -0.041 C 
HETATM   11  H15 UNL     1      23.776   1.337  54.102  1.00  0.00     0.162 HD
ENDROOT
BRANCH   1  12
HETATM   12  C5  UNL     1      24.352   3.482  49.740  1.00  0.00     0.072 C 
HETATM   13  C4  UNL     1      23.360   2.940  49.082  1.00  0.00     0.008 C 
BRANCH  13  14
HETATM   14  C3  UNL     1      22.137   2.230  49.450  1.00  0.00     0.299 C 
BRANCH  14  15
HETATM   15  N1  UNL     1      21.122   3.099  50.012  1.00  0.00     0.083 N 
HETATM   16  C1  UNL     1      19.934   3.190  49.188  1.00  0.00     0.309 C 
HETATM   17  C2  UNL     1      20.790   2.516  51.319  1.00  0.00     0.309 C 
ENDBRANCH  14  15
ENDBRANCH  13  14
ENDBRANCH   1  12
BRANCH  10  18
HETATM   18  C14 UNL     1      26.803  -1.695  52.653  1.00  0.00     0.056 C 
BRANCH  18  19
HETATM   19  C15 UNL     1      28.262  -1.815  53.119  1.00  0.00     0.115 C 
BRANCH  19  20
HETATM   20  N4  UNL     1      28.664  -3.197  53.210  1.00  0.00    -0.430 N 
HETATM   21  H25 UNL     1      27.892  -3.866  53.272  1.00  0.00     0.149 HD
HETATM   22  H26 UNL     1      29.482  -3.358  53.811  1.00  0.00     0.149 HD
ENDBRANCH  19  20
ENDBRANCH  18  19
ENDBRANCH  10  18
BRANCH   9  23
HETATM   23  C11 UNL     1      24.895  -1.069  54.771  1.00  0.00     0.083 C 
BRANCH  23  24
HETATM   24  C12 UNL     1      23.361  -1.067  54.756  1.00  0.00     0.170 C 
BRANCH  24  25
HETATM   25  O2  UNL     1      22.932  -1.835  55.835  1.00  0.00    -0.400 OA
HETATM   26  H20 UNL     1      23.741  -2.140  56.313  1.00  0.00     0.209 HD
ENDBRANCH  24  25
ENDBRANCH  23  24
ENDBRANCH   9  23
TORSDOF 9
ENDMDL
MODEL 7
REMARK VINA RESULT:      -5.8      3.275      4.957
REMARK  9 active torsions:
REMARK  status: ('A' for Active; 'I' for Inactive)
REMARK    1  A    between atoms: N1_2  and  C3_4 
REMARK    2  A    between atoms: C3_4  and  C4_5 
REMARK    3  A    between atoms: C5_6  and  C6_7 
REMARK       I    between atoms: C6_7  and  N2_9 
REMARK    4  A    between atoms: C10_15  and  C11_16 
REMARK    5  A    between atoms: C11_16  and  C12_17 
REMARK    6  A    between atoms: C12_17  and  O2_18 
REMARK    7  A    between atoms: C13_19  and  C14_20 
REMARK    8  A    between atoms: C14_20  and  C15_21 
REMARK    9  A    between atoms: C15_21  and  N4_22 
ROOT
HETATM    1  C6  UNL     1      26.215   1.153  51.545  1.00  0.00     0.245 C 
HETATM    2  O1  UNL     1      26.991   1.954  50.920  1.00  0.00    -0.268 OA
HETATM    3  N2  UNL     1      24.852   1.550  51.718  1.00  0.00    -0.317 N 
HETATM    4  C7  UNL     1      23.858   0.786  52.390  1.00  0.00     0.148 C 
HETATM    5  C8  UNL     1      22.789   1.625  52.978  1.00  0.00     0.100 C 
HETATM    6  S1  UNL     1      23.532   3.303  52.826  1.00  0.00    -0.112 SA
HETATM    7  C9  UNL     1      24.267   2.797  51.230  1.00  0.00     0.252 C 
HETATM    8  N3  UNL     1      23.178   2.410  50.360  1.00  0.00    -0.363 N 
HETATM    9  C10 UNL     1      21.845   2.115  50.758  1.00  0.00     0.013 C 
HETATM   10  C13 UNL     1      21.673   1.643  51.967  1.00  0.00    -0.041 C 
HETATM   11  H15 UNL     1      23.469   2.359  49.340  1.00  0.00     0.162 HD
ENDROOT
BRANCH   1  12
HETATM   12  C5  UNL     1      26.696  -0.116  52.065  1.00  0.00     0.072 C 
HETATM   13  C4  UNL     1      27.230  -0.330  53.239  1.00  0.00     0.008 C 
BRANCH  13  14
HETATM   14  C3  UNL     1      27.542   0.498  54.403  1.00  0.00     0.299 C 
BRANCH  14  15
HETATM   15  N1  UNL     1      28.931   0.909  54.451  1.00  0.00     0.083 N 
HETATM   16  C1  UNL     1      29.811   0.019  53.722  1.00  0.00     0.309 C 
HETATM   17  C2  UNL     1      28.961   2.253  53.858  1.00  0.00     0.309 C 
ENDBRANCH  14  15
ENDBRANCH  13  14
ENDBRANCH   1  12
BRANCH  10  18
HETATM   18  C14 UNL     1      20.396   1.104  52.411  1.00  0.00     0.056 C 
BRANCH  18  19
HETATM   19  C15 UNL     1      20.579  -0.242  53.128  1.00  0.00     0.115 C 
BRANCH  19  20
HETATM   20  N4  UNL     1      20.237  -0.135  54.525  1.00  0.00    -0.430 N 
HETATM   21  H25 UNL     1      20.931  -0.526  55.169  1.00  0.00     0.149 HD
HETATM   22  H26 UNL     1      19.246  -0.312  54.730  1.00  0.00     0.149 HD
ENDBRANCH  19  20
ENDBRANCH  18  19
ENDBRANCH  10  18
BRANCH   9  23
HETATM   23  C11 UNL     1      20.772   2.356  49.802  1.00  0.00     0.083 C 
BRANCH  23  24
HETATM   24  C12 UNL     1      21.309   2.056  48.396  1.00  0.00     0.170 C 
BRANCH  24  25
HETATM   25  O2  UNL     1      21.662   0.709  48.364  1.00  0.00    -0.400 OA
HETATM   26  H20 UNL     1      21.478   0.384  47.449  1.00  0.00     0.209 HD
ENDBRANCH  24  25
ENDBRANCH  23  24
ENDBRANCH   9  23
TORSDOF 9
ENDMDL
MODEL 8
REMARK VINA RESULT:      -5.7      3.073      6.006
REMARK  9 active torsions:
REMARK  status: ('A' for Active; 'I' for Inactive)
REMARK    1  A    between atoms: N1_2  and  C3_4 
REMARK    2  A    between atoms: C3_4  and  C4_5 
REMARK    3  A    between atoms: C5_6  and  C6_7 
REMARK       I    between atoms: C6_7  and  N2_9 
REMARK    4  A    between atoms: C10_15  and  C11_16 
REMARK    5  A    between atoms: C11_16  and  C12_17 
REMARK    6  A    between atoms: C12_17  and  O2_18 
REMARK    7  A    between atoms: C13_19  and  C14_20 
REMARK    8  A    between atoms: C14_20  and  C15_21 
REMARK    9  A    between atoms: C15_21  and  N4_22 
ROOT
HETATM    1  C6  UNL     1      21.554   0.800  52.382  1.00  0.00     0.245 C 
HETATM    2  O1  UNL     1      21.320   0.550  53.614  1.00  0.00    -0.268 OA
HETATM    3  N2  UNL     1      22.710   1.583  52.071  1.00  0.00    -0.317 N 
HETATM    4  C7  UNL     1      23.114   1.958  50.760  1.00  0.00     0.148 C 
HETATM    5  C8  UNL     1      23.891   3.218  50.738  1.00  0.00     0.100 C 
HETATM    6  S1  UNL     1      23.605   3.842  52.447  1.00  0.00    -0.112 SA
HETATM    7  C9  UNL     1      23.656   2.116  53.049  1.00  0.00     0.252 C 
HETATM    8  N3  UNL     1      24.947   1.573  52.687  1.00  0.00    -0.363 N 
HETATM    9  C10 UNL     1      25.854   2.118  51.736  1.00  0.00     0.013 C 
HETATM   10  C13 UNL     1      25.341   2.811  50.751  1.00  0.00    -0.041 C 
HETATM   11  H15 UNL     1      25.179   0.684  53.218  1.00  0.00     0.162 HD
ENDROOT
BRANCH   1  12
HETATM   12  C5  UNL     1      20.678   0.311  51.330  1.00  0.00     0.072 C 
HETATM   13  C4  UNL     1      19.512   0.797  50.992  1.00  0.00     0.008 C 
BRANCH  13  14
HETATM   14  C3  UNL     1      18.676   1.902  51.456  1.00  0.00     0.299 C 
BRANCH  14  15
HETATM   15  N1  UNL     1      18.860   3.116  50.685  1.00  0.00     0.083 N 
HETATM   16  C1  UNL     1      19.913   3.964  51.206  1.00  0.00     0.309 C 
HETATM   17  C2  UNL     1      19.193   2.668  49.326  1.00  0.00     0.309 C 
ENDBRANCH  14  15
ENDBRANCH  13  14
ENDBRANCH   1  12
BRANCH  10  18
HETATM   18  C14 UNL     1      26.136   3.233  49.607  1.00  0.00     0.056 C 
BRANCH  18  19
HETATM   19  C15 UNL     1      26.094   4.758  49.432  1.00  0.00     0.115 C 
BRANCH  19  20
HETATM   20  N4  UNL     1      27.425   5.304  49.328  1.00  0.00    -0.430 N 
HETATM   21  H25 UNL     1      27.988   5.230  50.179  1.00  0.00     0.149 HD
HETATM   22  H26 UNL     1      27.479   6.183  48.797  1.00  0.00     0.149 HD
ENDBRANCH  19  20
ENDBRANCH  18  19
ENDBRANCH  10  18
BRANCH   9  23
HETATM   23  C11 UNL     1      27.277   1.868  51.921  1.00  0.00     0.083 C 
BRANCH  23  24
HETATM   24  C12 UNL     1      27.525   1.599  53.411  1.00  0.00     0.170 C 
BRANCH  24  25
HETATM   25  O2  UNL     1      27.259   2.781  54.098  1.00  0.00    -0.400 OA
HETATM   26  H20 UNL     1      27.179   2.548  55.054  1.00  0.00     0.209 HD
ENDBRANCH  24  25
ENDBRANCH  23  24
ENDBRANCH   9  23
TORSDOF 9
ENDMDL
MODEL 9
REMARK VINA RESULT:      -5.7      2.793      3.783
REMARK  9 active torsions:
REMARK  status: ('A' for Active; 'I' for Inactive)
REMARK    1  A    between atoms: N1_2  and  C3_4 
REMARK    2  A    between atoms: C3_4  and  C4_5 
REMARK    3  A    between atoms: C5_6  and  C6_7 
REMARK       I    between atoms: C6_7  and  N2_9 
REMARK    4  A    between atoms: C10_15  and  C11_16 
REMARK    5  A    between atoms: C11_16  and  C12_17 
REMARK    6  A    between atoms: C12_17  and  O2_18 
REMARK    7  A    between atoms: C13_19  and  C14_20 
REMARK    8  A    between atoms: C14_20  and  C15_21 
REMARK    9  A    between atoms: C15_21  and  N4_22 
ROOT
HETATM    1  C6  UNL     1      23.113  -0.386  53.187  1.00  0.00     0.245 C 
HETATM    2  O1  UNL     1      22.530  -1.458  52.807  1.00  0.00    -0.268 OA
HETATM    3  N2  UNL     1      22.794   0.825  52.496  1.00  0.00    -0.317 N 
HETATM    4  C7  UNL     1      23.351   2.101  52.783  1.00  0.00     0.148 C 
HETATM    5  C8  UNL     1      23.374   2.997  51.604  1.00  0.00     0.100 C 
HETATM    6  S1  UNL     1      22.979   1.811  50.252  1.00  0.00    -0.112 SA
HETATM    7  C9  UNL     1      21.844   0.940  51.391  1.00  0.00     0.252 C 
HETATM    8  N3  UNL     1      20.850   1.898  51.822  1.00  0.00    -0.363 N 
HETATM    9  C10 UNL     1      20.935   3.313  51.700  1.00  0.00     0.013 C 
HETATM   10  C13 UNL     1      22.132   3.843  51.703  1.00  0.00    -0.041 C 
HETATM   11  H15 UNL     1      20.002   1.436  52.263  1.00  0.00     0.162 HD
ENDROOT
BRANCH   1  12
HETATM   12  C5  UNL     1      24.070  -0.391  54.282  1.00  0.00     0.072 C 
HETATM   13  C4  UNL     1      25.355  -0.614  54.197  1.00  0.00     0.008 C 
BRANCH  13  14
HETATM   14  C3  UNL     1      26.286  -0.917  53.112  1.00  0.00     0.299 C 
BRANCH  14  15
HETATM   15  N1  UNL     1      27.388   0.022  53.030  1.00  0.00     0.083 N 
HETATM   16  C1  UNL     1      27.011   1.289  52.437  1.00  0.00     0.309 C 
HETATM   17  C2  UNL     1      27.834   0.221  54.415  1.00  0.00     0.309 C 
ENDBRANCH  14  15
ENDBRANCH  13  14
ENDBRANCH   1  12
BRANCH  10  18
HETATM   18  C14 UNL     1      22.341   5.280  51.802  1.00  0.00     0.056 C 
BRANCH  18  19
HETATM   19  C15 UNL     1      23.731   5.677  51.281  1.00  0.00     0.115 C 
BRANCH  19  20
HETATM   20  N4  UNL     1      24.372   6.607  52.178  1.00  0.00    -0.430 N 
HETATM   21  H25 UNL     1      24.754   7.443  51.729  1.00  0.00     0.149 HD
HETATM   22  H26 UNL     1      24.938   6.161  52.911  1.00  0.00     0.149 HD
ENDBRANCH  19  20
ENDBRANCH  18  19
ENDBRANCH  10  18
BRANCH   9  23
HETATM   23  C11 UNL     1      19.694   4.069  51.582  1.00  0.00     0.083 C 
BRANCH  23  24
HETATM   24  C12 UNL     1      18.530   3.070  51.532  1.00  0.00     0.170 C 
BRANCH  24  25
HETATM   25  O2  UNL     1      17.427   3.687  52.116  1.00  0.00    -0.400 OA
HETATM   26  H20 UNL     1      17.015   4.257  51.423  1.00  0.00     0.209 HD
ENDBRANCH  24  25
ENDBRANCH  23  24
ENDBRANCH   9  23
TORSDOF 9
ENDMDL
