MODEL 1
REMARK VINA RESULT:      -7.4      0.000      0.000
REMARK  8 active torsions:
REMARK  status: ('A' for Active; 'I' for Inactive)
REMARK    1  A    between atoms: C2_3  and  N2_4 
REMARK    2  A    between atoms: C2_3  and  C12_17 
REMARK    3  A    between atoms: N2_4  and  C3_5 
REMARK    4  A    between atoms: C5_7  and  O1_8 
REMARK    5  A    between atoms: C7_10  and  O2_11 
REMARK    6  A    between atoms: C9_13  and  O3_14 
REMARK    7  A    between atoms: C14_19  and  O4_20 
REMARK    8  A    between atoms: C16_22  and  O5_23 
ROOT
HETATM    1  C1  UNL     1      21.665   4.577  50.020  1.00  0.00     0.180 C 
HETATM    2  N1  UNL     1      22.400   4.314  51.208  1.00  0.00    -0.276 NA
HETATM    3  C2  UNL     1      23.640   4.491  51.455  1.00  0.00     0.150 C 
ENDROOT
BRANCH   3   4
HETATM    4  N2  UNL     1      23.872   4.057  52.818  1.00  0.00    -0.339 N 
HETATM    5  H4  UNL     1      23.721   4.714  53.645  1.00  0.00     0.167 HD
BRANCH   4   6
HETATM    6  C3  UNL     1      24.317   2.720  53.097  1.00  0.00     0.039 A 
HETATM    7  C4  UNL     1      23.640   1.542  52.966  1.00  0.00     0.069 A 
HETATM    8  C5  UNL     1      24.273   0.358  53.272  1.00  0.00     0.106 A 
HETATM    9  C7  UNL     1      25.581   0.304  53.711  1.00  0.00     0.135 A 
HETATM   10  C9  UNL     1      26.317   1.442  53.864  1.00  0.00     0.106 A 
HETATM   11  C11 UNL     1      25.639   2.626  53.544  1.00  0.00     0.069 A 
BRANCH   8  12
HETATM   12  O1  UNL     1      23.623  -0.855  53.154  1.00  0.00    -0.353 OA
HETATM   13  C6  UNL     1      22.304  -1.015  53.626  1.00  0.00     0.210 C 
ENDBRANCH   8  12
BRANCH   9  14
HETATM   14  O2  UNL     1      26.245  -0.875  54.026  1.00  0.00    -0.351 OA
HETATM   15  C8  UNL     1      27.010  -1.563  53.023  1.00  0.00     0.210 C 
ENDBRANCH   9  14
BRANCH  10  16
HETATM   16  O3  UNL     1      27.646   1.566  54.296  1.00  0.00    -0.353 OA
HETATM   17  C10 UNL     1      28.603   2.300  53.608  1.00  0.00     0.210 C 
ENDBRANCH  10  16
ENDBRANCH   4   6
ENDBRANCH   3   4
BRANCH   3  18
HETATM   18  C12 UNL     1      24.754   4.987  50.674  1.00  0.00     0.087 C 
HETATM   19  C13 UNL     1      24.849   6.269  50.397  1.00  0.00     0.073 C 
HETATM   20  C14 UNL     1      25.836   7.024  49.651  1.00  0.00     0.100 C 
HETATM   21  C16 UNL     1      26.801   6.519  48.935  1.00  0.00     0.084 C 
HETATM   22  C18 UNL     1      27.335   5.203  48.548  1.00  0.00     0.126 C 
HETATM   23  C19 UNL     1      26.797   4.087  49.358  1.00  0.00     0.038 A 
HETATM   24  C20 UNL     1      26.566   2.921  49.941  1.00  0.00     0.123 A 
HETATM   25  N3  UNL     1      25.699   4.013  50.256  1.00  0.00    -0.319 N 
BRANCH  20  26
HETATM   26  O4  UNL     1      25.731   8.403  49.718  1.00  0.00    -0.353 OA
HETATM   27  C15 UNL     1      24.706   9.096  49.065  1.00  0.00     0.210 C 
ENDBRANCH  20  26
BRANCH  21  28
HETATM   28  O5  UNL     1      27.597   7.482  48.332  1.00  0.00    -0.357 OA
HETATM   29  C17 UNL     1      28.980   7.596  48.504  1.00  0.00     0.209 C 
ENDBRANCH  21  28
ENDBRANCH   3  18
TORSDOF 8
ENDMDL
MODEL 2
REMARK VINA RESULT:      -7.3      2.362      7.421
REMARK  8 active torsions:
REMARK  status: ('A' for Active; 'I' for Inactive)
REMARK    1  A    between atoms: C2_3  and  N2_4 
REMARK    2  A    between atoms: C2_3  and  C12_17 
REMARK    3  A    between atoms: N2_4  and  C3_5 
REMARK    4  A    between atoms: C5_7  and  O1_8 
REMARK    5  A    between atoms: C7_10  and  O2_11 
REMARK    6  A    between atoms: C9_13  and  O3_14 
REMARK    7  A    between atoms: C14_19  and  O4_20 
REMARK    8  A    between atoms: C16_22  and  O5_23 
ROOT
HETATM    1  C1  UNL     1      28.137   2.305  53.143  1.00  0.00     0.180 C 
HETATM    2  N1  UNL     1      27.548   2.543  51.871  1.00  0.00    -0.276 NA
HETATM    3  C2  UNL     1      26.379   2.256  51.447  1.00  0.00     0.150 C 
ENDROOT
BRANCH   3   4
HETATM    4  N2  UNL     1      26.293   2.717  50.076  1.00  0.00    -0.339 N 
HETATM    5  H4  UNL     1      26.228   2.031  49.261  1.00  0.00     0.167 HD
BRANCH   4   6
HETATM    6  C3  UNL     1      26.296   4.121  49.771  1.00  0.00     0.039 A 
HETATM    7  C4  UNL     1      25.429   5.092  50.180  1.00  0.00     0.069 A 
HETATM    8  C5  UNL     1      25.633   6.395  49.785  1.00  0.00     0.106 A 
HETATM    9  C7  UNL     1      26.691   6.773  48.980  1.00  0.00     0.135 A 
HETATM   10  C9  UNL     1      27.596   5.854  48.536  1.00  0.00     0.106 A 
HETATM   11  C11 UNL     1      27.355   4.540  48.959  1.00  0.00     0.069 A 
BRANCH   8  12
HETATM   12  O1  UNL     1      24.778   7.407  50.175  1.00  0.00    -0.353 OA
HETATM   13  C6  UNL     1      23.585   7.116  50.869  1.00  0.00     0.210 C 
ENDBRANCH   8  12
BRANCH   9  14
HETATM   14  O2  UNL     1      26.923   8.078  48.567  1.00  0.00    -0.351 OA
HETATM   15  C8  UNL     1      27.785   8.936  49.331  1.00  0.00     0.210 C 
ENDBRANCH   9  14
BRANCH  10  16
HETATM   16  O3  UNL     1      28.719   6.064  47.721  1.00  0.00    -0.353 OA
HETATM   17  C10 UNL     1      30.009   5.725  48.104  1.00  0.00     0.210 C 
ENDBRANCH  10  16
ENDBRANCH   4   6
ENDBRANCH   3   4
BRANCH   3  18
HETATM   18  C12 UNL     1      25.235   1.593  52.041  1.00  0.00     0.087 C 
HETATM   19  C13 UNL     1      24.065   2.192  52.071  1.00  0.00     0.073 C 
HETATM   20  C14 UNL     1      22.780   1.772  52.591  1.00  0.00     0.100 C 
HETATM   21  C16 UNL     1      22.560   0.710  53.314  1.00  0.00     0.084 C 
HETATM   22  C18 UNL     1      23.303  -0.420  53.895  1.00  0.00     0.126 C 
HETATM   23  C19 UNL     1      24.668  -0.573  53.345  1.00  0.00     0.038 A 
HETATM   24  C20 UNL     1      25.872  -1.007  53.004  1.00  0.00     0.123 A 
HETATM   25  N3  UNL     1      25.474   0.293  52.559  1.00  0.00    -0.319 N 
BRANCH  20  26
HETATM   26  O4  UNL     1      21.700   2.581  52.281  1.00  0.00    -0.353 OA
HETATM   27  C15 UNL     1      21.868   3.908  51.871  1.00  0.00     0.210 C 
ENDBRANCH  20  26
BRANCH  21  28
HETATM   28  O5  UNL     1      21.228   0.557  53.671  1.00  0.00    -0.357 OA
HETATM   29  C17 UNL     1      20.551  -0.666  53.721  1.00  0.00     0.209 C 
ENDBRANCH  21  28
ENDBRANCH   3  18
TORSDOF 8
ENDMDL
MODEL 3
REMARK VINA RESULT:      -7.2      2.284      7.696
REMARK  8 active torsions:
REMARK  status: ('A' for Active; 'I' for Inactive)
REMARK    1  A    between atoms: C2_3  and  N2_4 
REMARK    2  A    between atoms: C2_3  and  C12_17 
REMARK    3  A    between atoms: N2_4  and  C3_5 
REMARK    4  A    between atoms: C5_7  and  O1_8 
REMARK    5  A    between atoms: C7_10  and  O2_11 
REMARK    6  A    between atoms: C9_13  and  O3_14 
REMARK    7  A    between atoms: C14_19  and  O4_20 
REMARK    8  A    between atoms: C16_22  and  O5_23 
ROOT
HETATM    1  C1  UNL     1      28.214   2.365  53.165  1.00  0.00     0.180 C 
HETATM    2  N1  UNL     1      27.625   2.529  51.881  1.00  0.00    -0.276 NA
HETATM    3  C2  UNL     1      26.477   2.167  51.459  1.00  0.00     0.150 C 
ENDROOT
BRANCH   3   4
HETATM    4  N2  UNL     1      26.380   2.577  50.072  1.00  0.00    -0.339 N 
HETATM    5  H4  UNL     1      26.234   1.866  49.290  1.00  0.00     0.167 HD
BRANCH   4   6
HETATM    6  C3  UNL     1      26.481   3.963  49.707  1.00  0.00     0.039 A 
HETATM    7  C4  UNL     1      27.367   4.569  48.864  1.00  0.00     0.069 A 
HETATM    8  C5  UNL     1      27.270   5.923  48.636  1.00  0.00     0.106 A 
HETATM    9  C7  UNL     1      26.302   6.711  49.228  1.00  0.00     0.135 A 
HETATM   10  C9  UNL     1      25.384   6.170  50.080  1.00  0.00     0.106 A 
HETATM   11  C11 UNL     1      25.515   4.791  50.288  1.00  0.00     0.069 A 
BRANCH   8  12
HETATM   12  O1  UNL     1      28.148   6.574  47.792  1.00  0.00    -0.353 OA
HETATM   13  C6  UNL     1      29.532   6.588  48.062  1.00  0.00     0.210 C 
ENDBRANCH   8  12
BRANCH   9  14
HETATM   14  O2  UNL     1      26.178   8.078  49.016  1.00  0.00    -0.351 OA
HETATM   15  C8  UNL     1      26.835   9.008  49.892  1.00  0.00     0.210 C 
ENDBRANCH   9  14
BRANCH  10  16
HETATM   16  O3  UNL     1      24.343   6.820  50.760  1.00  0.00    -0.353 OA
HETATM   17  C10 UNL     1      23.054   6.925  50.255  1.00  0.00     0.210 C 
ENDBRANCH  10  16
ENDBRANCH   4   6
ENDBRANCH   3   4
BRANCH   3  18
HETATM   18  C12 UNL     1      25.364   1.465  52.066  1.00  0.00     0.087 C 
HETATM   19  C13 UNL     1      24.175   2.025  52.112  1.00  0.00     0.073 C 
HETATM   20  C14 UNL     1      22.911   1.560  52.647  1.00  0.00     0.100 C 
HETATM   21  C16 UNL     1      22.737   0.490  53.372  1.00  0.00     0.084 C 
HETATM   22  C18 UNL     1      23.524  -0.614  53.941  1.00  0.00     0.126 C 
HETATM   23  C19 UNL     1      24.887  -0.721  53.373  1.00  0.00     0.038 A 
HETATM   24  C20 UNL     1      26.100  -1.113  53.015  1.00  0.00     0.123 A 
HETATM   25  N3  UNL     1      25.653   0.173  52.578  1.00  0.00    -0.319 N 
BRANCH  20  26
HETATM   26  O4  UNL     1      21.801   2.333  52.353  1.00  0.00    -0.353 OA
HETATM   27  C15 UNL     1      21.744   3.135  51.209  1.00  0.00     0.210 C 
ENDBRANCH  20  26
BRANCH  21  28
HETATM   28  O5  UNL     1      21.415   0.292  53.745  1.00  0.00    -0.357 OA
HETATM   29  C17 UNL     1      20.857  -0.947  54.076  1.00  0.00     0.209 C 
ENDBRANCH  21  28
ENDBRANCH   3  18
TORSDOF 8
ENDMDL
MODEL 4
REMARK VINA RESULT:      -7.1      1.833      7.820
REMARK  8 active torsions:
REMARK  status: ('A' for Active; 'I' for Inactive)
REMARK    1  A    between atoms: C2_3  and  N2_4 
REMARK    2  A    between atoms: C2_3  and  C12_17 
REMARK    3  A    between atoms: N2_4  and  C3_5 
REMARK    4  A    between atoms: C5_7  and  O1_8 
REMARK    5  A    between atoms: C7_10  and  O2_11 
REMARK    6  A    between atoms: C9_13  and  O3_14 
REMARK    7  A    between atoms: C14_19  and  O4_20 
REMARK    8  A    between atoms: C16_22  and  O5_23 
ROOT
HETATM    1  C1  UNL     1      27.907   2.189  53.104  1.00  0.00     0.180 C 
HETATM    2  N1  UNL     1      27.413   2.492  51.805  1.00  0.00    -0.276 NA
HETATM    3  C2  UNL     1      26.275   2.237  51.287  1.00  0.00     0.150 C 
ENDROOT
BRANCH   3   4
HETATM    4  N2  UNL     1      26.292   2.762  49.936  1.00  0.00    -0.339 N 
HETATM    5  H4  UNL     1      26.304   2.116  49.088  1.00  0.00     0.167 HD
BRANCH   4   6
HETATM    6  C3  UNL     1      26.294   4.179  49.699  1.00  0.00     0.039 A 
HETATM    7  C4  UNL     1      25.434   5.131  50.165  1.00  0.00     0.069 A 
HETATM    8  C5  UNL     1      25.636   6.452  49.829  1.00  0.00     0.106 A 
HETATM    9  C7  UNL     1      26.684   6.865  49.029  1.00  0.00     0.135 A 
HETATM   10  C9  UNL     1      27.581   5.967  48.530  1.00  0.00     0.106 A 
HETATM   11  C11 UNL     1      27.342   4.635  48.893  1.00  0.00     0.069 A 
BRANCH   8  12
HETATM   12  O1  UNL     1      24.789   7.445  50.278  1.00  0.00    -0.353 OA
HETATM   13  C6  UNL     1      23.393   7.244  50.309  1.00  0.00     0.210 C 
ENDBRANCH   8  12
BRANCH   9  14
HETATM   14  O2  UNL     1      26.913   8.188  48.675  1.00  0.00    -0.351 OA
HETATM   15  C8  UNL     1      27.752   9.020  49.492  1.00  0.00     0.210 C 
ENDBRANCH   9  14
BRANCH  10  16
HETATM   16  O3  UNL     1      28.693   6.214  47.711  1.00  0.00    -0.353 OA
HETATM   17  C10 UNL     1      29.977   5.792  48.026  1.00  0.00     0.210 C 
ENDBRANCH  10  16
ENDBRANCH   4   6
ENDBRANCH   3   4
BRANCH   3  18
HETATM   18  C12 UNL     1      25.087   1.560  51.765  1.00  0.00     0.087 C 
HETATM   19  C13 UNL     1      25.174   0.683  52.741  1.00  0.00     0.073 C 
HETATM   20  C14 UNL     1      24.169  -0.125  53.404  1.00  0.00     0.100 C 
HETATM   21  C16 UNL     1      22.928  -0.258  53.027  1.00  0.00     0.084 C 
HETATM   22  C18 UNL     1      22.026   0.214  51.966  1.00  0.00     0.126 C 
HETATM   23  C19 UNL     1      22.568   1.356  51.195  1.00  0.00     0.038 A 
HETATM   24  C20 UNL     1      22.739   2.399  50.397  1.00  0.00     0.123 A 
HETATM   25  N3  UNL     1      23.872   1.914  51.122  1.00  0.00    -0.319 N 
BRANCH  20  26
HETATM   26  O4  UNL     1      24.582  -0.808  54.535  1.00  0.00    -0.353 OA
HETATM   27  C15 UNL     1      25.785  -0.506  55.180  1.00  0.00     0.210 C 
ENDBRANCH  20  26
BRANCH  21  28
HETATM   28  O5  UNL     1      22.193  -1.096  53.853  1.00  0.00    -0.357 OA
HETATM   29  C17 UNL     1      20.829  -0.949  54.129  1.00  0.00     0.209 C 
ENDBRANCH  21  28
ENDBRANCH   3  18
TORSDOF 8
ENDMDL
MODEL 5
REMARK VINA RESULT:      -6.9      3.705      6.730
REMARK  8 active torsions:
REMARK  status: ('A' for Active; 'I' for Inactive)
REMARK    1  A    between atoms: C2_3  and  N2_4 
REMARK    2  A    between atoms: C2_3  and  C12_17 
REMARK    3  A    between atoms: N2_4  and  C3_5 
REMARK    4  A    between atoms: C5_7  and  O1_8 
REMARK    5  A    between atoms: C7_10  and  O2_11 
REMARK    6  A    between atoms: C9_13  and  O3_14 
REMARK    7  A    between atoms: C14_19  and  O4_20 
REMARK    8  A    between atoms: C16_22  and  O5_23 
ROOT
HETATM    1  C1  UNL     1      22.833   4.331  52.395  1.00  0.00     0.180 C 
HETATM    2  N1  UNL     1      22.437   3.131  51.743  1.00  0.00    -0.276 NA
HETATM    3  C2  UNL     1      23.065   2.028  51.616  1.00  0.00     0.150 C 
ENDROOT
BRANCH   3   4
HETATM    4  N2  UNL     1      22.211   1.132  50.860  1.00  0.00    -0.339 N 
HETATM    5  H4  UNL     1      22.472   0.813  49.877  1.00  0.00     0.167 HD
BRANCH   4   6
HETATM    6  C3  UNL     1      20.979   0.647  51.418  1.00  0.00     0.039 A 
HETATM    7  C4  UNL     1      19.708   0.772  50.937  1.00  0.00     0.069 A 
HETATM    8  C5  UNL     1      18.662   0.204  51.628  1.00  0.00     0.106 A 
HETATM    9  C7  UNL     1      18.839  -0.498  52.805  1.00  0.00     0.135 A 
HETATM   10  C9  UNL     1      20.082  -0.661  53.342  1.00  0.00     0.106 A 
HETATM   11  C11 UNL     1      21.120  -0.069  52.611  1.00  0.00     0.069 A 
BRANCH   8  12
HETATM   12  O1  UNL     1      17.361   0.308  51.175  1.00  0.00    -0.353 OA
HETATM   13  C6  UNL     1      16.644   1.514  51.312  1.00  0.00     0.210 C 
ENDBRANCH   8  12
BRANCH   9  14
HETATM   14  O2  UNL     1      17.804  -1.082  53.523  1.00  0.00    -0.351 OA
HETATM   15  C8  UNL     1      17.586  -2.501  53.453  1.00  0.00     0.210 C 
ENDBRANCH   9  14
BRANCH  10  16
HETATM   16  O3  UNL     1      20.438  -1.339  54.518  1.00  0.00    -0.353 OA
HETATM   17  C10 UNL     1      21.703  -1.866  54.738  1.00  0.00     0.210 C 
ENDBRANCH  10  16
ENDBRANCH   4   6
ENDBRANCH   3   4
BRANCH   3  18
HETATM   18  C12 UNL     1      24.371   1.565  52.041  1.00  0.00     0.087 C 
HETATM   19  C13 UNL     1      24.474   0.614  52.943  1.00  0.00     0.073 C 
HETATM   20  C14 UNL     1      25.629  -0.028  53.539  1.00  0.00     0.100 C 
HETATM   21  C16 UNL     1      26.868   0.349  53.398  1.00  0.00     0.084 C 
HETATM   22  C18 UNL     1      27.647   1.395  52.717  1.00  0.00     0.126 C 
HETATM   23  C19 UNL     1      26.874   2.135  51.694  1.00  0.00     0.038 A 
HETATM   24  C20 UNL     1      26.485   2.905  50.690  1.00  0.00     0.123 A 
HETATM   25  N3  UNL     1      25.482   2.196  51.422  1.00  0.00    -0.319 N 
BRANCH  20  26
HETATM   26  O4  UNL     1      25.373  -1.139  54.325  1.00  0.00    -0.353 OA
HETATM   27  C15 UNL     1      24.974  -1.021  55.660  1.00  0.00     0.210 C 
ENDBRANCH  20  26
BRANCH  21  28
HETATM   28  O5  UNL     1      27.767  -0.455  54.084  1.00  0.00    -0.357 OA
HETATM   29  C17 UNL     1      29.091  -0.108  54.371  1.00  0.00     0.209 C 
ENDBRANCH  21  28
ENDBRANCH   3  18
TORSDOF 8
ENDMDL
MODEL 6
REMARK VINA RESULT:      -6.9      1.723      8.031
REMARK  8 active torsions:
REMARK  status: ('A' for Active; 'I' for Inactive)
REMARK    1  A    between atoms: C2_3  and  N2_4 
REMARK    2  A    between atoms: C2_3  and  C12_17 
REMARK    3  A    between atoms: N2_4  and  C3_5 
REMARK    4  A    between atoms: C5_7  and  O1_8 
REMARK    5  A    between atoms: C7_10  and  O2_11 
REMARK    6  A    between atoms: C9_13  and  O3_14 
REMARK    7  A    between atoms: C14_19  and  O4_20 
REMARK    8  A    between atoms: C16_22  and  O5_23 
ROOT
HETATM    1  C1  UNL     1      27.637   2.203  52.574  1.00  0.00     0.180 C 
HETATM    2  N1  UNL     1      27.029   2.647  51.368  1.00  0.00    -0.276 NA
HETATM    3  C2  UNL     1      25.796   2.667  51.036  1.00  0.00     0.150 C 
ENDROOT
BRANCH   3   4
HETATM    4  N2  UNL     1      25.721   3.216  49.697  1.00  0.00    -0.339 N 
HETATM    5  H4  UNL     1      25.278   2.670  48.895  1.00  0.00     0.167 HD
BRANCH   4   6
HETATM    6  C3  UNL     1      26.248   4.522  49.407  1.00  0.00     0.039 A 
HETATM    7  C4  UNL     1      27.347   4.863  48.674  1.00  0.00     0.069 A 
HETATM    8  C5  UNL     1      27.662   6.192  48.502  1.00  0.00     0.106 A 
HETATM    9  C7  UNL     1      26.907   7.214  49.045  1.00  0.00     0.135 A 
HETATM   10  C9  UNL     1      25.796   6.944  49.789  1.00  0.00     0.106 A 
HETATM   11  C11 UNL     1      25.508   5.581  49.941  1.00  0.00     0.069 A 
BRANCH   8  12
HETATM   12  O1  UNL     1      28.766   6.580  47.768  1.00  0.00    -0.353 OA
HETATM   13  C6  UNL     1      30.070   6.392  48.272  1.00  0.00     0.210 C 
ENDBRANCH   8  12
BRANCH   9  14
HETATM   14  O2  UNL     1      27.199   8.562  48.887  1.00  0.00    -0.351 OA
HETATM   15  C8  UNL     1      27.982   9.252  49.875  1.00  0.00     0.210 C 
ENDBRANCH   9  14
BRANCH  10  16
HETATM   16  O3  UNL     1      24.923   7.852  50.407  1.00  0.00    -0.353 OA
HETATM   17  C10 UNL     1      23.545   7.689  50.424  1.00  0.00     0.210 C 
ENDBRANCH  10  16
ENDBRANCH   4   6
ENDBRANCH   3   4
BRANCH   3  18
HETATM   18  C12 UNL     1      24.575   2.256  51.699  1.00  0.00     0.087 C 
HETATM   19  C13 UNL     1      24.508   1.086  52.294  1.00  0.00     0.073 C 
HETATM   20  C14 UNL     1      23.436   0.433  53.019  1.00  0.00     0.100 C 
HETATM   21  C16 UNL     1      22.202   0.846  53.090  1.00  0.00     0.084 C 
HETATM   22  C18 UNL     1      21.363   1.950  52.597  1.00  0.00     0.126 C 
HETATM   23  C19 UNL     1      22.141   3.077  52.034  1.00  0.00     0.038 A 
HETATM   24  C20 UNL     1      22.544   4.241  51.551  1.00  0.00     0.123 A 
HETATM   25  N3  UNL     1      23.506   3.189  51.658  1.00  0.00    -0.319 N 
BRANCH  20  26
HETATM   26  O4  UNL     1      23.771  -0.731  53.690  1.00  0.00    -0.353 OA
HETATM   27  C15 UNL     1      24.836  -0.778  54.596  1.00  0.00     0.210 C 
ENDBRANCH  20  26
BRANCH  21  28
HETATM   28  O5  UNL     1      21.391   0.021  53.856  1.00  0.00    -0.357 OA
HETATM   29  C17 UNL     1      20.096  -0.374  53.506  1.00  0.00     0.209 C 
ENDBRANCH  21  28
ENDBRANCH   3  18
TORSDOF 8
ENDMDL
MODEL 7
REMARK VINA RESULT:      -6.7      2.120      7.667
REMARK  8 active torsions:
REMARK  status: ('A' for Active; 'I' for Inactive)
REMARK    1  A    between atoms: C2_3  and  N2_4 
REMARK    2  A    between atoms: C2_3  and  C12_17 
REMARK    3  A    between atoms: N2_4  and  C3_5 
REMARK    4  A    between atoms: C5_7  and  O1_8 
REMARK    5  A    between atoms: C7_10  and  O2_11 
REMARK    6  A    between atoms: C9_13  and  O3_14 
REMARK    7  A    between atoms: C14_19  and  O4_20 
REMARK    8  A    between atoms: C16_22  and  O5_23 
ROOT
HETATM    1  C1  UNL     1      27.420   2.248  52.714  1.00  0.00     0.180 C 
HETATM    2  N1  UNL     1      27.102   2.638  51.384  1.00  0.00    -0.276 NA
HETATM    3  C2  UNL     1      25.967   2.894  50.859  1.00  0.00     0.150 C 
ENDROOT
BRANCH   3   4
HETATM    4  N2  UNL     1      26.205   3.241  49.472  1.00  0.00    -0.339 N 
HETATM    5  H4  UNL     1      26.121   2.516  48.694  1.00  0.00     0.167 HD
BRANCH   4   6
HETATM    6  C3  UNL     1      26.563   4.583  49.102  1.00  0.00     0.039 A 
HETATM    7  C4  UNL     1      25.808   5.718  49.142  1.00  0.00     0.069 A 
HETATM    8  C5  UNL     1      26.363   6.918  48.759  1.00  0.00     0.106 A 
HETATM    9  C7  UNL     1      27.672   7.029  48.328  1.00  0.00     0.135 A 
HETATM   10  C9  UNL     1      28.483   5.935  48.264  1.00  0.00     0.106 A 
HETATM   11  C11 UNL     1      27.882   4.734  48.661  1.00  0.00     0.069 A 
BRANCH   8  12
HETATM   12  O1  UNL     1      25.632   8.089  48.783  1.00  0.00    -0.353 OA
HETATM   13  C6  UNL     1      25.331   8.726  50.005  1.00  0.00     0.210 C 
ENDBRANCH   8  12
BRANCH   9  14
HETATM   14  O2  UNL     1      28.260   8.225  47.937  1.00  0.00    -0.351 OA
HETATM   15  C8  UNL     1      28.972   9.027  48.892  1.00  0.00     0.210 C 
ENDBRANCH   9  14
BRANCH  10  16
HETATM   16  O3  UNL     1      29.824   5.871  47.854  1.00  0.00    -0.353 OA
HETATM   17  C10 UNL     1      30.889   5.834  48.744  1.00  0.00     0.210 C 
ENDBRANCH  10  16
ENDBRANCH   4   6
ENDBRANCH   3   4
BRANCH   3  18
HETATM   18  C12 UNL     1      24.608   2.878  51.359  1.00  0.00     0.087 C 
HETATM   19  C13 UNL     1      23.968   1.738  51.501  1.00  0.00     0.073 C 
HETATM   20  C14 UNL     1      22.631   1.435  51.970  1.00  0.00     0.100 C 
HETATM   21  C16 UNL     1      21.691   2.306  52.210  1.00  0.00     0.084 C 
HETATM   22  C18 UNL     1      21.477   3.761  52.161  1.00  0.00     0.126 C 
HETATM   23  C19 UNL     1      22.729   4.537  52.018  1.00  0.00     0.038 A 
HETATM   24  C20 UNL     1      23.651   5.486  51.971  1.00  0.00     0.123 A 
HETATM   25  N3  UNL     1      24.051   4.146  51.676  1.00  0.00    -0.319 N 
BRANCH  20  26
HETATM   26  O4  UNL     1      22.344   0.097  52.176  1.00  0.00    -0.353 OA
HETATM   27  C15 UNL     1      22.970  -0.645  53.183  1.00  0.00     0.210 C 
ENDBRANCH  20  26
BRANCH  21  28
HETATM   28  O5  UNL     1      20.509   1.729  52.651  1.00  0.00    -0.357 OA
HETATM   29  C17 UNL     1      19.282   1.817  51.986  1.00  0.00     0.209 C 
ENDBRANCH  21  28
ENDBRANCH   3  18
TORSDOF 8
ENDMDL
MODEL 8
REMARK VINA RESULT:      -6.7      1.976      7.177
REMARK  8 active torsions:
REMARK  status: ('A' for Active; 'I' for Inactive)
REMARK    1  A    between atoms: C2_3  and  N2_4 
REMARK    2  A    between atoms: C2_3  and  C12_17 
REMARK    3  A    between atoms: N2_4  and  C3_5 
REMARK    4  A    between atoms: C5_7  and  O1_8 
REMARK    5  A    between atoms: C7_10  and  O2_11 
REMARK    6  A    between atoms: C9_13  and  O3_14 
REMARK    7  A    between atoms: C14_19  and  O4_20 
REMARK    8  A    between atoms: C16_22  and  O5_23 
ROOT
HETATM    1  C1  UNL     1      21.936   1.348  49.824  1.00  0.00     0.180 C 
HETATM    2  N1  UNL     1      22.045   2.415  50.758  1.00  0.00    -0.276 NA
HETATM    3  C2  UNL     1      22.954   2.652  51.622  1.00  0.00     0.150 C 
ENDROOT
BRANCH   3   4
HETATM    4  N2  UNL     1      22.578   3.867  52.318  1.00  0.00    -0.339 N 
HETATM    5  H4  UNL     1      22.270   3.851  53.339  1.00  0.00     0.167 HD
BRANCH   4   6
HETATM    6  C3  UNL     1      22.607   5.137  51.646  1.00  0.00     0.039 A 
HETATM    7  C4  UNL     1      21.569   5.955  51.307  1.00  0.00     0.069 A 
HETATM    8  C5  UNL     1      21.826   7.154  50.680  1.00  0.00     0.106 A 
HETATM    9  C7  UNL     1      23.106   7.575  50.373  1.00  0.00     0.135 A 
HETATM   10  C9  UNL     1      24.189   6.807  50.685  1.00  0.00     0.106 A 
HETATM   11  C11 UNL     1      23.887   5.596  51.321  1.00  0.00     0.069 A 
BRANCH   8  12
HETATM   12  O1  UNL     1      20.804   8.010  50.318  1.00  0.00    -0.353 OA
HETATM   13  C6  UNL     1      19.819   7.606  49.393  1.00  0.00     0.210 C 
ENDBRANCH   8  12
BRANCH   9  14
HETATM   14  O2  UNL     1      23.396   8.778  49.743  1.00  0.00    -0.351 OA
HETATM   15  C8  UNL     1      23.424   8.854  48.309  1.00  0.00     0.210 C 
ENDBRANCH   9  14
BRANCH  10  16
HETATM   16  O3  UNL     1      25.545   7.081  50.448  1.00  0.00    -0.353 OA
HETATM   17  C10 UNL     1      26.237   6.599  49.346  1.00  0.00     0.210 C 
ENDBRANCH  10  16
ENDBRANCH   4   6
ENDBRANCH   3   4
BRANCH   3  18
HETATM   18  C12 UNL     1      24.173   1.969  52.004  1.00  0.00     0.087 C 
HETATM   19  C13 UNL     1      24.147   1.044  52.938  1.00  0.00     0.073 C 
HETATM   20  C14 UNL     1      25.194   0.218  53.506  1.00  0.00     0.100 C 
HETATM   21  C16 UNL     1      26.473   0.354  53.292  1.00  0.00     0.084 C 
HETATM   22  C18 UNL     1      27.393   1.215  52.534  1.00  0.00     0.126 C 
HETATM   23  C19 UNL     1      26.716   2.053  51.519  1.00  0.00     0.038 A 
HETATM   24  C20 UNL     1      26.422   2.850  50.503  1.00  0.00     0.123 A 
HETATM   25  N3  UNL     1      25.346   2.363  51.309  1.00  0.00    -0.319 N 
BRANCH  20  26
HETATM   26  O4  UNL     1      24.781  -0.802  54.347  1.00  0.00    -0.353 OA
HETATM   27  C15 UNL     1      23.432  -0.993  54.665  1.00  0.00     0.210 C 
ENDBRANCH  20  26
BRANCH  21  28
HETATM   28  O5  UNL     1      27.243  -0.581  53.968  1.00  0.00    -0.357 OA
HETATM   29  C17 UNL     1      28.551  -0.938  53.624  1.00  0.00     0.209 C 
ENDBRANCH  21  28
ENDBRANCH   3  18
TORSDOF 8
ENDMDL
MODEL 9
REMARK VINA RESULT:      -6.6      1.395      2.898
REMARK  8 active torsions:
REMARK  status: ('A' for Active; 'I' for Inactive)
REMARK    1  A    between atoms: C2_3  and  N2_4 
REMARK    2  A    between atoms: C2_3  and  C12_17 
REMARK    3  A    between atoms: N2_4  and  C3_5 
REMARK    4  A    between atoms: C5_7  and  O1_8 
REMARK    5  A    between atoms: C7_10  and  O2_11 
REMARK    6  A    between atoms: C9_13  and  O3_14 
REMARK    7  A    between atoms: C14_19  and  O4_20 
REMARK    8  A    between atoms: C16_22  and  O5_23 
ROOT
HETATM    1  C1  UNL     1      22.699   2.851  48.179  1.00  0.00     0.180 C 
HETATM    2  N1  UNL     1      23.050   2.948  49.554  1.00  0.00    -0.276 NA
HETATM    3  C2  UNL     1      23.791   3.800  50.148  1.00  0.00     0.150 C 
ENDROOT
BRANCH   3   4
HETATM    4  N2  UNL     1      23.818   3.441  51.552  1.00  0.00    -0.339 N 
HETATM    5  H4  UNL     1      23.167   3.904  52.258  1.00  0.00     0.167 HD
BRANCH   4   6
HETATM    6  C3  UNL     1      24.733   2.444  52.037  1.00  0.00     0.039 A 
HETATM    7  C4  UNL     1      26.095   2.489  52.111  1.00  0.00     0.069 A 
HETATM    8  C5  UNL     1      26.782   1.418  52.638  1.00  0.00     0.106 A 
HETATM    9  C7  UNL     1      26.148   0.282  53.103  1.00  0.00     0.135 A 
HETATM   10  C9  UNL     1      24.789   0.171  53.060  1.00  0.00     0.106 A 
HETATM   11  C11 UNL     1      24.126   1.279  52.518  1.00  0.00     0.069 A 
BRANCH   8  12
HETATM   12  O1  UNL     1      28.160   1.423  52.729  1.00  0.00    -0.353 OA
HETATM   13  C6  UNL     1      28.815   2.202  53.705  1.00  0.00     0.210 C 
ENDBRANCH   8  12
BRANCH   9  14
HETATM   14  O2  UNL     1      26.814  -0.811  53.641  1.00  0.00    -0.351 OA
HETATM   15  C8  UNL     1      27.174  -1.922  52.803  1.00  0.00     0.210 C 
ENDBRANCH   9  14
BRANCH  10  16
HETATM   16  O3  UNL     1      23.992  -0.901  53.487  1.00  0.00    -0.353 OA
HETATM   17  C10 UNL     1      22.604  -0.870  53.471  1.00  0.00     0.210 C 
ENDBRANCH  10  16
ENDBRANCH   4   6
ENDBRANCH   3   4
BRANCH   3  18
HETATM   18  C12 UNL     1      24.553   4.947  49.699  1.00  0.00     0.087 C 
HETATM   19  C13 UNL     1      23.998   6.139  49.666  1.00  0.00     0.073 C 
HETATM   20  C14 UNL     1      24.516   7.433  49.270  1.00  0.00     0.100 C 
HETATM   21  C16 UNL     1      25.661   7.650  48.685  1.00  0.00     0.084 C 
HETATM   22  C18 UNL     1      26.826   6.897  48.197  1.00  0.00     0.126 C 
HETATM   23  C19 UNL     1      26.872   5.500  48.684  1.00  0.00     0.038 A 
HETATM   24  C20 UNL     1      27.226   4.265  49.005  1.00  0.00     0.123 A 
HETATM   25  N3  UNL     1      25.896   4.687  49.320  1.00  0.00    -0.319 N 
BRANCH  20  26
HETATM   26  O4  UNL     1      23.710   8.525  49.545  1.00  0.00    -0.353 OA
HETATM   27  C15 UNL     1      22.315   8.437  49.512  1.00  0.00     0.210 C 
ENDBRANCH  20  26
BRANCH  21  28
HETATM   28  O5  UNL     1      25.896   8.992  48.423  1.00  0.00    -0.357 OA
HETATM   29  C17 UNL     1      26.253   9.510  47.174  1.00  0.00     0.209 C 
ENDBRANCH  21  28
ENDBRANCH   3  18
TORSDOF 8
ENDMDL
