MODEL 1
REMARK VINA RESULT:      -7.3      0.000      0.000
REMARK  5 active torsions:
REMARK  status: ('A' for Active; 'I' for Inactive)
REMARK    1  A    between atoms: C2_2  and  C3_3 
REMARK    2  A    between atoms: C3_3  and  N1_4 
REMARK    3  A    between atoms: N1_4  and  C4_5 
REMARK    4  A    between atoms: C10_12  and  C11_13 
REMARK    5  A    between atoms: C11_13  and  C12_15 
ROOT
HETATM    1  C4  UNL     1      22.805   3.226  49.969  1.00  0.00     0.130 C 
HETATM    2  C5  UNL     1      21.865   4.362  49.959  1.00  0.00     0.019 C 
HETATM    3  C6  UNL     1      21.563   5.312  50.857  1.00  0.00     0.081 C 
HETATM    4  N2  UNL     1      22.097   5.520  52.172  1.00  0.00    -0.399 N 
HETATM    5  C7  UNL     1      23.392   5.041  52.541  1.00  0.00     0.123 C 
HETATM    6  C8  UNL     1      23.516   3.554  52.589  1.00  0.00     0.056 C 
HETATM    7  C9  UNL     1      23.211   2.822  51.365  1.00  0.00    -0.049 C 
HETATM    8  C10 UNL     1      23.327   1.495  51.566  1.00  0.00     0.061 C 
HETATM    9  H10 UNL     1      21.446   6.051  52.816  1.00  0.00     0.158 HD
ENDROOT
BRANCH   1  10
HETATM   10  N1  UNL     1      23.898   3.340  49.068  1.00  0.00    -0.407 N 
HETATM   11  H6  UNL     1      24.473   2.501  48.959  1.00  0.00     0.154 HD
BRANCH  10  12
HETATM   12  C3  UNL     1      24.681   4.522  49.122  1.00  0.00     0.141 C 
BRANCH  12  13
HETATM   13  C2  UNL     1      26.061   4.349  49.602  1.00  0.00    -0.018 C 
HETATM   14  C1  UNL     1      26.609   3.173  49.887  1.00  0.00     0.008 C 
ENDBRANCH  12  13
ENDBRANCH  10  12
ENDBRANCH   1  10
BRANCH   8  15
HETATM   15  C11 UNL     1      23.699   0.772  52.783  1.00  0.00     0.189 C 
HETATM   16  O1  UNL     1      22.935   0.480  53.738  1.00  0.00    -0.287 OA
BRANCH  15  17
HETATM   17  C12 UNL     1      25.052   0.324  52.972  1.00  0.00     0.058 A 
HETATM   18  C13 UNL     1      25.614  -0.886  52.790  1.00  0.00     0.038 A 
HETATM   19  C14 UNL     1      26.942  -1.111  53.030  1.00  0.00     0.019 A 
HETATM   20  C15 UNL     1      27.728  -2.233  52.922  1.00  0.00     0.132 A 
HETATM   21  C17 UNL     1      27.662   0.019  53.480  1.00  0.00     0.111 A 
HETATM   22  N3  UNL     1      29.014  -2.210  53.216  1.00  0.00    -0.253 NA
HETATM   23  C16 UNL     1      29.687  -1.150  53.638  1.00  0.00     0.233 A 
HETATM   24  N4  UNL     1      29.008  -0.001  53.777  1.00  0.00    -0.234 NA
HETATM   25  S1  UNL     1      26.347   1.351  53.524  1.00  0.00    -0.066 SA
ENDBRANCH  15  17
ENDBRANCH   8  15
TORSDOF 5
ENDMDL
MODEL 2
REMARK VINA RESULT:      -7.3      3.333      6.864
REMARK  5 active torsions:
REMARK  status: ('A' for Active; 'I' for Inactive)
REMARK    1  A    between atoms: C2_2  and  C3_3 
REMARK    2  A    between atoms: C3_3  and  N1_4 
REMARK    3  A    between atoms: N1_4  and  C4_5 
REMARK    4  A    between atoms: C10_12  and  C11_13 
REMARK    5  A    between atoms: C11_13  and  C12_15 
ROOT
HETATM    1  C4  UNL     1      26.100  -0.430  52.702  1.00  0.00     0.130 C 
HETATM    2  C5  UNL     1      26.700   0.500  51.729  1.00  0.00     0.019 C 
HETATM    3  C6  UNL     1      26.537   1.810  51.490  1.00  0.00     0.081 C 
HETATM    4  N2  UNL     1      25.679   2.753  52.148  1.00  0.00    -0.399 N 
HETATM    5  C7  UNL     1      25.229   2.550  53.489  1.00  0.00     0.123 C 
HETATM    6  C8  UNL     1      24.303   1.391  53.666  1.00  0.00     0.056 C 
HETATM    7  C9  UNL     1      24.794   0.080  53.262  1.00  0.00    -0.049 C 
HETATM    8  C10 UNL     1      23.844  -0.858  53.441  1.00  0.00     0.061 C 
HETATM    9  H10 UNL     1      25.427   3.589  51.549  1.00  0.00     0.158 HD
ENDROOT
BRANCH   1  10
HETATM   10  N1  UNL     1      26.990  -0.925  53.692  1.00  0.00    -0.407 N 
HETATM   11  H6  UNL     1      26.677  -1.759  54.195  1.00  0.00     0.154 HD
BRANCH  10  12
HETATM   12  C3  UNL     1      27.613   0.016  54.553  1.00  0.00     0.141 C 
BRANCH  12  13
HETATM   13  C2  UNL     1      29.070   0.150  54.398  1.00  0.00    -0.018 C 
HETATM   14  C1  UNL     1      29.810  -0.617  53.604  1.00  0.00     0.008 C 
ENDBRANCH  12  13
ENDBRANCH  10  12
ENDBRANCH   1  10
BRANCH   8  15
HETATM   15  C11 UNL     1      22.483  -0.708  53.959  1.00  0.00     0.189 C 
HETATM   16  O1  UNL     1      22.116  -0.883  55.149  1.00  0.00    -0.287 OA
BRANCH  15  17
HETATM   17  C12 UNL     1      21.413  -0.326  53.078  1.00  0.00     0.058 A 
HETATM   18  C13 UNL     1      21.435   0.274  51.873  1.00  0.00     0.038 A 
HETATM   19  C14 UNL     1      20.287   0.557  51.184  1.00  0.00     0.019 A 
HETATM   20  C15 UNL     1      20.058   1.151  49.966  1.00  0.00     0.132 A 
HETATM   21  C17 UNL     1      19.095   0.172  51.837  1.00  0.00     0.111 A 
HETATM   22  N3  UNL     1      18.836   1.321  49.497  1.00  0.00    -0.253 NA
HETATM   23  C16 UNL     1      17.720   0.960  50.111  1.00  0.00     0.233 A 
HETATM   24  N4  UNL     1      17.836   0.369  51.310  1.00  0.00    -0.234 NA
HETATM   25  S1  UNL     1      19.726  -0.586  53.428  1.00  0.00    -0.066 SA
ENDBRANCH  15  17
ENDBRANCH   8  15
TORSDOF 5
ENDMDL
MODEL 3
REMARK VINA RESULT:      -7.3      2.465      3.919
REMARK  5 active torsions:
REMARK  status: ('A' for Active; 'I' for Inactive)
REMARK    1  A    between atoms: C2_2  and  C3_3 
REMARK    2  A    between atoms: C3_3  and  N1_4 
REMARK    3  A    between atoms: N1_4  and  C4_5 
REMARK    4  A    between atoms: C10_12  and  C11_13 
REMARK    5  A    between atoms: C11_13  and  C12_15 
ROOT
HETATM    1  C4  UNL     1      20.963   1.614  52.614  1.00  0.00     0.130 C 
HETATM    2  C5  UNL     1      19.787   2.139  51.898  1.00  0.00     0.019 C 
HETATM    3  C6  UNL     1      19.540   2.405  50.607  1.00  0.00     0.081 C 
HETATM    4  N2  UNL     1      20.400   2.251  49.468  1.00  0.00    -0.399 N 
HETATM    5  C7  UNL     1      21.484   1.320  49.467  1.00  0.00     0.123 C 
HETATM    6  C8  UNL     1      22.590   1.651  50.415  1.00  0.00     0.056 C 
HETATM    7  C9  UNL     1      22.241   1.776  51.825  1.00  0.00    -0.049 C 
HETATM    8  C10 UNL     1      23.323   2.113  52.553  1.00  0.00     0.061 C 
HETATM    9  H10 UNL     1      20.147   2.881  48.656  1.00  0.00     0.158 HD
ENDROOT
BRANCH   1  10
HETATM   10  N1  UNL     1      20.801   0.319  53.175  1.00  0.00    -0.407 N 
HETATM   11  H6  UNL     1      20.006  -0.221  52.825  1.00  0.00     0.154 HD
BRANCH  10  12
HETATM   12  C3  UNL     1      20.969   0.179  54.577  1.00  0.00     0.141 C 
BRANCH  12  13
HETATM   13  C2  UNL     1      21.869  -0.905  55.004  1.00  0.00    -0.018 C 
HETATM   14  C1  UNL     1      23.138  -1.012  54.628  1.00  0.00     0.008 C 
ENDBRANCH  12  13
ENDBRANCH  10  12
ENDBRANCH   1  10
BRANCH   8  15
HETATM   15  C11 UNL     1      24.699   2.345  52.111  1.00  0.00     0.189 C 
HETATM   16  O1  UNL     1      25.117   3.344  51.472  1.00  0.00    -0.287 OA
BRANCH  15  17
HETATM   17  C12 UNL     1      25.724   1.379  52.401  1.00  0.00     0.058 A 
HETATM   18  C13 UNL     1      25.721   0.035  52.307  1.00  0.00     0.038 A 
HETATM   19  C14 UNL     1      26.815  -0.715  52.637  1.00  0.00     0.019 A 
HETATM   20  C15 UNL     1      27.050  -2.069  52.626  1.00  0.00     0.132 A 
HETATM   21  C17 UNL     1      27.933   0.029  53.077  1.00  0.00     0.111 A 
HETATM   22  N3  UNL     1      28.212  -2.575  52.996  1.00  0.00    -0.253 NA
HETATM   23  C16 UNL     1      29.258  -1.875  53.408  1.00  0.00     0.233 A 
HETATM   24  N4  UNL     1      29.131  -0.540  53.455  1.00  0.00    -0.234 NA
HETATM   25  S1  UNL     1      27.313   1.793  52.982  1.00  0.00    -0.066 SA
ENDBRANCH  15  17
ENDBRANCH   8  15
TORSDOF 5
ENDMDL
MODEL 4
REMARK VINA RESULT:      -7.2      2.324      7.266
REMARK  5 active torsions:
REMARK  status: ('A' for Active; 'I' for Inactive)
REMARK    1  A    between atoms: C2_2  and  C3_3 
REMARK    2  A    between atoms: C3_3  and  N1_4 
REMARK    3  A    between atoms: N1_4  and  C4_5 
REMARK    4  A    between atoms: C10_12  and  C11_13 
REMARK    5  A    between atoms: C11_13  and  C12_15 
ROOT
HETATM    1  C4  UNL     1      27.445  -0.745  52.911  1.00  0.00     0.130 C 
HETATM    2  C5  UNL     1      28.833  -1.145  53.202  1.00  0.00     0.019 C 
HETATM    3  C6  UNL     1      29.926  -0.463  53.578  1.00  0.00     0.081 C 
HETATM    4  N2  UNL     1      30.078   0.942  53.825  1.00  0.00    -0.399 N 
HETATM    5  C7  UNL     1      28.969   1.765  54.190  1.00  0.00     0.123 C 
HETATM    6  C8  UNL     1      27.942   1.936  53.119  1.00  0.00     0.056 C 
HETATM    7  C9  UNL     1      27.319   0.726  52.595  1.00  0.00    -0.049 C 
HETATM    8  C10 UNL     1      26.447   1.028  51.615  1.00  0.00     0.061 C 
HETATM    9  H10 UNL     1      31.072   1.288  53.712  1.00  0.00     0.158 HD
ENDROOT
BRANCH   1  10
HETATM   10  N1  UNL     1      26.475  -1.214  53.837  1.00  0.00    -0.407 N 
HETATM   11  H6  UNL     1      26.095  -2.145  53.651  1.00  0.00     0.154 HD
BRANCH  10  12
HETATM   12  C3  UNL     1      25.474  -0.303  54.266  1.00  0.00     0.141 C 
BRANCH  12  13
HETATM   13  C2  UNL     1      24.151  -0.891  54.528  1.00  0.00    -0.018 C 
HETATM   14  C1  UNL     1      23.041  -0.545  53.885  1.00  0.00     0.008 C 
ENDBRANCH  12  13
ENDBRANCH  10  12
ENDBRANCH   1  10
BRANCH   8  15
HETATM   15  C11 UNL     1      26.088   2.338  51.067  1.00  0.00     0.189 C 
HETATM   16  O1  UNL     1      26.871   3.159  50.527  1.00  0.00    -0.287 OA
BRANCH  15  17
HETATM   17  C12 UNL     1      24.725   2.793  51.119  1.00  0.00     0.058 A 
HETATM   18  C13 UNL     1      23.696   2.411  51.900  1.00  0.00     0.038 A 
HETATM   19  C14 UNL     1      22.456   2.977  51.792  1.00  0.00     0.019 A 
HETATM   20  C15 UNL     1      21.275   2.760  52.460  1.00  0.00     0.132 A 
HETATM   21  C17 UNL     1      22.349   3.982  50.805  1.00  0.00     0.111 A 
HETATM   22  N3  UNL     1      20.182   3.443  52.176  1.00  0.00    -0.253 NA
HETATM   23  C16 UNL     1      20.083   4.385  51.250  1.00  0.00     0.233 A 
HETATM   24  N4  UNL     1      21.184   4.673  50.540  1.00  0.00    -0.234 NA
HETATM   25  S1  UNL     1      24.077   4.040  50.090  1.00  0.00    -0.066 SA
ENDBRANCH  15  17
ENDBRANCH   8  15
TORSDOF 5
ENDMDL
MODEL 5
REMARK VINA RESULT:      -7.1      1.603      1.958
REMARK  5 active torsions:
REMARK  status: ('A' for Active; 'I' for Inactive)
REMARK    1  A    between atoms: C2_2  and  C3_3 
REMARK    2  A    between atoms: C3_3  and  N1_4 
REMARK    3  A    between atoms: N1_4  and  C4_5 
REMARK    4  A    between atoms: C10_12  and  C11_13 
REMARK    5  A    between atoms: C11_13  and  C12_15 
ROOT
HETATM    1  C4  UNL     1      22.154   2.593  49.445  1.00  0.00     0.130 C 
HETATM    2  C5  UNL     1      20.977   3.417  49.115  1.00  0.00     0.019 C 
HETATM    3  C6  UNL     1      20.270   4.326  49.802  1.00  0.00     0.081 C 
HETATM    4  N2  UNL     1      20.458   4.797  51.144  1.00  0.00    -0.399 N 
HETATM    5  C7  UNL     1      21.731   4.734  51.790  1.00  0.00     0.123 C 
HETATM    6  C8  UNL     1      22.218   3.350  52.072  1.00  0.00     0.056 C 
HETATM    7  C9  UNL     1      22.361   2.451  50.934  1.00  0.00    -0.049 C 
HETATM    8  C10 UNL     1      22.769   1.233  51.341  1.00  0.00     0.061 C 
HETATM    9  H10 UNL     1      19.578   5.185  51.586  1.00  0.00     0.158 HD
ENDROOT
BRANCH   1  10
HETATM   10  N1  UNL     1      23.339   2.919  48.734  1.00  0.00    -0.407 N 
HETATM   11  H6  UNL     1      24.059   2.193  48.712  1.00  0.00     0.154 HD
BRANCH  10  12
HETATM   12  C3  UNL     1      23.889   4.214  48.922  1.00  0.00     0.141 C 
BRANCH  12  13
HETATM   13  C2  UNL     1      25.180   4.259  49.627  1.00  0.00    -0.018 C 
HETATM   14  C1  UNL     1      26.071   3.273  49.615  1.00  0.00     0.008 C 
ENDBRANCH  12  13
ENDBRANCH  10  12
ENDBRANCH   1  10
BRANCH   8  15
HETATM   15  C11 UNL     1      23.061   0.760  52.695  1.00  0.00     0.189 C 
HETATM   16  O1  UNL     1      22.224   0.338  53.533  1.00  0.00    -0.287 OA
BRANCH  15  17
HETATM   17  C12 UNL     1      24.415   0.750  53.180  1.00  0.00     0.058 A 
HETATM   18  C13 UNL     1      25.402   1.658  53.059  1.00  0.00     0.038 A 
HETATM   19  C14 UNL     1      26.641   1.457  53.602  1.00  0.00     0.019 A 
HETATM   20  C15 UNL     1      27.785   2.217  53.612  1.00  0.00     0.132 A 
HETATM   21  C17 UNL     1      26.793   0.232  54.292  1.00  0.00     0.111 A 
HETATM   22  N3  UNL     1      28.885   1.807  54.214  1.00  0.00    -0.253 NA
HETATM   23  C16 UNL     1      29.026   0.660  54.860  1.00  0.00     0.233 A 
HETATM   24  N4  UNL     1      27.963  -0.158  54.908  1.00  0.00    -0.234 NA
HETATM   25  S1  UNL     1      25.106  -0.556  54.103  1.00  0.00    -0.066 SA
ENDBRANCH  15  17
ENDBRANCH   8  15
TORSDOF 5
ENDMDL
MODEL 6
REMARK VINA RESULT:      -7.0      1.357      3.142
REMARK  5 active torsions:
REMARK  status: ('A' for Active; 'I' for Inactive)
REMARK    1  A    between atoms: C2_2  and  C3_3 
REMARK    2  A    between atoms: C3_3  and  N1_4 
REMARK    3  A    between atoms: N1_4  and  C4_5 
REMARK    4  A    between atoms: C10_12  and  C11_13 
REMARK    5  A    between atoms: C11_13  and  C12_15 
ROOT
HETATM    1  C4  UNL     1      23.653   5.394  51.881  1.00  0.00     0.130 C 
HETATM    2  C5  UNL     1      24.453   6.122  50.880  1.00  0.00     0.019 C 
HETATM    3  C6  UNL     1      24.967   5.780  49.689  1.00  0.00     0.081 C 
HETATM    4  N2  UNL     1      24.885   4.529  48.991  1.00  0.00    -0.399 N 
HETATM    5  C7  UNL     1      23.823   3.603  49.231  1.00  0.00     0.123 C 
HETATM    6  C8  UNL     1      23.828   2.989  50.593  1.00  0.00     0.056 C 
HETATM    7  C9  UNL     1      23.761   3.896  51.732  1.00  0.00    -0.049 C 
HETATM    8  C10 UNL     1      23.813   3.208  52.889  1.00  0.00     0.061 C 
HETATM    9  H10 UNL     1      25.673   4.374  48.301  1.00  0.00     0.158 HD
ENDROOT
BRANCH   1  10
HETATM   10  N1  UNL     1      22.318   5.855  52.038  1.00  0.00    -0.407 N 
HETATM   11  H6  UNL     1      21.729   5.305  52.668  1.00  0.00     0.154 HD
BRANCH  10  12
HETATM   12  C3  UNL     1      21.619   6.269  50.875  1.00  0.00     0.141 C 
BRANCH  12  13
HETATM   13  C2  UNL     1      20.633   5.310  50.351  1.00  0.00    -0.018 C 
HETATM   14  C1  UNL     1      20.161   4.276  51.039  1.00  0.00     0.008 C 
ENDBRANCH  12  13
ENDBRANCH  10  12
ENDBRANCH   1  10
BRANCH   8  15
HETATM   15  C11 UNL     1      23.918   1.764  53.102  1.00  0.00     0.189 C 
HETATM   16  O1  UNL     1      22.961   0.954  53.195  1.00  0.00    -0.287 OA
BRANCH  15  17
HETATM   17  C12 UNL     1      25.209   1.144  53.227  1.00  0.00     0.058 A 
HETATM   18  C13 UNL     1      26.438   1.682  53.351  1.00  0.00     0.038 A 
HETATM   19  C14 UNL     1      27.560   0.908  53.459  1.00  0.00     0.019 A 
HETATM   20  C15 UNL     1      28.892   1.216  53.591  1.00  0.00     0.132 A 
HETATM   21  C17 UNL     1      27.322  -0.485  53.428  1.00  0.00     0.111 A 
HETATM   22  N3  UNL     1      29.816   0.278  53.678  1.00  0.00    -0.253 NA
HETATM   23  C16 UNL     1      29.592  -1.027  53.649  1.00  0.00     0.233 A 
HETATM   24  N4  UNL     1      28.320  -1.434  53.522  1.00  0.00    -0.234 NA
HETATM   25  S1  UNL     1      25.462  -0.580  53.244  1.00  0.00    -0.066 SA
ENDBRANCH  15  17
ENDBRANCH   8  15
TORSDOF 5
ENDMDL
MODEL 7
REMARK VINA RESULT:      -6.8      2.550      7.620
REMARK  5 active torsions:
REMARK  status: ('A' for Active; 'I' for Inactive)
REMARK    1  A    between atoms: C2_2  and  C3_3 
REMARK    2  A    between atoms: C3_3  and  N1_4 
REMARK    3  A    between atoms: N1_4  and  C4_5 
REMARK    4  A    between atoms: C10_12  and  C11_13 
REMARK    5  A    between atoms: C11_13  and  C12_15 
ROOT
HETATM    1  C4  UNL     1      26.487   0.057  52.908  1.00  0.00     0.130 C 
HETATM    2  C5  UNL     1      27.670  -0.700  53.356  1.00  0.00     0.019 C 
HETATM    3  C6  UNL     1      28.922  -0.342  53.680  1.00  0.00     0.081 C 
HETATM    4  N2  UNL     1      29.518   0.963  53.690  1.00  0.00    -0.399 N 
HETATM    5  C7  UNL     1      28.731   2.147  53.832  1.00  0.00     0.123 C 
HETATM    6  C8  UNL     1      27.822   2.433  52.682  1.00  0.00     0.056 C 
HETATM    7  C9  UNL     1      26.846   1.407  52.335  1.00  0.00    -0.049 C 
HETATM    8  C10 UNL     1      26.125   1.782  51.261  1.00  0.00     0.061 C 
HETATM    9  H10 UNL     1      30.571   0.950  53.585  1.00  0.00     0.158 HD
ENDROOT
BRANCH   1  10
HETATM   10  N1  UNL     1      25.411   0.099  53.835  1.00  0.00    -0.407 N 
HETATM   11  H6  UNL     1      25.658  -0.082  54.811  1.00  0.00     0.154 HD
BRANCH  10  12
HETATM   12  C3  UNL     1      24.194  -0.529  53.465  1.00  0.00     0.141 C 
BRANCH  12  13
HETATM   13  C2  UNL     1      23.314  -0.917  54.579  1.00  0.00    -0.018 C 
HETATM   14  C1  UNL     1      22.006  -1.113  54.462  1.00  0.00     0.008 C 
ENDBRANCH  12  13
ENDBRANCH  10  12
ENDBRANCH   1  10
BRANCH   8  15
HETATM   15  C11 UNL     1      26.212   3.013  50.473  1.00  0.00     0.189 C 
HETATM   16  O1  UNL     1      27.140   3.328  49.686  1.00  0.00    -0.287 OA
BRANCH  15  17
HETATM   17  C12 UNL     1      25.171   4.001  50.559  1.00  0.00     0.058 A 
HETATM   18  C13 UNL     1      25.112   5.263  50.093  1.00  0.00     0.038 A 
HETATM   19  C14 UNL     1      24.012   6.054  50.283  1.00  0.00     0.019 A 
HETATM   20  C15 UNL     1      23.721   7.345  49.912  1.00  0.00     0.132 A 
HETATM   21  C17 UNL     1      22.959   5.441  51.000  1.00  0.00     0.111 A 
HETATM   22  N3  UNL     1      22.568   7.910  50.214  1.00  0.00    -0.253 NA
HETATM   23  C16 UNL     1      21.582   7.334  50.886  1.00  0.00     0.233 A 
HETATM   24  N4  UNL     1      21.768   6.070  51.295  1.00  0.00    -0.234 NA
HETATM   25  S1  UNL     1      23.644   3.736  51.355  1.00  0.00    -0.066 SA
ENDBRANCH  15  17
ENDBRANCH   8  15
TORSDOF 5
ENDMDL
MODEL 8
REMARK VINA RESULT:      -6.7      2.530      4.085
REMARK  5 active torsions:
REMARK  status: ('A' for Active; 'I' for Inactive)
REMARK    1  A    between atoms: C2_2  and  C3_3 
REMARK    2  A    between atoms: C3_3  and  N1_4 
REMARK    3  A    between atoms: N1_4  and  C4_5 
REMARK    4  A    between atoms: C10_12  and  C11_13 
REMARK    5  A    between atoms: C11_13  and  C12_15 
ROOT
HETATM    1  C4  UNL     1      20.624   2.898  51.881  1.00  0.00     0.130 C 
HETATM    2  C5  UNL     1      20.921   3.965  50.908  1.00  0.00     0.019 C 
HETATM    3  C6  UNL     1      21.581   3.985  49.740  1.00  0.00     0.081 C 
HETATM    4  N2  UNL     1      22.235   2.911  49.049  1.00  0.00    -0.399 N 
HETATM    5  C7  UNL     1      21.859   1.548  49.253  1.00  0.00     0.123 C 
HETATM    6  C8  UNL     1      22.155   1.018  50.618  1.00  0.00     0.056 C 
HETATM    7  C9  UNL     1      21.553   1.716  51.747  1.00  0.00    -0.049 C 
HETATM    8  C10 UNL     1      21.936   1.154  52.910  1.00  0.00     0.061 C 
HETATM    9  H10 UNL     1      23.000   3.232  48.392  1.00  0.00     0.158 HD
ENDROOT
BRANCH   1  10
HETATM   10  N1  UNL     1      19.254   2.537  51.982  1.00  0.00    -0.407 N 
HETATM   11  H6  UNL     1      19.024   1.868  52.721  1.00  0.00     0.154 HD
BRANCH  10  12
HETATM   12  C3  UNL     1      18.548   2.271  50.780  1.00  0.00     0.141 C 
BRANCH  12  13
HETATM   13  C2  UNL     1      17.934   0.937  50.685  1.00  0.00    -0.018 C 
HETATM   14  C1  UNL     1      18.357  -0.127  51.358  1.00  0.00     0.008 C 
ENDBRANCH  12  13
ENDBRANCH  10  12
ENDBRANCH   1  10
BRANCH   8  15
HETATM   15  C11 UNL     1      22.819   0.008  53.137  1.00  0.00     0.189 C 
HETATM   16  O1  UNL     1      22.499  -1.204  53.056  1.00  0.00    -0.287 OA
BRANCH  15  17
HETATM   17  C12 UNL     1      24.197   0.217  53.491  1.00  0.00     0.058 A 
HETATM   18  C13 UNL     1      25.040   1.225  53.196  1.00  0.00     0.038 A 
HETATM   19  C14 UNL     1      26.335   1.237  53.635  1.00  0.00     0.019 A 
HETATM   20  C15 UNL     1      27.364   2.133  53.469  1.00  0.00     0.132 A 
HETATM   21  C17 UNL     1      26.706   0.117  54.414  1.00  0.00     0.111 A 
HETATM   22  N3  UNL     1      28.555   1.927  53.998  1.00  0.00    -0.253 NA
HETATM   23  C16 UNL     1      28.901   0.877  54.728  1.00  0.00     0.233 A 
HETATM   24  N4  UNL     1      27.965  -0.058  54.949  1.00  0.00    -0.234 NA
HETATM   25  S1  UNL     1      25.130  -0.892  54.457  1.00  0.00    -0.066 SA
ENDBRANCH  15  17
ENDBRANCH   8  15
TORSDOF 5
ENDMDL
MODEL 9
REMARK VINA RESULT:      -6.4      2.694      6.710
REMARK  5 active torsions:
REMARK  status: ('A' for Active; 'I' for Inactive)
REMARK    1  A    between atoms: C2_2  and  C3_3 
REMARK    2  A    between atoms: C3_3  and  N1_4 
REMARK    3  A    between atoms: N1_4  and  C4_5 
REMARK    4  A    between atoms: C10_12  and  C11_13 
REMARK    5  A    between atoms: C11_13  and  C12_15 
ROOT
HETATM    1  C4  UNL     1      24.634  -0.246  52.985  1.00  0.00     0.130 C 
HETATM    2  C5  UNL     1      26.019  -0.745  52.902  1.00  0.00     0.019 C 
HETATM    3  C6  UNL     1      27.216  -0.167  53.082  1.00  0.00     0.081 C 
HETATM    4  N2  UNL     1      27.525   1.191  53.428  1.00  0.00    -0.399 N 
HETATM    5  C7  UNL     1      26.591   2.020  54.123  1.00  0.00     0.123 C 
HETATM    6  C8  UNL     1      25.365   2.365  53.343  1.00  0.00     0.056 C 
HETATM    7  C9  UNL     1      24.551   1.256  52.858  1.00  0.00    -0.049 C 
HETATM    8  C10 UNL     1      23.505   1.713  52.143  1.00  0.00     0.061 C 
HETATM    9  H10 UNL     1      28.491   1.498  53.122  1.00  0.00     0.158 HD
ENDROOT
BRANCH   1  10
HETATM   10  N1  UNL     1      23.866  -0.770  54.058  1.00  0.00    -0.407 N 
HETATM   11  H6  UNL     1      24.329  -1.479  54.632  1.00  0.00     0.154 HD
BRANCH  10  12
HETATM   12  C3  UNL     1      22.507  -1.090  53.806  1.00  0.00     0.141 C 
BRANCH  12  13
HETATM   13  C2  UNL     1      21.522  -0.390  54.646  1.00  0.00    -0.018 C 
HETATM   14  C1  UNL     1      20.584   0.423  54.174  1.00  0.00     0.008 C 
ENDBRANCH  12  13
ENDBRANCH  10  12
ENDBRANCH   1  10
BRANCH   8  15
HETATM   15  C11 UNL     1      23.131   3.094  51.831  1.00  0.00     0.189 C 
HETATM   16  O1  UNL     1      22.058   3.664  52.149  1.00  0.00    -0.287 OA
BRANCH  15  17
HETATM   17  C12 UNL     1      24.031   3.936  51.091  1.00  0.00     0.058 A 
HETATM   18  C13 UNL     1      24.258   5.262  51.161  1.00  0.00     0.038 A 
HETATM   19  C14 UNL     1      25.172   5.884  50.356  1.00  0.00     0.019 A 
HETATM   20  C15 UNL     1      25.570   7.194  50.243  1.00  0.00     0.132 A 
HETATM   21  C17 UNL     1      25.847   5.028  49.457  1.00  0.00     0.111 A 
HETATM   22  N3  UNL     1      26.490   7.566  49.373  1.00  0.00    -0.253 NA
HETATM   23  C16 UNL     1      27.123   6.763  48.531  1.00  0.00     0.233 A 
HETATM   24  N4  UNL     1      26.804   5.460  48.562  1.00  0.00    -0.234 NA
HETATM   25  S1  UNL     1      25.102   3.355  49.845  1.00  0.00    -0.066 SA
ENDBRANCH  15  17
ENDBRANCH   8  15
TORSDOF 5
ENDMDL
