MODEL 1
REMARK VINA RESULT:      -7.5      0.000      0.000
REMARK  5 active torsions:
REMARK  status: ('A' for Active; 'I' for Inactive)
REMARK    1  A    between atoms: N1_1  and  C1_2 
REMARK    2  A    between atoms: C2_3  and  C3_4 
REMARK    3  A    between atoms: C3_4  and  C4_5 
REMARK    4  A    between atoms: N2_10  and  C9_11 
REMARK    5  A    between atoms: C11_14  and  C12_15 
ROOT
HETATM    1  C4  UNL     1      23.630  -0.024  53.493  1.00  0.00     0.017 A 
HETATM    2  C5  UNL     1      23.130  -0.812  54.431  1.00  0.00     0.025 A 
HETATM    3  C6  UNL     1      21.729  -0.731  54.828  1.00  0.00    -0.001 A 
HETATM    4  C7  UNL     1      21.004   0.175  54.194  1.00  0.00    -0.007 A 
HETATM    5  C8  UNL     1      21.400   1.131  53.129  1.00  0.00     0.157 A 
HETATM    6  N2  UNL     1      22.804   0.934  52.842  1.00  0.00    -0.335 N 
ENDROOT
BRANCH   6   7
HETATM    7  C9  UNL     1      23.269   1.817  51.826  1.00  0.00     0.110 A 
HETATM    8  N3  UNL     1      22.965   1.703  50.558  1.00  0.00    -0.246 NA
HETATM    9  C10 UNL     1      23.594   2.740  49.833  1.00  0.00     0.128 A 
HETATM   10  C11 UNL     1      24.312   3.533  50.633  1.00  0.00    -0.007 A 
HETATM   11  C17 UNL     1      24.163   3.002  51.995  1.00  0.00     0.121 A 
BRANCH  10  12
HETATM   12  C12 UNL     1      25.068   4.679  50.189  1.00  0.00     0.036 A 
HETATM   13  C13 UNL     1      25.996   4.568  49.268  1.00  0.00     0.029 A 
HETATM   14  C14 UNL     1      26.784   5.702  48.789  1.00  0.00    -0.000 A 
HETATM   15  C15 UNL     1      26.541   6.905  49.322  1.00  0.00    -0.007 A 
HETATM   16  C16 UNL     1      25.531   7.201  50.368  1.00  0.00     0.147 A 
HETATM   17  N4  UNL     1      24.856   5.964  50.713  1.00  0.00    -0.386 N 
HETATM   18  H18 UNL     1      24.126   6.139  51.460  1.00  0.00     0.160 HD
ENDBRANCH  10  12
ENDBRANCH   6   7
BRANCH   1  19
HETATM   19  C3  UNL     1      25.042  -0.079  53.066  1.00  0.00     0.085 C 
BRANCH  19  20
HETATM   20  C2  UNL     1      25.943  -0.594  54.105  1.00  0.00    -0.004 C 
HETATM   21  C1  UNL     1      26.685   0.280  54.769  1.00  0.00     0.076 C 
BRANCH  21  22
HETATM   22  N1  UNL     1      26.574   1.659  54.446  1.00  0.00    -0.408 N 
HETATM   23  H1  UNL     1      26.617   2.106  53.507  1.00  0.00     0.155 HD
HETATM   24  H2  UNL     1      26.477   2.688  54.374  1.00  0.00     0.155 HD
ENDBRANCH  21  22
ENDBRANCH  19  20
ENDBRANCH   1  19
TORSDOF 5
ENDMDL
MODEL 2
REMARK VINA RESULT:      -7.5      3.131      5.007
REMARK  5 active torsions:
REMARK  status: ('A' for Active; 'I' for Inactive)
REMARK    1  A    between atoms: N1_1  and  C1_2 
REMARK    2  A    between atoms: C2_3  and  C3_4 
REMARK    3  A    between atoms: C3_4  and  C4_5 
REMARK    4  A    between atoms: N2_10  and  C9_11 
REMARK    5  A    between atoms: C11_14  and  C12_15 
ROOT
HETATM    1  C4  UNL     1      21.127   0.362  52.865  1.00  0.00     0.017 A 
HETATM    2  C5  UNL     1      19.921   0.157  52.361  1.00  0.00     0.025 A 
HETATM    3  C6  UNL     1      19.590   0.538  50.993  1.00  0.00    -0.001 A 
HETATM    4  C7  UNL     1      20.568   1.098  50.301  1.00  0.00    -0.007 A 
HETATM    5  C8  UNL     1      21.964   1.400  50.706  1.00  0.00     0.157 A 
HETATM    6  N2  UNL     1      22.143   0.969  52.075  1.00  0.00    -0.335 N 
ENDROOT
BRANCH   6   7
HETATM    7  C9  UNL     1      23.462   1.224  52.546  1.00  0.00     0.110 A 
HETATM    8  N3  UNL     1      23.860   2.371  53.034  1.00  0.00    -0.246 NA
HETATM    9  C10 UNL     1      25.220   2.275  53.403  1.00  0.00     0.128 A 
HETATM   10  C11 UNL     1      25.712   1.058  53.153  1.00  0.00    -0.007 A 
HETATM   11  C17 UNL     1      24.614   0.272  52.576  1.00  0.00     0.121 A 
BRANCH  10  12
HETATM   12  C12 UNL     1      27.070   0.651  53.421  1.00  0.00     0.036 A 
HETATM   13  C13 UNL     1      27.515  -0.527  53.051  1.00  0.00     0.029 A 
HETATM   14  C14 UNL     1      28.883  -0.977  53.302  1.00  0.00    -0.000 A 
HETATM   15  C15 UNL     1      29.711  -0.143  53.941  1.00  0.00    -0.007 A 
HETATM   16  C16 UNL     1      29.368   1.217  54.424  1.00  0.00     0.147 A 
HETATM   17  N4  UNL     1      27.983   1.485  54.086  1.00  0.00    -0.386 N 
HETATM   18  H18 UNL     1      27.704   2.451  54.418  1.00  0.00     0.160 HD
ENDBRANCH  10  12
ENDBRANCH   6   7
BRANCH   1  19
HETATM   19  C3  UNL     1      21.497  -0.011  54.244  1.00  0.00     0.085 C 
BRANCH  19  20
HETATM   20  C2  UNL     1      21.325  -1.443  54.522  1.00  0.00    -0.004 C 
HETATM   21  C1  UNL     1      22.281  -2.060  55.202  1.00  0.00     0.076 C 
BRANCH  21  22
HETATM   22  N1  UNL     1      23.414  -1.312  55.625  1.00  0.00    -0.408 N 
HETATM   23  H1  UNL     1      24.320  -1.670  55.992  1.00  0.00     0.155 HD
HETATM   24  H2  UNL     1      24.150  -0.634  55.893  1.00  0.00     0.155 HD
ENDBRANCH  21  22
ENDBRANCH  19  20
ENDBRANCH   1  19
TORSDOF 5
ENDMDL
MODEL 3
REMARK VINA RESULT:      -7.4      2.489      7.015
REMARK  5 active torsions:
REMARK  status: ('A' for Active; 'I' for Inactive)
REMARK    1  A    between atoms: N1_1  and  C1_2 
REMARK    2  A    between atoms: C2_3  and  C3_4 
REMARK    3  A    between atoms: C3_4  and  C4_5 
REMARK    4  A    between atoms: N2_10  and  C9_11 
REMARK    5  A    between atoms: C11_14  and  C12_15 
ROOT
HETATM    1  C4  UNL     1      25.215   1.592  52.970  1.00  0.00     0.017 A 
HETATM    2  C5  UNL     1      26.463   1.919  52.676  1.00  0.00     0.025 A 
HETATM    3  C6  UNL     1      27.506   0.908  52.543  1.00  0.00    -0.001 A 
HETATM    4  C7  UNL     1      27.122  -0.342  52.737  1.00  0.00    -0.007 A 
HETATM    5  C8  UNL     1      25.779  -0.880  53.071  1.00  0.00     0.157 A 
HETATM    6  N2  UNL     1      24.856   0.230  53.168  1.00  0.00    -0.335 N 
ENDROOT
BRANCH   6   7
HETATM    7  C9  UNL     1      23.537  -0.200  53.488  1.00  0.00     0.110 A 
HETATM    8  N3  UNL     1      23.215  -0.827  54.591  1.00  0.00    -0.246 NA
HETATM    9  C10 UNL     1      21.830  -1.103  54.583  1.00  0.00     0.128 A 
HETATM   10  C11 UNL     1      21.246  -0.656  53.467  1.00  0.00    -0.007 A 
HETATM   11  C17 UNL     1      22.304  -0.031  52.662  1.00  0.00     0.121 A 
BRANCH  10  12
HETATM   12  C12 UNL     1      19.841  -0.788  53.167  1.00  0.00     0.036 A 
HETATM   13  C13 UNL     1      19.256  -0.014  52.283  1.00  0.00     0.029 A 
HETATM   14  C14 UNL     1      17.837  -0.116  51.949  1.00  0.00    -0.000 A 
HETATM   15  C15 UNL     1      17.108  -1.043  52.581  1.00  0.00    -0.007 A 
HETATM   16  C16 UNL     1      17.613  -1.993  53.602  1.00  0.00     0.147 A 
HETATM   17  N4  UNL     1      19.028  -1.743  53.798  1.00  0.00    -0.386 N 
HETATM   18  H18 UNL     1      19.422  -2.406  54.524  1.00  0.00     0.160 HD
ENDBRANCH  10  12
ENDBRANCH   6   7
BRANCH   1  19
HETATM   19  C3  UNL     1      24.135   2.588  53.111  1.00  0.00     0.085 C 
BRANCH  19  20
HETATM   20  C2  UNL     1      23.859   3.323  51.869  1.00  0.00    -0.004 C 
HETATM   21  C1  UNL     1      23.726   4.639  51.947  1.00  0.00     0.076 C 
BRANCH  21  22
HETATM   22  N1  UNL     1      23.857   5.269  53.214  1.00  0.00    -0.408 N 
HETATM   23  H1  UNL     1      23.950   4.820  54.149  1.00  0.00     0.155 HD
HETATM   24  H2  UNL     1      23.943   5.870  54.053  1.00  0.00     0.155 HD
ENDBRANCH  21  22
ENDBRANCH  19  20
ENDBRANCH   1  19
TORSDOF 5
ENDMDL
MODEL 4
REMARK VINA RESULT:      -7.4      2.463      5.241
REMARK  5 active torsions:
REMARK  status: ('A' for Active; 'I' for Inactive)
REMARK    1  A    between atoms: N1_1  and  C1_2 
REMARK    2  A    between atoms: C2_3  and  C3_4 
REMARK    3  A    between atoms: C3_4  and  C4_5 
REMARK    4  A    between atoms: N2_10  and  C9_11 
REMARK    5  A    between atoms: C11_14  and  C12_15 
ROOT
HETATM    1  C4  UNL     1      21.352   0.713  51.444  1.00  0.00     0.017 A 
HETATM    2  C5  UNL     1      20.081   0.376  51.295  1.00  0.00     0.025 A 
HETATM    3  C6  UNL     1      19.296  -0.154  52.404  1.00  0.00    -0.001 A 
HETATM    4  C7  UNL     1      19.937  -0.273  53.554  1.00  0.00    -0.007 A 
HETATM    5  C8  UNL     1      21.345   0.053  53.894  1.00  0.00     0.157 A 
HETATM    6  N2  UNL     1      21.992   0.564  52.705  1.00  0.00    -0.335 N 
ENDROOT
BRANCH   6   7
HETATM    7  C9  UNL     1      23.355   0.902  52.943  1.00  0.00     0.110 A 
HETATM    8  N3  UNL     1      23.794   2.127  53.087  1.00  0.00    -0.246 NA
HETATM    9  C10 UNL     1      25.189   2.099  53.308  1.00  0.00     0.128 A 
HETATM   10  C11 UNL     1      25.661   0.849  53.307  1.00  0.00    -0.007 A 
HETATM   11  C17 UNL     1      24.512  -0.034  53.071  1.00  0.00     0.121 A 
BRANCH  10  12
HETATM   12  C12 UNL     1      27.046   0.495  53.507  1.00  0.00     0.036 A 
HETATM   13  C13 UNL     1      27.515  -0.669  53.125  1.00  0.00     0.029 A 
HETATM   14  C14 UNL     1      28.909  -1.066  53.308  1.00  0.00    -0.000 A 
HETATM   15  C15 UNL     1      29.738  -0.195  53.894  1.00  0.00    -0.007 A 
HETATM   16  C16 UNL     1      29.371   1.157  54.382  1.00  0.00     0.147 A 
HETATM   17  N4  UNL     1      27.961   1.370  54.115  1.00  0.00    -0.386 N 
HETATM   18  H18 UNL     1      27.663   2.328  54.452  1.00  0.00     0.160 HD
ENDBRANCH  10  12
ENDBRANCH   6   7
BRANCH   1  19
HETATM   19  C3  UNL     1      22.175   1.252  50.344  1.00  0.00     0.085 C 
BRANCH  19  20
HETATM   20  C2  UNL     1      21.800   2.618  49.955  1.00  0.00    -0.004 C 
HETATM   21  C1  UNL     1      22.770   3.511  49.820  1.00  0.00     0.076 C 
BRANCH  21  22
HETATM   22  N1  UNL     1      24.112   3.107  50.056  1.00  0.00    -0.408 N 
HETATM   23  H1  UNL     1      24.660   3.178  50.938  1.00  0.00     0.155 HD
HETATM   24  H2  UNL     1      25.089   2.765  50.069  1.00  0.00     0.155 HD
ENDBRANCH  21  22
ENDBRANCH  19  20
ENDBRANCH   1  19
TORSDOF 5
ENDMDL
MODEL 5
REMARK VINA RESULT:      -7.2      1.554      2.062
REMARK  5 active torsions:
REMARK  status: ('A' for Active; 'I' for Inactive)
REMARK    1  A    between atoms: N1_1  and  C1_2 
REMARK    2  A    between atoms: C2_3  and  C3_4 
REMARK    3  A    between atoms: C3_4  and  C4_5 
REMARK    4  A    between atoms: N2_10  and  C9_11 
REMARK    5  A    between atoms: C11_14  and  C12_15 
ROOT
HETATM    1  C4  UNL     1      24.183   1.094  52.837  1.00  0.00     0.017 A 
HETATM    2  C5  UNL     1      23.621  -0.010  53.303  1.00  0.00     0.025 A 
HETATM    3  C6  UNL     1      22.377  -0.527  52.744  1.00  0.00    -0.001 A 
HETATM    4  C7  UNL     1      21.857   0.177  51.753  1.00  0.00    -0.007 A 
HETATM    5  C8  UNL     1      22.350   1.423  51.114  1.00  0.00     0.157 A 
HETATM    6  N2  UNL     1      23.581   1.812  51.767  1.00  0.00    -0.335 N 
ENDROOT
BRANCH   6   7
HETATM    7  C9  UNL     1      24.124   3.006  51.213  1.00  0.00     0.110 A 
HETATM    8  N3  UNL     1      23.603   4.196  51.377  1.00  0.00    -0.246 NA
HETATM    9  C10 UNL     1      24.392   5.148  50.695  1.00  0.00     0.128 A 
HETATM   10  C11 UNL     1      25.432   4.575  50.081  1.00  0.00    -0.007 A 
HETATM   11  C17 UNL     1      25.347   3.136  50.366  1.00  0.00     0.121 A 
BRANCH  10  12
HETATM   12  C12 UNL     1      26.419   5.285  49.304  1.00  0.00     0.036 A 
HETATM   13  C13 UNL     1      27.538   4.710  48.932  1.00  0.00     0.029 A 
HETATM   14  C14 UNL     1      28.562   5.393  48.144  1.00  0.00    -0.000 A 
HETATM   15  C15 UNL     1      28.339   6.664  47.791  1.00  0.00    -0.007 A 
HETATM   16  C16 UNL     1      27.132   7.457  48.129  1.00  0.00     0.147 A 
HETATM   17  N4  UNL     1      26.238   6.619  48.905  1.00  0.00    -0.386 N 
HETATM   18  H18 UNL     1      25.363   7.156  49.164  1.00  0.00     0.160 HD
ENDBRANCH  10  12
ENDBRANCH   6   7
BRANCH   1  19
HETATM   19  C3  UNL     1      25.441   1.645  53.377  1.00  0.00     0.085 C 
BRANCH  19  20
HETATM   20  C2  UNL     1      26.618   0.828  53.053  1.00  0.00    -0.004 C 
HETATM   21  C1  UNL     1      27.814   1.335  53.316  1.00  0.00     0.076 C 
BRANCH  21  22
HETATM   22  N1  UNL     1      27.898   2.632  53.893  1.00  0.00    -0.408 N 
HETATM   23  H1  UNL     1      28.685   3.311  53.837  1.00  0.00     0.155 HD
HETATM   24  H2  UNL     1      27.807   3.545  54.373  1.00  0.00     0.155 HD
ENDBRANCH  21  22
ENDBRANCH  19  20
ENDBRANCH   1  19
TORSDOF 5
ENDMDL
MODEL 6
REMARK VINA RESULT:      -7.0      1.538      3.141
REMARK  5 active torsions:
REMARK  status: ('A' for Active; 'I' for Inactive)
REMARK    1  A    between atoms: N1_1  and  C1_2 
REMARK    2  A    between atoms: C2_3  and  C3_4 
REMARK    3  A    between atoms: C3_4  and  C4_5 
REMARK    4  A    between atoms: N2_10  and  C9_11 
REMARK    5  A    between atoms: C11_14  and  C12_15 
ROOT
HETATM    1  C4  UNL     1      22.861  -0.114  53.361  1.00  0.00     0.017 A 
HETATM    2  C5  UNL     1      22.217  -0.861  54.243  1.00  0.00     0.025 A 
HETATM    3  C6  UNL     1      22.906  -1.473  55.373  1.00  0.00    -0.001 A 
HETATM    4  C7  UNL     1      24.204  -1.233  55.452  1.00  0.00    -0.007 A 
HETATM    5  C8  UNL     1      25.075  -0.427  54.559  1.00  0.00     0.157 A 
HETATM    6  N2  UNL     1      24.259   0.113  53.494  1.00  0.00    -0.335 N 
ENDROOT
BRANCH   6   7
HETATM    7  C9  UNL     1      25.020   0.903  52.587  1.00  0.00     0.110 A 
HETATM    8  N3  UNL     1      26.143   0.515  52.038  1.00  0.00    -0.246 NA
HETATM    9  C10 UNL     1      26.629   1.539  51.195  1.00  0.00     0.128 A 
HETATM   10  C11 UNL     1      25.818   2.602  51.197  1.00  0.00    -0.007 A 
HETATM   11  C17 UNL     1      24.705   2.280  52.099  1.00  0.00     0.121 A 
BRANCH  10  12
HETATM   12  C12 UNL     1      26.044   3.807  50.436  1.00  0.00     0.036 A 
HETATM   13  C13 UNL     1      26.902   3.837  49.443  1.00  0.00     0.029 A 
HETATM   14  C14 UNL     1      27.160   5.035  48.648  1.00  0.00    -0.000 A 
HETATM   15  C15 UNL     1      26.485   6.149  48.953  1.00  0.00    -0.007 A 
HETATM   16  C16 UNL     1      25.483   6.284  50.039  1.00  0.00     0.147 A 
HETATM   17  N4  UNL     1      25.364   5.004  50.711  1.00  0.00    -0.386 N 
HETATM   18  H18 UNL     1      24.655   5.065  51.496  1.00  0.00     0.160 HD
ENDBRANCH  10  12
ENDBRANCH   6   7
BRANCH   1  19
HETATM   19  C3  UNL     1      22.195   0.521  52.207  1.00  0.00     0.085 C 
BRANCH  19  20
HETATM   20  C2  UNL     1      20.739   0.628  52.365  1.00  0.00    -0.004 C 
HETATM   21  C1  UNL     1      20.212   1.842  52.442  1.00  0.00     0.076 C 
BRANCH  21  22
HETATM   22  N1  UNL     1      21.075   2.970  52.370  1.00  0.00    -0.408 N 
HETATM   23  H1  UNL     1      21.518   3.387  51.526  1.00  0.00     0.155 HD
HETATM   24  H2  UNL     1      21.684   3.799  52.482  1.00  0.00     0.155 HD
ENDBRANCH  21  22
ENDBRANCH  19  20
ENDBRANCH   1  19
TORSDOF 5
ENDMDL
MODEL 7
REMARK VINA RESULT:      -6.9      1.850      3.641
REMARK  5 active torsions:
REMARK  status: ('A' for Active; 'I' for Inactive)
REMARK    1  A    between atoms: N1_1  and  C1_2 
REMARK    2  A    between atoms: C2_3  and  C3_4 
REMARK    3  A    between atoms: C3_4  and  C4_5 
REMARK    4  A    between atoms: N2_10  and  C9_11 
REMARK    5  A    between atoms: C11_14  and  C12_15 
ROOT
HETATM    1  C4  UNL     1      22.034   1.043  51.322  1.00  0.00     0.017 A 
HETATM    2  C5  UNL     1      21.557  -0.074  51.847  1.00  0.00     0.025 A 
HETATM    3  C6  UNL     1      22.225  -0.740  52.959  1.00  0.00    -0.001 A 
HETATM    4  C7  UNL     1      23.326  -0.156  53.400  1.00  0.00    -0.007 A 
HETATM    5  C8  UNL     1      23.993   1.085  52.933  1.00  0.00     0.157 A 
HETATM    6  N2  UNL     1      23.223   1.630  51.836  1.00  0.00    -0.335 N 
ENDROOT
BRANCH   6   7
HETATM    7  C9  UNL     1      23.797   2.828  51.325  1.00  0.00     0.110 A 
HETATM    8  N3  UNL     1      23.245   4.010  51.429  1.00  0.00    -0.246 NA
HETATM    9  C10 UNL     1      24.080   4.971  50.815  1.00  0.00     0.128 A 
HETATM   10  C11 UNL     1      25.181   4.410  50.306  1.00  0.00    -0.007 A 
HETATM   11  C17 UNL     1      25.092   2.972  50.594  1.00  0.00     0.121 A 
BRANCH  10  12
HETATM   12  C12 UNL     1      26.225   5.130  49.618  1.00  0.00     0.036 A 
HETATM   13  C13 UNL     1      27.213   4.501  49.027  1.00  0.00     0.029 A 
HETATM   14  C14 UNL     1      28.289   5.192  48.319  1.00  0.00    -0.000 A 
HETATM   15  C15 UNL     1      28.257   6.529  48.279  1.00  0.00    -0.007 A 
HETATM   16  C16 UNL     1      27.216   7.389  48.893  1.00  0.00     0.147 A 
HETATM   17  N4  UNL     1      26.242   6.532  49.544  1.00  0.00    -0.386 N 
HETATM   18  H18 UNL     1      25.483   7.116  49.995  1.00  0.00     0.160 HD
ENDBRANCH  10  12
ENDBRANCH   6   7
BRANCH   1  19
HETATM   19  C3  UNL     1      21.384   1.743  50.197  1.00  0.00     0.085 C 
BRANCH  19  20
HETATM   20  C2  UNL     1      21.714   1.167  48.887  1.00  0.00    -0.004 C 
HETATM   21  C1  UNL     1      22.113   1.994  47.931  1.00  0.00     0.076 C 
BRANCH  21  22
HETATM   22  N1  UNL     1      22.200   3.383  48.217  1.00  0.00    -0.408 N 
HETATM   23  H1  UNL     1      22.851   3.866  48.871  1.00  0.00     0.155 HD
HETATM   24  H2  UNL     1      22.139   4.412  48.318  1.00  0.00     0.155 HD
ENDBRANCH  21  22
ENDBRANCH  19  20
ENDBRANCH   1  19
TORSDOF 5
ENDMDL
MODEL 8
REMARK VINA RESULT:      -6.9      1.882      7.114
REMARK  5 active torsions:
REMARK  status: ('A' for Active; 'I' for Inactive)
REMARK    1  A    between atoms: N1_1  and  C1_2 
REMARK    2  A    between atoms: C2_3  and  C3_4 
REMARK    3  A    between atoms: C3_4  and  C4_5 
REMARK    4  A    between atoms: N2_10  and  C9_11 
REMARK    5  A    between atoms: C11_14  and  C12_15 
ROOT
HETATM    1  C4  UNL     1      24.842   5.421  49.175  1.00  0.00     0.017 A 
HETATM    2  C5  UNL     1      25.742   6.247  48.666  1.00  0.00     0.025 A 
HETATM    3  C6  UNL     1      27.134   5.847  48.496  1.00  0.00    -0.001 A 
HETATM    4  C7  UNL     1      27.430   4.618  48.882  1.00  0.00    -0.007 A 
HETATM    5  C8  UNL     1      26.554   3.572  49.467  1.00  0.00     0.157 A 
HETATM    6  N2  UNL     1      25.215   4.108  49.574  1.00  0.00    -0.335 N 
ENDROOT
BRANCH   6   7
HETATM    7  C9  UNL     1      24.305   3.164  50.130  1.00  0.00     0.110 A 
HETATM    8  N3  UNL     1      23.324   2.608  49.464  1.00  0.00    -0.246 NA
HETATM    9  C10 UNL     1      22.623   1.726  50.317  1.00  0.00     0.128 A 
HETATM   10  C11 UNL     1      23.150   1.709  51.545  1.00  0.00    -0.007 A 
HETATM   11  C17 UNL     1      24.286   2.640  51.528  1.00  0.00     0.121 A 
BRANCH  10  12
HETATM   12  C12 UNL     1      22.655   0.907  52.638  1.00  0.00     0.036 A 
HETATM   13  C13 UNL     1      23.415   0.016  53.229  1.00  0.00     0.029 A 
HETATM   14  C14 UNL     1      22.953  -0.815  54.339  1.00  0.00    -0.000 A 
HETATM   15  C15 UNL     1      21.695  -0.653  54.764  1.00  0.00    -0.007 A 
HETATM   16  C16 UNL     1      20.710   0.307  54.208  1.00  0.00     0.147 A 
HETATM   17  N4  UNL     1      21.345   1.036  53.126  1.00  0.00    -0.386 N 
HETATM   18  H18 UNL     1      20.667   1.731  52.705  1.00  0.00     0.160 HD
ENDBRANCH  10  12
ENDBRANCH   6   7
BRANCH   1  19
HETATM   19  C3  UNL     1      23.426   5.793  49.361  1.00  0.00     0.085 C 
BRANCH  19  20
HETATM   20  C2  UNL     1      23.151   6.393  50.673  1.00  0.00    -0.004 C 
HETATM   21  C1  UNL     1      22.083   5.972  51.334  1.00  0.00     0.076 C 
BRANCH  21  22
HETATM   22  N1  UNL     1      21.263   4.970  50.747  1.00  0.00    -0.408 N 
HETATM   23  H1  UNL     1      20.499   5.090  50.050  1.00  0.00     0.155 HD
HETATM   24  H2  UNL     1      20.752   4.133  50.412  1.00  0.00     0.155 HD
ENDBRANCH  21  22
ENDBRANCH  19  20
ENDBRANCH   1  19
TORSDOF 5
ENDMDL
MODEL 9
REMARK VINA RESULT:      -6.9      2.780      6.500
REMARK  5 active torsions:
REMARK  status: ('A' for Active; 'I' for Inactive)
REMARK    1  A    between atoms: N1_1  and  C1_2 
REMARK    2  A    between atoms: C2_3  and  C3_4 
REMARK    3  A    between atoms: C3_4  and  C4_5 
REMARK    4  A    between atoms: N2_10  and  C9_11 
REMARK    5  A    between atoms: C11_14  and  C12_15 
ROOT
HETATM    1  C4  UNL     1      23.535   5.488  48.347  1.00  0.00     0.017 A 
HETATM    2  C5  UNL     1      22.913   5.878  47.245  1.00  0.00     0.025 A 
HETATM    3  C6  UNL     1      22.055   4.971  46.492  1.00  0.00    -0.001 A 
HETATM    4  C7  UNL     1      21.945   3.747  46.980  1.00  0.00    -0.007 A 
HETATM    5  C8  UNL     1      22.565   3.149  48.189  1.00  0.00     0.157 A 
HETATM    6  N2  UNL     1      23.381   4.159  48.828  1.00  0.00    -0.335 N 
ENDROOT
BRANCH   6   7
HETATM    7  C9  UNL     1      24.017   3.666  50.002  1.00  0.00     0.110 A 
HETATM    8  N3  UNL     1      23.516   3.767  51.208  1.00  0.00    -0.246 NA
HETATM    9  C10 UNL     1      24.404   3.175  52.133  1.00  0.00     0.128 A 
HETATM   10  C11 UNL     1      25.491   2.687  51.527  1.00  0.00    -0.007 A 
HETATM   11  C17 UNL     1      25.332   2.963  50.093  1.00  0.00     0.121 A 
BRANCH  10  12
HETATM   12  C12 UNL     1      26.579   2.023  52.204  1.00  0.00     0.036 A 
HETATM   13  C13 UNL     1      26.682   0.715  52.211  1.00  0.00     0.029 A 
HETATM   14  C14 UNL     1      27.768   0.005  52.883  1.00  0.00    -0.000 A 
HETATM   15  C15 UNL     1      28.694   0.730  53.520  1.00  0.00    -0.007 A 
HETATM   16  C16 UNL     1      28.725   2.211  53.607  1.00  0.00     0.147 A 
HETATM   17  N4  UNL     1      27.579   2.734  52.887  1.00  0.00    -0.386 N 
HETATM   18  H18 UNL     1      27.570   3.792  52.930  1.00  0.00     0.160 HD
ENDBRANCH  10  12
ENDBRANCH   6   7
BRANCH   1  19
HETATM   19  C3  UNL     1      24.410   6.379  49.133  1.00  0.00     0.085 C 
BRANCH  19  20
HETATM   20  C2  UNL     1      23.717   7.568  49.646  1.00  0.00    -0.004 C 
HETATM   21  C1  UNL     1      23.726   7.773  50.955  1.00  0.00     0.076 C 
BRANCH  21  22
HETATM   22  N1  UNL     1      24.399   6.841  51.791  1.00  0.00    -0.408 N 
HETATM   23  H1  UNL     1      24.837   5.935  51.523  1.00  0.00     0.155 HD
HETATM   24  H2  UNL     1      24.856   6.269  52.522  1.00  0.00     0.155 HD
ENDBRANCH  21  22
ENDBRANCH  19  20
ENDBRANCH   1  19
TORSDOF 5
ENDMDL
