MODEL 1
REMARK VINA RESULT:      -7.2      0.000      0.000
REMARK  4 active torsions:
REMARK  status: ('A' for Active; 'I' for Inactive)
REMARK    1  A    between atoms: O1_2  and  C2_3 
REMARK    2  A    between atoms: C6_9  and  O2_10 
REMARK    3  A    between atoms: O2_10  and  C7_11 
REMARK    4  A    between atoms: C7_11  and  C8_12 
ROOT
HETATM    1  C2  UNL     1      19.050  -0.813  53.200  1.00  0.00     0.072 C 
HETATM    2  C3  UNL     1      20.034  -1.377  53.864  1.00  0.00     0.067 C 
HETATM    3  C4  UNL     1      21.455  -1.066  53.959  1.00  0.00     0.075 A 
HETATM    4  N1  UNL     1      21.865  -1.542  55.149  1.00  0.00    -0.241 NA
HETATM    5  C5  UNL     1      23.166  -1.394  55.516  1.00  0.00     0.236 A 
HETATM    6  N2  UNL     1      24.048  -0.779  54.707  1.00  0.00    -0.217 NA
HETATM    7  C6  UNL     1      23.724  -0.282  53.519  1.00  0.00     0.178 A 
HETATM    8  C11 UNL     1      22.385  -0.429  53.130  1.00  0.00     0.047 A 
HETATM    9  C12 UNL     1      22.238   0.185  51.794  1.00  0.00     0.042 C 
HETATM   10  C13 UNL     1      21.187   0.464  51.038  1.00  0.00     0.136 C 
HETATM   11  O3  UNL     1      19.820   0.292  51.201  1.00  0.00    -0.357 OA
HETATM   12  C14 UNL     1      18.897   0.346  52.273  1.00  0.00     0.239 C 
ENDROOT
BRANCH   7  13
HETATM   13  O2  UNL     1      24.492   0.362  52.595  1.00  0.00    -0.330 OA
BRANCH  13  14
HETATM   14  C7  UNL     1      25.595   1.193  52.846  1.00  0.00     0.206 C 
BRANCH  14  15
HETATM   15  C8  UNL     1      26.786   0.329  53.073  1.00  0.00     0.014 C 
HETATM   16  C9  UNL     1      28.019   0.772  53.365  1.00  0.00    -0.017 C 
HETATM   17  C10 UNL     1      28.227   2.244  53.472  1.00  0.00     0.056 C 
HETATM   18 BR1  UNL     1      29.357  -0.570  53.606  1.00  0.00    -0.056 Br
ENDBRANCH  14  15
ENDBRANCH  13  14
ENDBRANCH   7  13
BRANCH   1  19
HETATM   19  O1  UNL     1      17.844  -1.464  53.416  1.00  0.00    -0.358 OA
HETATM   20  C1  UNL     1      17.831  -2.812  53.798  1.00  0.00     0.209 C 
ENDBRANCH   1  19
TORSDOF 4
ENDMDL
MODEL 2
REMARK VINA RESULT:      -7.1      3.729      7.331
REMARK  4 active torsions:
REMARK  status: ('A' for Active; 'I' for Inactive)
REMARK    1  A    between atoms: O1_2  and  C2_3 
REMARK    2  A    between atoms: C6_9  and  O2_10 
REMARK    3  A    between atoms: O2_10  and  C7_11 
REMARK    4  A    between atoms: C7_11  and  C8_12 
ROOT
HETATM    1  C2  UNL     1      27.892   0.687  53.679  1.00  0.00     0.072 C 
HETATM    2  C3  UNL     1      27.533   1.237  52.540  1.00  0.00     0.067 C 
HETATM    3  C4  UNL     1      26.229   1.595  51.995  1.00  0.00     0.075 A 
HETATM    4  N1  UNL     1      26.448   2.599  51.126  1.00  0.00    -0.241 NA
HETATM    5  C5  UNL     1      25.398   3.143  50.455  1.00  0.00     0.236 A 
HETATM    6  N2  UNL     1      24.144   2.694  50.649  1.00  0.00    -0.217 NA
HETATM    7  C6  UNL     1      23.844   1.709  51.488  1.00  0.00     0.178 A 
HETATM    8  C11 UNL     1      24.919   1.140  52.184  1.00  0.00     0.047 A 
HETATM    9  C12 UNL     1      24.374   0.076  53.054  1.00  0.00     0.042 C 
HETATM   10  C13 UNL     1      24.903  -0.662  54.018  1.00  0.00     0.136 C 
HETATM   11  O3  UNL     1      26.166  -0.726  54.590  1.00  0.00    -0.357 OA
HETATM   12  C14 UNL     1      27.201   0.187  54.902  1.00  0.00     0.239 C 
ENDROOT
BRANCH   7  13
HETATM   13  O2  UNL     1      22.639   1.148  51.791  1.00  0.00    -0.330 OA
BRANCH  13  14
HETATM   14  C7  UNL     1      21.507   1.804  52.300  1.00  0.00     0.206 C 
BRANCH  14  15
HETATM   15  C8  UNL     1      20.387   0.826  52.348  1.00  0.00     0.014 C 
HETATM   16  C9  UNL     1      20.100   0.028  53.389  1.00  0.00    -0.017 C 
HETATM   17  C10 UNL     1      20.965   0.118  54.599  1.00  0.00     0.056 C 
HETATM   18 BR1  UNL     1      18.597  -1.131  53.168  1.00  0.00    -0.056 Br
ENDBRANCH  14  15
ENDBRANCH  13  14
ENDBRANCH   7  13
BRANCH   1  19
HETATM   19  O1  UNL     1      29.268   0.533  53.763  1.00  0.00    -0.358 OA
HETATM   20  C1  UNL     1      29.837  -0.747  53.701  1.00  0.00     0.209 C 
ENDBRANCH   1  19
TORSDOF 4
ENDMDL
MODEL 3
REMARK VINA RESULT:      -7.1      3.219      6.982
REMARK  4 active torsions:
REMARK  status: ('A' for Active; 'I' for Inactive)
REMARK    1  A    between atoms: O1_2  and  C2_3 
REMARK    2  A    between atoms: C6_9  and  O2_10 
REMARK    3  A    between atoms: O2_10  and  C7_11 
REMARK    4  A    between atoms: C7_11  and  C8_12 
ROOT
HETATM    1  C2  UNL     1      27.046   0.277  53.110  1.00  0.00     0.072 C 
HETATM    2  C3  UNL     1      26.366  -0.088  54.175  1.00  0.00     0.067 C 
HETATM    3  C4  UNL     1      24.957  -0.401  54.375  1.00  0.00     0.075 A 
HETATM    4  N1  UNL     1      24.903  -1.237  55.429  1.00  0.00    -0.241 NA
HETATM    5  C5  UNL     1      23.698  -1.702  55.852  1.00  0.00     0.236 A 
HETATM    6  N2  UNL     1      22.559  -1.340  55.233  1.00  0.00    -0.217 NA
HETATM    7  C6  UNL     1      22.526  -0.522  54.188  1.00  0.00     0.178 A 
HETATM    8  C11 UNL     1      23.762  -0.035  53.743  1.00  0.00     0.047 A 
HETATM    9  C12 UNL     1      23.505   0.847  52.585  1.00  0.00     0.042 C 
HETATM   10  C13 UNL     1      24.298   1.434  51.702  1.00  0.00     0.136 C 
HETATM   11  O3  UNL     1      25.673   1.451  51.514  1.00  0.00    -0.357 OA
HETATM   12  C14 UNL     1      26.744   0.540  51.673  1.00  0.00     0.239 C 
ENDROOT
BRANCH   7  13
HETATM   13  O2  UNL     1      21.467  -0.067  53.461  1.00  0.00    -0.330 OA
BRANCH  13  14
HETATM   14  C7  UNL     1      20.119  -0.428  53.615  1.00  0.00     0.206 C 
BRANCH  14  15
HETATM   15  C8  UNL     1      19.392  -0.048  52.374  1.00  0.00     0.014 C 
HETATM   16  C9  UNL     1      18.173  -0.490  52.025  1.00  0.00    -0.017 C 
HETATM   17  C10 UNL     1      17.483  -1.438  52.945  1.00  0.00     0.056 C 
HETATM   18 BR1  UNL     1      17.484   0.170  50.370  1.00  0.00    -0.056 Br
ENDBRANCH  14  15
ENDBRANCH  13  14
ENDBRANCH   7  13
BRANCH   1  19
HETATM   19  O1  UNL     1      28.389   0.469  53.399  1.00  0.00    -0.358 OA
HETATM   20  C1  UNL     1      28.957  -0.129  54.533  1.00  0.00     0.209 C 
ENDBRANCH   1  19
TORSDOF 4
ENDMDL
MODEL 4
REMARK VINA RESULT:      -6.8      3.364      6.235
REMARK  4 active torsions:
REMARK  status: ('A' for Active; 'I' for Inactive)
REMARK    1  A    between atoms: O1_2  and  C2_3 
REMARK    2  A    between atoms: C6_9  and  O2_10 
REMARK    3  A    between atoms: O2_10  and  C7_11 
REMARK    4  A    between atoms: C7_11  and  C8_12 
ROOT
HETATM    1  C2  UNL     1      26.447  -0.537  53.422  1.00  0.00     0.072 C 
HETATM    2  C3  UNL     1      25.396  -0.634  54.207  1.00  0.00     0.067 C 
HETATM    3  C4  UNL     1      23.986  -0.332  53.996  1.00  0.00     0.075 A 
HETATM    4  N1  UNL     1      23.302  -1.119  54.847  1.00  0.00    -0.241 NA
HETATM    5  C5  UNL     1      21.944  -1.052  54.873  1.00  0.00     0.236 A 
HETATM    6  N2  UNL     1      21.275  -0.211  54.062  1.00  0.00    -0.217 NA
HETATM    7  C6  UNL     1      21.876   0.597  53.196  1.00  0.00     0.178 A 
HETATM    8  C11 UNL     1      23.275   0.537  53.160  1.00  0.00     0.047 A 
HETATM    9  C12 UNL     1      23.738   1.503  52.141  1.00  0.00     0.042 C 
HETATM   10  C13 UNL     1      24.919   1.743  51.594  1.00  0.00     0.136 C 
HETATM   11  O3  UNL     1      26.180   1.187  51.759  1.00  0.00    -0.357 OA
HETATM   12  C14 UNL     1      26.711  -0.098  52.021  1.00  0.00     0.239 C 
ENDROOT
BRANCH   7  13
HETATM   13  O2  UNL     1      21.345   1.493  52.317  1.00  0.00    -0.330 OA
BRANCH  13  14
HETATM   14  C7  UNL     1      20.409   2.500  52.599  1.00  0.00     0.206 C 
BRANCH  14  15
HETATM   15  C8  UNL     1      20.367   3.433  51.441  1.00  0.00     0.014 C 
HETATM   16  C9  UNL     1      21.160   4.505  51.282  1.00  0.00    -0.017 C 
HETATM   17  C10 UNL     1      22.165   4.796  52.343  1.00  0.00     0.056 C 
HETATM   18 BR1  UNL     1      20.881   5.524  49.690  1.00  0.00    -0.056 Br
ENDBRANCH  14  15
ENDBRANCH  13  14
ENDBRANCH   7  13
BRANCH   1  19
HETATM   19  O1  UNL     1      27.607  -0.946  54.063  1.00  0.00    -0.358 OA
HETATM   20  C1  UNL     1      28.425  -0.005  54.704  1.00  0.00     0.209 C 
ENDBRANCH   1  19
TORSDOF 4
ENDMDL
MODEL 5
REMARK VINA RESULT:      -6.8      1.903      2.272
REMARK  4 active torsions:
REMARK  status: ('A' for Active; 'I' for Inactive)
REMARK    1  A    between atoms: O1_2  and  C2_3 
REMARK    2  A    between atoms: C6_9  and  O2_10 
REMARK    3  A    between atoms: O2_10  and  C7_11 
REMARK    4  A    between atoms: C7_11  and  C8_12 
ROOT
HETATM    1  C2  UNL     1      19.061  -0.759  53.176  1.00  0.00     0.072 C 
HETATM    2  C3  UNL     1      20.028  -1.360  53.834  1.00  0.00     0.067 C 
HETATM    3  C4  UNL     1      21.455  -1.085  53.942  1.00  0.00     0.075 A 
HETATM    4  N1  UNL     1      21.847  -1.595  55.124  1.00  0.00    -0.241 NA
HETATM    5  C5  UNL     1      23.149  -1.485  55.500  1.00  0.00     0.236 A 
HETATM    6  N2  UNL     1      24.050  -0.875  54.708  1.00  0.00    -0.217 NA
HETATM    7  C6  UNL     1      23.744  -0.346  53.529  1.00  0.00     0.178 A 
HETATM    8  C11 UNL     1      22.405  -0.453  53.131  1.00  0.00     0.047 A 
HETATM    9  C12 UNL     1      22.280   0.191  51.807  1.00  0.00     0.042 C 
HETATM   10  C13 UNL     1      21.240   0.510  51.052  1.00  0.00     0.136 C 
HETATM   11  O3  UNL     1      19.868   0.368  51.205  1.00  0.00    -0.357 OA
HETATM   12  C14 UNL     1      18.941   0.422  52.272  1.00  0.00     0.239 C 
ENDROOT
BRANCH   7  13
HETATM   13  O2  UNL     1      24.533   0.298  52.623  1.00  0.00    -0.330 OA
BRANCH  13  14
HETATM   14  C7  UNL     1      25.472   1.307  52.888  1.00  0.00     0.206 C 
BRANCH  14  15
HETATM   15  C8  UNL     1      25.604   2.149  51.668  1.00  0.00     0.014 C 
HETATM   16  C9  UNL     1      24.855   3.228  51.388  1.00  0.00    -0.017 C 
HETATM   17  C10 UNL     1      23.804   3.624  52.367  1.00  0.00     0.056 C 
HETATM   18 BR1  UNL     1      25.249   4.118  49.744  1.00  0.00    -0.056 Br
ENDBRANCH  14  15
ENDBRANCH  13  14
ENDBRANCH   7  13
BRANCH   1  19
HETATM   19  O1  UNL     1      17.838  -1.385  53.373  1.00  0.00    -0.358 OA
HETATM   20  C1  UNL     1      17.792  -2.742  53.721  1.00  0.00     0.209 C 
ENDBRANCH   1  19
TORSDOF 4
ENDMDL
MODEL 6
REMARK VINA RESULT:      -6.7      4.583      7.369
REMARK  4 active torsions:
REMARK  status: ('A' for Active; 'I' for Inactive)
REMARK    1  A    between atoms: O1_2  and  C2_3 
REMARK    2  A    between atoms: C6_9  and  O2_10 
REMARK    3  A    between atoms: O2_10  and  C7_11 
REMARK    4  A    between atoms: C7_11  and  C8_12 
ROOT
HETATM    1  C2  UNL     1      27.591   0.271  54.270  1.00  0.00     0.072 C 
HETATM    2  C3  UNL     1      27.616   0.870  53.099  1.00  0.00     0.067 C 
HETATM    3  C4  UNL     1      26.565   1.463  52.281  1.00  0.00     0.075 A 
HETATM    4  N1  UNL     1      27.163   2.400  51.523  1.00  0.00    -0.241 NA
HETATM    5  C5  UNL     1      26.418   3.128  50.649  1.00  0.00     0.236 A 
HETATM    6  N2  UNL     1      25.093   2.924  50.531  1.00  0.00    -0.217 NA
HETATM    7  C6  UNL     1      24.428   2.020  51.241  1.00  0.00     0.178 A 
HETATM    8  C11 UNL     1      25.186   1.264  52.146  1.00  0.00     0.047 A 
HETATM    9  C12 UNL     1      24.266   0.328  52.826  1.00  0.00     0.042 C 
HETATM   10  C13 UNL     1      24.409  -0.488  53.859  1.00  0.00     0.136 C 
HETATM   11  O3  UNL     1      25.468  -0.785  54.705  1.00  0.00    -0.357 OA
HETATM   12  C14 UNL     1      26.552  -0.081  55.281  1.00  0.00     0.239 C 
ENDROOT
BRANCH   7  13
HETATM   13  O2  UNL     1      23.104   1.699  51.237  1.00  0.00    -0.330 OA
BRANCH  13  14
HETATM   14  C7  UNL     1      22.263   1.596  50.117  1.00  0.00     0.206 C 
BRANCH  14  15
HETATM   15  C8  UNL     1      21.396   2.805  50.075  1.00  0.00     0.014 C 
HETATM   16  C9  UNL     1      21.477   3.783  49.160  1.00  0.00    -0.017 C 
HETATM   17  C10 UNL     1      22.514   3.663  48.096  1.00  0.00     0.056 C 
HETATM   18 BR1  UNL     1      20.230   5.217  49.354  1.00  0.00    -0.056 Br
ENDBRANCH  14  15
ENDBRANCH  13  14
ENDBRANCH   7  13
BRANCH   1  19
HETATM   19  O1  UNL     1      28.856  -0.139  54.664  1.00  0.00    -0.358 OA
HETATM   20  C1  UNL     1      29.773  -0.605  53.711  1.00  0.00     0.209 C 
ENDBRANCH   1  19
TORSDOF 4
ENDMDL
MODEL 7
REMARK VINA RESULT:      -6.5      3.623      6.745
REMARK  4 active torsions:
REMARK  status: ('A' for Active; 'I' for Inactive)
REMARK    1  A    between atoms: O1_2  and  C2_3 
REMARK    2  A    between atoms: C6_9  and  O2_10 
REMARK    3  A    between atoms: O2_10  and  C7_11 
REMARK    4  A    between atoms: C7_11  and  C8_12 
ROOT
HETATM    1  C2  UNL     1      26.095   3.184  50.289  1.00  0.00     0.072 C 
HETATM    2  C3  UNL     1      26.601   2.498  51.289  1.00  0.00     0.067 C 
HETATM    3  C4  UNL     1      26.110   1.342  52.030  1.00  0.00     0.075 A 
HETATM    4  N1  UNL     1      27.199   0.714  52.511  1.00  0.00    -0.241 NA
HETATM    5  C5  UNL     1      27.046  -0.415  53.253  1.00  0.00     0.236 A 
HETATM    6  N2  UNL     1      25.822  -0.912  53.514  1.00  0.00    -0.217 NA
HETATM    7  C6  UNL     1      24.700  -0.352  53.077  1.00  0.00     0.178 A 
HETATM    8  C11 UNL     1      24.846   0.812  52.311  1.00  0.00     0.047 A 
HETATM    9  C12 UNL     1      23.493   1.268  51.929  1.00  0.00     0.042 C 
HETATM   10  C13 UNL     1      23.054   2.201  51.098  1.00  0.00     0.136 C 
HETATM   11  O3  UNL     1      23.687   3.111  50.264  1.00  0.00    -0.357 OA
HETATM   12  C14 UNL     1      24.854   3.135  49.463  1.00  0.00     0.239 C 
ENDROOT
BRANCH   7  13
HETATM   13  O2  UNL     1      23.403  -0.731  53.253  1.00  0.00    -0.330 OA
BRANCH  13  14
HETATM   14  C7  UNL     1      22.762  -1.008  54.471  1.00  0.00     0.206 C 
BRANCH  14  15
HETATM   15  C8  UNL     1      21.391  -1.506  54.172  1.00  0.00     0.014 C 
HETATM   16  C9  UNL     1      20.326  -0.730  53.917  1.00  0.00    -0.017 C 
HETATM   17  C10 UNL     1      20.515   0.748  53.933  1.00  0.00     0.056 C 
HETATM   18 BR1  UNL     1      18.687  -1.648  53.564  1.00  0.00    -0.056 Br
ENDBRANCH  14  15
ENDBRANCH  13  14
ENDBRANCH   7  13
BRANCH   1  19
HETATM   19  O1  UNL     1      26.932   4.221  49.902  1.00  0.00    -0.358 OA
HETATM   20  C1  UNL     1      26.505   5.147  48.940  1.00  0.00     0.209 C 
ENDBRANCH   1  19
TORSDOF 4
ENDMDL
MODEL 8
REMARK VINA RESULT:      -6.5      4.082      5.736
REMARK  4 active torsions:
REMARK  status: ('A' for Active; 'I' for Inactive)
REMARK    1  A    between atoms: O1_2  and  C2_3 
REMARK    2  A    between atoms: C6_9  and  O2_10 
REMARK    3  A    between atoms: O2_10  and  C7_11 
REMARK    4  A    between atoms: C7_11  and  C8_12 
ROOT
HETATM    1  C2  UNL     1      24.270  -0.417  53.739  1.00  0.00     0.072 C 
HETATM    2  C3  UNL     1      23.412   0.390  53.153  1.00  0.00     0.067 C 
HETATM    3  C4  UNL     1      23.526   1.258  51.987  1.00  0.00     0.075 A 
HETATM    4  N1  UNL     1      22.281   1.391  51.495  1.00  0.00    -0.241 NA
HETATM    5  C5  UNL     1      22.077   2.158  50.390  1.00  0.00     0.236 A 
HETATM    6  N2  UNL     1      23.102   2.785  49.784  1.00  0.00    -0.217 NA
HETATM    7  C6  UNL     1      24.358   2.705  50.206  1.00  0.00     0.178 A 
HETATM    8  C11 UNL     1      24.580   1.917  51.344  1.00  0.00     0.047 A 
HETATM    9  C12 UNL     1      26.027   1.962  51.643  1.00  0.00     0.042 C 
HETATM   10  C13 UNL     1      26.796   1.293  52.489  1.00  0.00     0.136 C 
HETATM   11  O3  UNL     1      26.550   0.295  53.421  1.00  0.00    -0.357 OA
HETATM   12  C14 UNL     1      25.689  -0.823  53.527  1.00  0.00     0.239 C 
ENDROOT
BRANCH   7  13
HETATM   13  O2  UNL     1      25.492   3.273  49.706  1.00  0.00    -0.330 OA
BRANCH  13  14
HETATM   14  C7  UNL     1      25.690   4.626  49.391  1.00  0.00     0.206 C 
BRANCH  14  15
HETATM   15  C8  UNL     1      27.122   4.814  49.032  1.00  0.00     0.014 C 
HETATM   16  C9  UNL     1      27.627   5.888  48.404  1.00  0.00    -0.017 C 
HETATM   17  C10 UNL     1      26.691   6.985  48.030  1.00  0.00     0.056 C 
HETATM   18 BR1  UNL     1      29.508   5.856  48.071  1.00  0.00    -0.056 Br
ENDBRANCH  14  15
ENDBRANCH  13  14
ENDBRANCH   7  13
BRANCH   1  19
HETATM   19  O1  UNL     1      23.709  -1.052  54.838  1.00  0.00    -0.358 OA
HETATM   20  C1  UNL     1      22.320  -1.029  55.029  1.00  0.00     0.209 C 
ENDBRANCH   1  19
TORSDOF 4
ENDMDL
MODEL 9
REMARK VINA RESULT:      -6.4      3.935      6.867
REMARK  4 active torsions:
REMARK  status: ('A' for Active; 'I' for Inactive)
REMARK    1  A    between atoms: O1_2  and  C2_3 
REMARK    2  A    between atoms: C6_9  and  O2_10 
REMARK    3  A    between atoms: O2_10  and  C7_11 
REMARK    4  A    between atoms: C7_11  and  C8_12 
ROOT
HETATM    1  C2  UNL     1      26.670   0.845  53.693  1.00  0.00     0.072 C 
HETATM    2  C3  UNL     1      25.361   0.763  53.781  1.00  0.00     0.067 C 
HETATM    3  C4  UNL     1      24.301   0.950  52.798  1.00  0.00     0.075 A 
HETATM    4  N1  UNL     1      23.258   0.215  53.225  1.00  0.00    -0.241 NA
HETATM    5  C5  UNL     1      22.110   0.196  52.496  1.00  0.00     0.236 A 
HETATM    6  N2  UNL     1      22.003   0.900  51.355  1.00  0.00    -0.217 NA
HETATM    7  C6  UNL     1      22.984   1.649  50.865  1.00  0.00     0.178 A 
HETATM    8  C11 UNL     1      24.172   1.676  51.608  1.00  0.00     0.047 A 
HETATM    9  C12 UNL     1      25.123   2.557  50.898  1.00  0.00     0.042 C 
HETATM   10  C13 UNL     1      26.412   2.813  51.061  1.00  0.00     0.136 C 
HETATM   11  O3  UNL     1      27.371   2.361  51.956  1.00  0.00    -0.357 OA
HETATM   12  C14 UNL     1      27.664   1.148  52.623  1.00  0.00     0.239 C 
ENDROOT
BRANCH   7  13
HETATM   13  O2  UNL     1      23.029   2.410  49.735  1.00  0.00    -0.330 OA
BRANCH  13  14
HETATM   14  C7  UNL     1      21.956   3.075  49.122  1.00  0.00     0.206 C 
BRANCH  14  15
HETATM   15  C8  UNL     1      22.051   4.521  49.460  1.00  0.00     0.014 C 
HETATM   16  C9  UNL     1      21.373   5.131  50.444  1.00  0.00    -0.017 C 
HETATM   17  C10 UNL     1      20.446   4.308  51.271  1.00  0.00     0.056 C 
HETATM   18 BR1  UNL     1      21.696   7.003  50.649  1.00  0.00    -0.056 Br
ENDBRANCH  14  15
ENDBRANCH  13  14
ENDBRANCH   7  13
BRANCH   1  19
HETATM   19  O1  UNL     1      27.284   0.582  54.910  1.00  0.00    -0.358 OA
HETATM   20  C1  UNL     1      28.642   0.240  54.952  1.00  0.00     0.209 C 
ENDBRANCH   1  19
TORSDOF 4
ENDMDL
