MODEL 1
REMARK VINA RESULT:      -8.9      0.000      0.000
REMARK  2 active torsions:
REMARK  status: ('A' for Active; 'I' for Inactive)
REMARK    1  A    between atoms: C16_20  and  C17_21 
REMARK    2  A    between atoms: C17_21  and  O2_23 
ROOT
HETATM    1  C1  UNL     1      21.899  -1.796  54.567  1.00  0.00     0.024 C 
HETATM    2  C2  UNL     1      22.479  -0.840  53.863  1.00  0.00    -0.027 A 
HETATM    3  C3  UNL     1      21.864  -0.006  52.825  1.00  0.00     0.021 A 
HETATM    4  C4  UNL     1      22.720   0.860  52.313  1.00  0.00    -0.028 A 
HETATM    5  C5  UNL     1      22.275   1.789  51.248  1.00  0.00     0.156 C 
HETATM    6  N1  UNL     1      23.327   2.317  50.463  1.00  0.00    -0.390 N 
HETATM    7  C6  UNL     1      24.095   3.384  50.986  1.00  0.00     0.119 A 
HETATM    8  C7  UNL     1      23.614   4.023  52.241  1.00  0.00     0.068 C 
HETATM    9  C8  UNL     1      24.040   4.479  49.950  1.00  0.00     0.027 A 
HETATM   10  C9  UNL     1      25.024   5.000  49.237  1.00  0.00     0.021 A 
HETATM   11  C10 UNL     1      26.337   4.430  49.496  1.00  0.00     0.026 A 
HETATM   12 BR1  UNL     1      27.805   5.137  48.500  1.00  0.00    -0.050 Br
HETATM   13  C11 UNL     1      26.548   3.470  50.368  1.00  0.00     0.110 A 
HETATM   14  N2  UNL     1      25.462   2.928  51.122  1.00  0.00    -0.333 N 
HETATM   15  C12 UNL     1      26.137   1.937  51.918  1.00  0.00     0.247 C 
HETATM   16  N3  UNL     1      26.794   2.416  53.122  1.00  0.00    -0.256 NA
HETATM   17  C13 UNL     1      26.304   1.411  53.732  1.00  0.00     0.094 C 
HETATM   18  C14 UNL     1      25.320   1.256  52.913  1.00  0.00     0.029 C 
HETATM   19  C15 UNL     1      23.994   0.658  52.989  1.00  0.00     0.002 A 
HETATM   20  C16 UNL     1      23.835  -0.315  53.868  1.00  0.00     0.058 A 
HETATM   21  H6  UNL     1      23.872   1.624  49.935  1.00  0.00     0.156 HD
ENDROOT
BRANCH  20  22
HETATM   22  C17 UNL     1      24.830  -0.868  54.776  1.00  0.00     0.177 C 
HETATM   23  O1  UNL     1      25.800  -1.606  54.458  1.00  0.00    -0.646 OA
BRANCH  22  24
HETATM   24  O2  UNL     1      25.296  -0.987  56.042  1.00  0.00    -0.773 OA
HETATM   25  H14 UNL     1      25.124  -1.797  56.620  1.00  0.00     0.167 HD
ENDBRANCH  22  24
ENDBRANCH  20  22
TORSDOF 2
ENDMDL
MODEL 2
REMARK VINA RESULT:      -8.4      3.794      5.103
REMARK  2 active torsions:
REMARK  status: ('A' for Active; 'I' for Inactive)
REMARK    1  A    between atoms: C16_20  and  C17_21 
REMARK    2  A    between atoms: C17_21  and  O2_23 
ROOT
HETATM    1  C1  UNL     1      16.661   0.074  50.597  1.00  0.00     0.024 C 
HETATM    2  C2  UNL     1      17.937   0.216  50.904  1.00  0.00    -0.027 A 
HETATM    3  C3  UNL     1      18.958   0.941  50.140  1.00  0.00     0.021 A 
HETATM    4  C4  UNL     1      20.143   0.893  50.722  1.00  0.00    -0.028 A 
HETATM    5  C5  UNL     1      21.299   1.572  50.091  1.00  0.00     0.156 C 
HETATM    6  N1  UNL     1      22.558   1.081  50.512  1.00  0.00    -0.390 N 
HETATM    7  C6  UNL     1      23.069   1.506  51.761  1.00  0.00     0.119 A 
HETATM    8  C7  UNL     1      22.348   2.606  52.458  1.00  0.00     0.068 C 
HETATM    9  C8  UNL     1      24.441   2.066  51.476  1.00  0.00     0.027 A 
HETATM   10  C9  UNL     1      25.619   1.633  51.893  1.00  0.00     0.021 A 
HETATM   11  C10 UNL     1      25.573   0.453  52.742  1.00  0.00     0.026 A 
HETATM   12 BR1  UNL     1      27.239  -0.226  53.380  1.00  0.00    -0.050 Br
HETATM   13  C11 UNL     1      24.455  -0.150  53.080  1.00  0.00     0.110 A 
HETATM   14  N2  UNL     1      23.199   0.343  52.612  1.00  0.00    -0.333 N 
HETATM   15  C12 UNL     1      22.286  -0.597  53.208  1.00  0.00     0.247 C 
HETATM   16  N3  UNL     1      21.919  -0.350  54.592  1.00  0.00    -0.256 NA
HETATM   17  C13 UNL     1      20.715  -0.609  54.269  1.00  0.00     0.094 C 
HETATM   18  C14 UNL     1      20.869  -0.313  53.024  1.00  0.00     0.029 C 
HETATM   19  C15 UNL     1      19.990   0.114  51.944  1.00  0.00     0.002 A 
HETATM   20  C16 UNL     1      18.726  -0.261  52.028  1.00  0.00     0.058 A 
HETATM   21  H6  UNL     1      22.740   0.093  50.296  1.00  0.00     0.156 HD
ENDROOT
BRANCH  20  22
HETATM   22  C17 UNL     1      18.101  -1.057  53.075  1.00  0.00     0.177 C 
HETATM   23  O1  UNL     1      18.066  -2.315  53.134  1.00  0.00    -0.646 OA
BRANCH  22  24
HETATM   24  O2  UNL     1      17.407  -1.092  54.238  1.00  0.00    -0.773 OA
HETATM   25  H14 UNL     1      16.659  -0.449  54.454  1.00  0.00     0.167 HD
ENDBRANCH  22  24
ENDBRANCH  20  22
TORSDOF 2
ENDMDL
MODEL 3
REMARK VINA RESULT:      -8.1      2.257      3.757
REMARK  2 active torsions:
REMARK  status: ('A' for Active; 'I' for Inactive)
REMARK    1  A    between atoms: C16_20  and  C17_21 
REMARK    2  A    between atoms: C17_21  and  O2_23 
ROOT
HETATM    1  C1  UNL     1      26.712  -1.267  53.123  1.00  0.00     0.024 C 
HETATM    2  C2  UNL     1      26.125  -0.187  52.641  1.00  0.00    -0.027 A 
HETATM    3  C3  UNL     1      26.751   0.895  51.875  1.00  0.00     0.021 A 
HETATM    4  C4  UNL     1      25.884   1.833  51.539  1.00  0.00    -0.028 A 
HETATM    5  C5  UNL     1      26.339   3.009  50.759  1.00  0.00     0.156 C 
HETATM    6  N1  UNL     1      25.488   4.135  50.862  1.00  0.00    -0.390 N 
HETATM    7  C6  UNL     1      24.301   4.162  50.092  1.00  0.00     0.119 A 
HETATM    8  C7  UNL     1      24.128   3.099  49.065  1.00  0.00     0.068 C 
HETATM    9  C8  UNL     1      24.347   5.450  49.309  1.00  0.00     0.027 A 
HETATM   10  C9  UNL     1      23.536   6.494  49.375  1.00  0.00     0.021 A 
HETATM   11  C10 UNL     1      22.456   6.369  50.341  1.00  0.00     0.026 A 
HETATM   12 BR1  UNL     1      21.247   7.840  50.489  1.00  0.00    -0.050 Br
HETATM   13  C11 UNL     1      22.283   5.309  51.099  1.00  0.00     0.110 A 
HETATM   14  N2  UNL     1      23.177   4.200  51.003  1.00  0.00    -0.333 N 
HETATM   15  C12 UNL     1      22.624   3.305  51.984  1.00  0.00     0.247 C 
HETATM   16  N3  UNL     1      21.498   2.492  51.553  1.00  0.00    -0.256 NA
HETATM   17  C13 UNL     1      22.050   1.504  52.134  1.00  0.00     0.094 C 
HETATM   18  C14 UNL     1      23.243   1.988  52.066  1.00  0.00     0.029 C 
HETATM   19  C15 UNL     1      24.589   1.432  52.072  1.00  0.00     0.002 A 
HETATM   20  C16 UNL     1      24.748   0.278  52.695  1.00  0.00     0.058 A 
HETATM   21  H6  UNL     1      25.387   4.525  51.807  1.00  0.00     0.156 HD
ENDROOT
BRANCH  20  22
HETATM   22  C17 UNL     1      23.737  -0.510  53.384  1.00  0.00     0.177 C 
HETATM   23  O1  UNL     1      23.589  -0.605  54.632  1.00  0.00    -0.646 OA
BRANCH  22  24
HETATM   24  O2  UNL     1      22.676  -1.348  53.304  1.00  0.00    -0.773 OA
HETATM   25  H14 UNL     1      21.759  -1.052  53.003  1.00  0.00     0.167 HD
ENDBRANCH  22  24
ENDBRANCH  20  22
TORSDOF 2
ENDMDL
MODEL 4
REMARK VINA RESULT:      -8.1      3.943      6.702
REMARK  2 active torsions:
REMARK  status: ('A' for Active; 'I' for Inactive)
REMARK    1  A    between atoms: C16_20  and  C17_21 
REMARK    2  A    between atoms: C17_21  and  O2_23 
ROOT
HETATM    1  C1  UNL     1      26.719   6.096  48.371  1.00  0.00     0.024 C 
HETATM    2  C2  UNL     1      26.206   5.191  49.185  1.00  0.00    -0.027 A 
HETATM    3  C3  UNL     1      26.881   4.014  49.741  1.00  0.00     0.021 A 
HETATM    4  C4  UNL     1      26.085   3.308  50.524  1.00  0.00    -0.028 A 
HETATM    5  C5  UNL     1      26.598   2.080  51.177  1.00  0.00     0.156 C 
HETATM    6  N1  UNL     1      25.587   1.176  51.583  1.00  0.00    -0.390 N 
HETATM    7  C6  UNL     1      24.880   1.441  52.779  1.00  0.00     0.119 A 
HETATM    8  C7  UNL     1      25.386   2.542  53.644  1.00  0.00     0.068 C 
HETATM    9  C8  UNL     1      25.012   0.197  53.621  1.00  0.00     0.027 A 
HETATM   10  C9  UNL     1      24.069  -0.634  54.033  1.00  0.00     0.021 A 
HETATM   11  C10 UNL     1      22.721  -0.290  53.606  1.00  0.00     0.026 A 
HETATM   12 BR1  UNL     1      21.310  -1.449  54.165  1.00  0.00    -0.050 Br
HETATM   13  C11 UNL     1      22.444   0.761  52.869  1.00  0.00     0.110 A 
HETATM   14  N2  UNL     1      23.486   1.639  52.441  1.00  0.00    -0.333 N 
HETATM   15  C12 UNL     1      22.744   2.612  51.684  1.00  0.00     0.247 C 
HETATM   16  N3  UNL     1      22.105   3.671  52.446  1.00  0.00    -0.256 NA
HETATM   17  C13 UNL     1      22.526   4.492  51.570  1.00  0.00     0.094 C 
HETATM   18  C14 UNL     1      23.508   3.749  51.187  1.00  0.00     0.029 C 
HETATM   19  C15 UNL     1      24.794   3.981  50.544  1.00  0.00     0.002 A 
HETATM   20  C16 UNL     1      24.885   5.052  49.775  1.00  0.00     0.058 A 
HETATM   21  H6  UNL     1      25.007   0.796  50.825  1.00  0.00     0.156 HD
ENDROOT
BRANCH  20  22
HETATM   22  C17 UNL     1      23.848   6.033  49.487  1.00  0.00     0.177 C 
HETATM   23  O1  UNL     1      23.036   5.997  48.525  1.00  0.00    -0.646 OA
BRANCH  22  24
HETATM   24  O2  UNL     1      23.224   7.185  49.829  1.00  0.00    -0.773 OA
HETATM   25  H14 UNL     1      22.822   7.818  49.153  1.00  0.00     0.167 HD
ENDBRANCH  22  24
ENDBRANCH  20  22
TORSDOF 2
ENDMDL
MODEL 5
REMARK VINA RESULT:      -7.9      5.255      7.628
REMARK  2 active torsions:
REMARK  status: ('A' for Active; 'I' for Inactive)
REMARK    1  A    between atoms: C16_20  and  C17_21 
REMARK    2  A    between atoms: C17_21  and  O2_23 
ROOT
HETATM    1  C1  UNL     1      24.750   3.126  50.057  1.00  0.00     0.024 C 
HETATM    2  C2  UNL     1      25.488   4.184  49.774  1.00  0.00    -0.027 A 
HETATM    3  C3  UNL     1      26.764   4.207  49.052  1.00  0.00     0.021 A 
HETATM    4  C4  UNL     1      27.247   5.432  48.935  1.00  0.00    -0.028 A 
HETATM    5  C5  UNL     1      28.533   5.650  48.231  1.00  0.00     0.156 C 
HETATM    6  N1  UNL     1      29.174   6.866  48.564  1.00  0.00    -0.390 N 
HETATM    7  C6  UNL     1      28.715   8.062  47.963  1.00  0.00     0.119 A 
HETATM    8  C7  UNL     1      27.723   7.937  46.860  1.00  0.00     0.068 C 
HETATM    9  C8  UNL     1      29.926   8.694  47.322  1.00  0.00     0.027 A 
HETATM   10  C9  UNL     1      30.511   9.846  47.605  1.00  0.00     0.021 A 
HETATM   11  C10 UNL     1      29.893  10.598  48.685  1.00  0.00     0.026 A 
HETATM   12 BR1  UNL     1      30.688  12.272  49.146  1.00  0.00    -0.050 Br
HETATM   13  C11 UNL     1      28.833  10.181  49.342  1.00  0.00     0.110 A 
HETATM   14  N2  UNL     1      28.226   8.931  49.012  1.00  0.00    -0.333 N 
HETATM   15  C12 UNL     1      27.141   8.886  49.956  1.00  0.00     0.247 C 
HETATM   16  N3  UNL     1      25.939   9.618  49.593  1.00  0.00    -0.256 NA
HETATM   17  C13 UNL     1      25.265   8.614  49.988  1.00  0.00     0.094 C 
HETATM   18  C14 UNL     1      26.221   7.766  49.816  1.00  0.00     0.029 C 
HETATM   19  C15 UNL     1      26.303   6.330  49.586  1.00  0.00     0.002 A 
HETATM   20  C16 UNL     1      25.309   5.598  50.057  1.00  0.00     0.058 A 
HETATM   21  H6  UNL     1      29.444   6.966  49.550  1.00  0.00     0.156 HD
ENDROOT
BRANCH  20  22
HETATM   22  C17 UNL     1      24.134   6.055  50.785  1.00  0.00     0.177 C 
HETATM   23  O1  UNL     1      22.971   6.182  50.318  1.00  0.00    -0.646 OA
BRANCH  22  24
HETATM   24  O2  UNL     1      23.596   6.491  51.949  1.00  0.00    -0.773 OA
HETATM   25  H14 UNL     1      24.091   6.468  52.829  1.00  0.00     0.167 HD
ENDBRANCH  22  24
ENDBRANCH  20  22
TORSDOF 2
ENDMDL
MODEL 6
REMARK VINA RESULT:      -7.8      2.024      2.569
REMARK  2 active torsions:
REMARK  status: ('A' for Active; 'I' for Inactive)
REMARK    1  A    between atoms: C16_20  and  C17_21 
REMARK    2  A    between atoms: C17_21  and  O2_23 
ROOT
HETATM    1  C1  UNL     1      18.435  -1.012  53.074  1.00  0.00     0.024 C 
HETATM    2  C2  UNL     1      19.371  -0.210  52.600  1.00  0.00    -0.027 A 
HETATM    3  C3  UNL     1      19.221   0.809  51.557  1.00  0.00     0.021 A 
HETATM    4  C4  UNL     1      20.355   1.443  51.314  1.00  0.00    -0.028 A 
HETATM    5  C5  UNL     1      20.394   2.510  50.286  1.00  0.00     0.156 C 
HETATM    6  N1  UNL     1      21.688   2.779  49.781  1.00  0.00    -0.390 N 
HETATM    7  C6  UNL     1      22.566   3.577  50.552  1.00  0.00     0.119 A 
HETATM    8  C7  UNL     1      21.999   4.256  51.749  1.00  0.00     0.068 C 
HETATM    9  C8  UNL     1      23.008   4.698  49.646  1.00  0.00     0.027 A 
HETATM   10  C9  UNL     1      24.220   4.976  49.197  1.00  0.00     0.021 A 
HETATM   11  C10 UNL     1      25.263   4.066  49.645  1.00  0.00     0.026 A 
HETATM   12 BR1  UNL     1      27.039   4.409  49.033  1.00  0.00    -0.050 Br
HETATM   13  C11 UNL     1      25.036   3.042  50.436  1.00  0.00     0.110 A 
HETATM   14  N2  UNL     1      23.714   2.769  50.903  1.00  0.00    -0.333 N 
HETATM   15  C12 UNL     1      23.934   1.596  51.706  1.00  0.00     0.247 C 
HETATM   16  N3  UNL     1      24.414   1.822  53.059  1.00  0.00    -0.256 NA
HETATM   17  C13 UNL     1      23.571   0.953  53.453  1.00  0.00     0.094 C 
HETATM   18  C14 UNL     1      22.779   1.105  52.447  1.00  0.00     0.029 C 
HETATM   19  C15 UNL     1      21.362   0.876  52.200  1.00  0.00     0.002 A 
HETATM   20  C16 UNL     1      20.781  -0.063  52.925  1.00  0.00     0.058 A 
HETATM   21  H6  UNL     1      22.144   1.995  49.300  1.00  0.00     0.156 HD
ENDROOT
BRANCH  20  22
HETATM   22  C17 UNL     1      21.388  -0.905  53.945  1.00  0.00     0.177 C 
HETATM   23  O1  UNL     1      21.906  -2.039  53.764  1.00  0.00    -0.646 OA
BRANCH  22  24
HETATM   24  O2  UNL     1      21.725  -1.079  55.246  1.00  0.00    -0.773 OA
HETATM   25  H14 UNL     1      21.066  -0.986  56.005  1.00  0.00     0.167 HD
ENDBRANCH  22  24
ENDBRANCH  20  22
TORSDOF 2
ENDMDL
MODEL 7
REMARK VINA RESULT:      -7.7      2.136      2.822
REMARK  2 active torsions:
REMARK  status: ('A' for Active; 'I' for Inactive)
REMARK    1  A    between atoms: C16_20  and  C17_21 
REMARK    2  A    between atoms: C17_21  and  O2_23 
ROOT
HETATM    1  C1  UNL     1      22.634  -1.587  55.073  1.00  0.00     0.024 C 
HETATM    2  C2  UNL     1      22.506  -0.606  54.198  1.00  0.00    -0.027 A 
HETATM    3  C3  UNL     1      21.282   0.127  53.860  1.00  0.00     0.021 A 
HETATM    4  C4  UNL     1      21.495   1.053  52.941  1.00  0.00    -0.028 A 
HETATM    5  C5  UNL     1      20.369   1.896  52.474  1.00  0.00     0.156 C 
HETATM    6  N1  UNL     1      20.580   2.494  51.210  1.00  0.00    -0.390 N 
HETATM    7  C6  UNL     1      21.394   3.649  51.132  1.00  0.00     0.119 A 
HETATM    8  C7  UNL     1      21.806   4.284  52.414  1.00  0.00     0.068 C 
HETATM    9  C8  UNL     1      20.562   4.695  50.435  1.00  0.00     0.027 A 
HETATM   10  C9  UNL     1      20.770   5.284  49.268  1.00  0.00     0.021 A 
HETATM   11  C10 UNL     1      21.972   4.853  48.572  1.00  0.00     0.026 A 
HETATM   12 BR1  UNL     1      22.335   5.662  46.881  1.00  0.00    -0.050 Br
HETATM   13  C11 UNL     1      22.799   3.950  49.049  1.00  0.00     0.110 A 
HETATM   14  N2  UNL     1      22.544   3.333  50.311  1.00  0.00    -0.333 N 
HETATM   15  C12 UNL     1      23.668   2.441  50.423  1.00  0.00     0.247 C 
HETATM   16  N3  UNL     1      24.908   3.025  50.908  1.00  0.00    -0.256 NA
HETATM   17  C13 UNL     1      25.044   2.000  51.650  1.00  0.00     0.094 C 
HETATM   18  C14 UNL     1      23.786   1.721  51.684  1.00  0.00     0.029 C 
HETATM   19  C15 UNL     1      22.909   1.000  52.596  1.00  0.00     0.002 A 
HETATM   20  C16 UNL     1      23.466   0.048  53.323  1.00  0.00     0.058 A 
HETATM   21  H6  UNL     1      20.702   1.839  50.428  1.00  0.00     0.156 HD
ENDROOT
BRANCH  20  22
HETATM   22  C17 UNL     1      24.860  -0.373  53.323  1.00  0.00     0.177 C 
HETATM   23  O1  UNL     1      25.716  -0.116  54.210  1.00  0.00    -0.646 OA
BRANCH  22  24
HETATM   24  O2  UNL     1      25.863  -1.037  52.701  1.00  0.00    -0.773 OA
HETATM   25  H14 UNL     1      26.113  -0.883  51.735  1.00  0.00     0.167 HD
ENDBRANCH  22  24
ENDBRANCH  20  22
TORSDOF 2
ENDMDL
MODEL 8
REMARK VINA RESULT:      -7.7      2.607      3.556
REMARK  2 active torsions:
REMARK  status: ('A' for Active; 'I' for Inactive)
REMARK    1  A    between atoms: C16_20  and  C17_21 
REMARK    2  A    between atoms: C17_21  and  O2_23 
ROOT
HETATM    1  C1  UNL     1      24.284  -0.858  54.847  1.00  0.00     0.024 C 
HETATM    2  C2  UNL     1      23.811  -0.221  53.791  1.00  0.00    -0.027 A 
HETATM    3  C3  UNL     1      22.556  -0.490  53.082  1.00  0.00     0.021 A 
HETATM    4  C4  UNL     1      22.375   0.331  52.062  1.00  0.00    -0.028 A 
HETATM    5  C5  UNL     1      21.157   0.207  51.227  1.00  0.00     0.156 C 
HETATM    6  N1  UNL     1      21.280   0.777  49.938  1.00  0.00    -0.390 N 
HETATM    7  C6  UNL     1      21.155   2.180  49.801  1.00  0.00     0.119 A 
HETATM    8  C7  UNL     1      20.694   2.946  50.992  1.00  0.00     0.068 C 
HETATM    9  C8  UNL     1      20.083   2.400  48.764  1.00  0.00     0.027 A 
HETATM   10  C9  UNL     1      20.182   2.963  47.571  1.00  0.00     0.021 A 
HETATM   11  C10 UNL     1      21.516   3.429  47.223  1.00  0.00     0.026 A 
HETATM   12 BR1  UNL     1      21.731   4.251  45.513  1.00  0.00    -0.050 Br
HETATM   13  C11 UNL     1      22.554   3.309  48.020  1.00  0.00     0.110 A 
HETATM   14  N2  UNL     1      22.412   2.695  49.302  1.00  0.00    -0.333 N 
HETATM   15  C12 UNL     1      23.758   2.776  49.805  1.00  0.00     0.247 C 
HETATM   16  N3  UNL     1      24.147   4.042  50.403  1.00  0.00    -0.256 NA
HETATM   17  C13 UNL     1      24.691   3.377  51.342  1.00  0.00     0.094 C 
HETATM   18  C14 UNL     1      23.952   2.333  51.179  1.00  0.00     0.029 C 
HETATM   19  C15 UNL     1      23.525   1.224  52.021  1.00  0.00     0.002 A 
HETATM   20  C16 UNL     1      24.330   0.893  53.015  1.00  0.00     0.058 A 
HETATM   21  H6  UNL     1      22.000   0.358  49.338  1.00  0.00     0.156 HD
ENDROOT
BRANCH  20  22
HETATM   22  C17 UNL     1      25.602   1.503  53.372  1.00  0.00     0.177 C 
HETATM   23  O1  UNL     1      26.743   1.123  52.996  1.00  0.00    -0.646 OA
BRANCH  22  24
HETATM   24  O2  UNL     1      26.268   2.472  54.045  1.00  0.00    -0.773 OA
HETATM   25  H14 UNL     1      26.990   3.040  53.627  1.00  0.00     0.167 HD
ENDBRANCH  22  24
ENDBRANCH  20  22
TORSDOF 2
ENDMDL
MODEL 9
REMARK VINA RESULT:      -7.5      3.494      5.044
REMARK  2 active torsions:
REMARK  status: ('A' for Active; 'I' for Inactive)
REMARK    1  A    between atoms: C16_20  and  C17_21 
REMARK    2  A    between atoms: C17_21  and  O2_23 
ROOT
HETATM    1  C1  UNL     1      25.016  -0.488  54.169  1.00  0.00     0.024 C 
HETATM    2  C2  UNL     1      24.165   0.097  53.346  1.00  0.00    -0.027 A 
HETATM    3  C3  UNL     1      24.481   1.023  52.254  1.00  0.00     0.021 A 
HETATM    4  C4  UNL     1      23.397   1.431  51.619  1.00  0.00    -0.028 A 
HETATM    5  C5  UNL     1      23.523   2.374  50.482  1.00  0.00     0.156 C 
HETATM    6  N1  UNL     1      22.340   3.093  50.193  1.00  0.00    -0.390 N 
HETATM    7  C6  UNL     1      21.314   2.448  49.462  1.00  0.00     0.119 A 
HETATM    8  C7  UNL     1      21.631   1.123  48.863  1.00  0.00     0.068 C 
HETATM    9  C8  UNL     1      21.021   3.344  48.285  1.00  0.00     0.027 A 
HETATM   10  C9  UNL     1      19.906   3.993  47.990  1.00  0.00     0.021 A 
HETATM   11  C10 UNL     1      18.821   3.810  48.942  1.00  0.00     0.026 A 
HETATM   12 BR1  UNL     1      17.182   4.719  48.577  1.00  0.00    -0.050 Br
HETATM   13  C11 UNL     1      18.923   3.061  50.017  1.00  0.00     0.110 A 
HETATM   14  N2  UNL     1      20.141   2.374  50.307  1.00  0.00    -0.333 N 
HETATM   15  C12 UNL     1      19.804   1.707  51.536  1.00  0.00     0.247 C 
HETATM   16  N3  UNL     1      19.076   0.455  51.412  1.00  0.00    -0.256 NA
HETATM   17  C13 UNL     1      19.852  -0.030  52.296  1.00  0.00     0.094 C 
HETATM   18  C14 UNL     1      20.813   0.798  52.064  1.00  0.00     0.029 C 
HETATM   19  C15 UNL     1      22.256   0.790  52.258  1.00  0.00     0.002 A 
HETATM   20  C16 UNL     1      22.716   0.034  53.239  1.00  0.00     0.058 A 
HETATM   21  H6  UNL     1      22.000   3.703  50.947  1.00  0.00     0.156 HD
ENDROOT
BRANCH  20  22
HETATM   22  C17 UNL     1      21.950  -0.796  54.158  1.00  0.00     0.177 C 
HETATM   23  O1  UNL     1      21.865  -2.053  54.133  1.00  0.00    -0.646 OA
BRANCH  22  24
HETATM   24  O2  UNL     1      21.130  -0.871  55.234  1.00  0.00    -0.773 OA
HETATM   25  H14 UNL     1      20.790  -1.744  55.610  1.00  0.00     0.167 HD
ENDBRANCH  22  24
ENDBRANCH  20  22
TORSDOF 2
ENDMDL
