MODEL 1
REMARK VINA RESULT:      -7.9      0.000      0.000
REMARK  3 active torsions:
REMARK  status: ('A' for Active; 'I' for Inactive)
REMARK    1  A    between atoms: N1_2  and  N2_3 
REMARK    2  A    between atoms: N2_3  and  C3_5 
REMARK    3  A    between atoms: C3_5  and  C4_6 
ROOT
HETATM    1  C4  UNL     1      25.814   0.137  54.319  1.00  0.00     0.074 A 
HETATM    2  N3  UNL     1      25.461   0.940  53.358  1.00  0.00    -0.173 NA
HETATM    3  N4  UNL     1      24.209   0.914  52.775  1.00  0.00    -0.241 N 
HETATM    4  C5  UNL     1      24.112   1.910  51.732  1.00  0.00     0.232 C 
HETATM    5  S1  UNL     1      22.972   3.247  52.082  1.00  0.00    -0.106 SA
HETATM    6  C6  UNL     1      21.291   2.601  51.920  1.00  0.00     0.031 A 
HETATM    7  C7  UNL     1      20.603   3.787  51.684  1.00  0.00     0.023 A 
HETATM    8  C8  UNL     1      19.224   3.659  51.517  1.00  0.00     0.034 A 
HETATM    9  C9  UNL     1      18.539   2.461  51.574  1.00  0.00     0.069 A 
HETATM   10  N5  UNL     1      17.214   2.384  51.421  1.00  0.00    -0.260 NA
HETATM   11  C10 UNL     1      16.618   1.158  51.509  1.00  0.00     0.117 A 
HETATM   12  C11 UNL     1      17.359  -0.005  51.753  1.00  0.00     0.020 A 
HETATM   13  C12 UNL     1      18.727   0.088  51.908  1.00  0.00     0.017 A 
HETATM   14  C13 UNL     1      19.293   1.335  51.812  1.00  0.00     0.022 A 
HETATM   15  C14 UNL     1      20.653   1.355  51.987  1.00  0.00     0.079 A 
HETATM   16  N6  UNL     1      21.128   0.005  52.172  1.00  0.00    -0.274 N 
HETATM   17  N7  UNL     1      22.076  -0.482  53.116  1.00  0.00    -0.155 NA
HETATM   18  C15 UNL     1      23.300  -0.057  53.291  1.00  0.00     0.166 A 
HETATM   19  C16 UNL     1      23.675  -0.976  54.377  1.00  0.00     0.056 A 
HETATM   20  C17 UNL     1      24.900  -0.878  54.876  1.00  0.00     0.034 A 
HETATM   21  H15 UNL     1      20.599  -0.535  51.415  1.00  0.00     0.189 HD
ENDROOT
BRANCH   1  22
HETATM   22  C3  UNL     1      27.170   0.220  54.895  1.00  0.00     0.205 C 
BRANCH  22  23
HETATM   23  N2  UNL     1      28.219  -0.280  54.063  1.00  0.00    -0.305 N 
HETATM   24  C2  UNL     1      29.394   0.584  53.905  1.00  0.00     0.173 C 
BRANCH  23  25
HETATM   25  N1  UNL     1      28.331  -1.486  53.349  1.00  0.00    -0.201 NA
HETATM   26  C1  UNL     1      29.425  -2.164  53.308  1.00  0.00     0.173 C 
ENDBRANCH  23  25
ENDBRANCH  22  23
ENDBRANCH   1  22
TORSDOF 3
ENDMDL
MODEL 2
REMARK VINA RESULT:      -7.8      6.119      8.541
REMARK  3 active torsions:
REMARK  status: ('A' for Active; 'I' for Inactive)
REMARK    1  A    between atoms: N1_2  and  N2_3 
REMARK    2  A    between atoms: N2_3  and  C3_5 
REMARK    3  A    between atoms: C3_5  and  C4_6 
ROOT
HETATM    1  C4  UNL     1      27.086   7.531  47.728  1.00  0.00     0.074 A 
HETATM    2  N3  UNL     1      25.913   7.081  48.067  1.00  0.00    -0.173 NA
HETATM    3  N4  UNL     1      25.718   5.834  48.629  1.00  0.00    -0.241 N 
HETATM    4  C5  UNL     1      24.314   5.607  48.889  1.00  0.00     0.232 C 
HETATM    5  S1  UNL     1      23.885   5.504  50.624  1.00  0.00    -0.106 SA
HETATM    6  C6  UNL     1      24.478   3.916  51.251  1.00  0.00     0.031 A 
HETATM    7  C7  UNL     1      23.642   3.767  52.353  1.00  0.00     0.023 A 
HETATM    8  C8  UNL     1      23.840   2.609  53.106  1.00  0.00     0.034 A 
HETATM    9  C9  UNL     1      24.789   1.646  52.823  1.00  0.00     0.069 A 
HETATM   10  N5  UNL     1      24.954   0.558  53.579  1.00  0.00    -0.260 NA
HETATM   11  C10 UNL     1      25.929  -0.334  53.232  1.00  0.00     0.117 A 
HETATM   12  C11 UNL     1      26.747  -0.133  52.114  1.00  0.00     0.020 A 
HETATM   13  C12 UNL     1      26.566   0.995  51.340  1.00  0.00     0.017 A 
HETATM   14  C13 UNL     1      25.576   1.870  51.717  1.00  0.00     0.022 A 
HETATM   15  C14 UNL     1      25.458   2.973  50.910  1.00  0.00     0.079 A 
HETATM   16  N6  UNL     1      26.402   2.870  49.825  1.00  0.00    -0.274 N 
HETATM   17  N7  UNL     1      27.252   3.878  49.287  1.00  0.00    -0.155 NA
HETATM   18  C15 UNL     1      26.891   5.047  48.826  1.00  0.00     0.166 A 
HETATM   19  C16 UNL     1      28.228   5.534  48.451  1.00  0.00     0.056 A 
HETATM   20  C17 UNL     1      28.319   6.744  47.917  1.00  0.00     0.034 A 
HETATM   21  H15 UNL     1      26.295   1.852  49.516  1.00  0.00     0.189 HD
ENDROOT
BRANCH   1  22
HETATM   22  C3  UNL     1      27.221   8.873  47.130  1.00  0.00     0.205 C 
BRANCH  22  23
HETATM   23  N2  UNL     1      28.192   9.722  47.746  1.00  0.00    -0.305 N 
HETATM   24  C2  UNL     1      27.842  10.264  49.064  1.00  0.00     0.173 C 
BRANCH  23  25
HETATM   25  N1  UNL     1      29.458  10.143  47.304  1.00  0.00    -0.201 NA
HETATM   26  C1  UNL     1      30.545   9.817  47.914  1.00  0.00     0.173 C 
ENDBRANCH  23  25
ENDBRANCH  22  23
ENDBRANCH   1  22
TORSDOF 3
ENDMDL
MODEL 3
REMARK VINA RESULT:      -7.7      1.693      2.871
REMARK  3 active torsions:
REMARK  status: ('A' for Active; 'I' for Inactive)
REMARK    1  A    between atoms: N1_2  and  N2_3 
REMARK    2  A    between atoms: N2_3  and  C3_5 
REMARK    3  A    between atoms: C3_5  and  C4_6 
ROOT
HETATM    1  C4  UNL     1      26.379  -0.421  52.988  1.00  0.00     0.074 A 
HETATM    2  N3  UNL     1      25.327  -0.740  53.683  1.00  0.00    -0.173 NA
HETATM    3  N4  UNL     1      24.127  -0.061  53.589  1.00  0.00    -0.241 N 
HETATM    4  C5  UNL     1      23.147  -0.634  54.485  1.00  0.00     0.232 C 
HETATM    5  S1  UNL     1      21.768  -1.433  53.669  1.00  0.00    -0.106 SA
HETATM    6  C6  UNL     1      20.704  -0.142  52.983  1.00  0.00     0.031 A 
HETATM    7  C7  UNL     1      19.506  -0.845  52.893  1.00  0.00     0.023 A 
HETATM    8  C8  UNL     1      18.428  -0.130  52.372  1.00  0.00     0.034 A 
HETATM    9  C9  UNL     1      18.491   1.186  51.957  1.00  0.00     0.069 A 
HETATM   10  N5  UNL     1      17.436   1.830  51.451  1.00  0.00    -0.260 NA
HETATM   11  C10 UNL     1      17.595   3.127  51.051  1.00  0.00     0.117 A 
HETATM   12  C11 UNL     1      18.825   3.786  51.161  1.00  0.00     0.020 A 
HETATM   13  C12 UNL     1      19.907   3.110  51.686  1.00  0.00     0.017 A 
HETATM   14  C13 UNL     1      19.712   1.808  52.079  1.00  0.00     0.022 A 
HETATM   15  C14 UNL     1      20.831   1.194  52.581  1.00  0.00     0.079 A 
HETATM   16  N6  UNL     1      21.920   2.140  52.608  1.00  0.00    -0.274 N 
HETATM   17  N7  UNL     1      23.277   1.945  52.224  1.00  0.00    -0.155 NA
HETATM   18  C15 UNL     1      24.096   1.031  52.672  1.00  0.00     0.166 A 
HETATM   19  C16 UNL     1      25.273   1.411  51.874  1.00  0.00     0.056 A 
HETATM   20  C17 UNL     1      26.383   0.702  52.030  1.00  0.00     0.034 A 
HETATM   21  H15 UNL     1      21.456   3.021  53.001  1.00  0.00     0.189 HD
ENDROOT
BRANCH   1  22
HETATM   22  C3  UNL     1      27.629  -1.189  53.138  1.00  0.00     0.205 C 
BRANCH  22  23
HETATM   23  N2  UNL     1      28.691  -0.505  53.807  1.00  0.00    -0.305 N 
HETATM   24  C2  UNL     1      30.055  -0.917  53.458  1.00  0.00     0.173 C 
BRANCH  23  25
HETATM   25  N1  UNL     1      28.663   0.522  54.767  1.00  0.00    -0.201 NA
HETATM   26  C1  UNL     1      29.252   1.653  54.585  1.00  0.00     0.173 C 
ENDBRANCH  23  25
ENDBRANCH  22  23
ENDBRANCH   1  22
TORSDOF 3
ENDMDL
MODEL 4
REMARK VINA RESULT:      -7.7      2.154      8.456
REMARK  3 active torsions:
REMARK  status: ('A' for Active; 'I' for Inactive)
REMARK    1  A    between atoms: N1_2  and  N2_3 
REMARK    2  A    between atoms: N2_3  and  C3_5 
REMARK    3  A    between atoms: C3_5  and  C4_6 
ROOT
HETATM    1  C4  UNL     1      20.976   4.763  50.641  1.00  0.00     0.074 A 
HETATM    2  N3  UNL     1      21.214   3.485  50.596  1.00  0.00    -0.173 NA
HETATM    3  N4  UNL     1      22.435   2.933  50.934  1.00  0.00    -0.241 N 
HETATM    4  C5  UNL     1      22.406   1.496  50.777  1.00  0.00     0.232 C 
HETATM    5  S1  UNL     1      22.541   0.577  52.308  1.00  0.00    -0.106 SA
HETATM    6  C6  UNL     1      24.252   0.695  52.878  1.00  0.00     0.031 A 
HETATM    7  C7  UNL     1      24.312  -0.434  53.689  1.00  0.00     0.023 A 
HETATM    8  C8  UNL     1      25.534  -0.654  54.325  1.00  0.00     0.034 A 
HETATM    9  C9  UNL     1      26.640   0.163  54.195  1.00  0.00     0.069 A 
HETATM   10  N5  UNL     1      27.788  -0.078  54.833  1.00  0.00    -0.260 NA
HETATM   11  C10 UNL     1      28.826   0.794  54.658  1.00  0.00     0.117 A 
HETATM   12  C11 UNL     1      28.710   1.919  53.833  1.00  0.00     0.020 A 
HETATM   13  C12 UNL     1      27.519   2.156  53.178  1.00  0.00     0.017 A 
HETATM   14  C13 UNL     1      26.498   1.259  53.376  1.00  0.00     0.022 A 
HETATM   15  C14 UNL     1      25.341   1.561  52.705  1.00  0.00     0.079 A 
HETATM   16  N6  UNL     1      25.550   2.746  51.909  1.00  0.00    -0.274 N 
HETATM   17  N7  UNL     1      24.690   3.869  51.743  1.00  0.00    -0.155 NA
HETATM   18  C15 UNL     1      23.445   3.854  51.344  1.00  0.00     0.166 A 
HETATM   19  C16 UNL     1      23.200   5.303  51.403  1.00  0.00     0.056 A 
HETATM   20  C17 UNL     1      21.996   5.743  51.060  1.00  0.00     0.034 A 
HETATM   21  H15 UNL     1      26.505   2.565  51.464  1.00  0.00     0.189 HD
ENDROOT
BRANCH   1  22
HETATM   22  C3  UNL     1      19.648   5.284  50.266  1.00  0.00     0.205 C 
BRANCH  22  23
HETATM   23  N2  UNL     1      18.559   4.378  50.458  1.00  0.00    -0.305 N 
HETATM   24  C2  UNL     1      17.852   3.942  49.249  1.00  0.00     0.173 C 
BRANCH  23  25
HETATM   25  N1  UNL     1      18.028   3.814  51.631  1.00  0.00    -0.201 NA
HETATM   26  C1  UNL     1      17.346   2.721  51.623  1.00  0.00     0.173 C 
ENDBRANCH  23  25
ENDBRANCH  22  23
ENDBRANCH   1  22
TORSDOF 3
ENDMDL
MODEL 5
REMARK VINA RESULT:      -7.6      2.008      8.543
REMARK  3 active torsions:
REMARK  status: ('A' for Active; 'I' for Inactive)
REMARK    1  A    between atoms: N1_2  and  N2_3 
REMARK    2  A    between atoms: N2_3  and  C3_5 
REMARK    3  A    between atoms: C3_5  and  C4_6 
ROOT
HETATM    1  C4  UNL     1      18.485   3.541  51.008  1.00  0.00     0.074 A 
HETATM    2  N3  UNL     1      18.580   2.303  51.398  1.00  0.00    -0.173 NA
HETATM    3  N4  UNL     1      19.789   1.653  51.554  1.00  0.00    -0.241 N 
HETATM    4  C5  UNL     1      19.581   0.289  51.986  1.00  0.00     0.232 C 
HETATM    5  S1  UNL     1      20.160  -0.064  53.643  1.00  0.00    -0.106 SA
HETATM    6  C6  UNL     1      21.966  -0.126  53.601  1.00  0.00     0.031 A 
HETATM    7  C7  UNL     1      22.204  -0.900  54.733  1.00  0.00     0.023 A 
HETATM    8  C8  UNL     1      23.547  -1.145  55.021  1.00  0.00     0.034 A 
HETATM    9  C9  UNL     1      24.606  -0.675  54.269  1.00  0.00     0.069 A 
HETATM   10  N5  UNL     1      25.879  -0.922  54.589  1.00  0.00    -0.260 NA
HETATM   11  C10 UNL     1      26.863  -0.403  53.796  1.00  0.00     0.117 A 
HETATM   12  C11 UNL     1      26.566   0.374  52.670  1.00  0.00     0.020 A 
HETATM   13  C12 UNL     1      25.247   0.623  52.349  1.00  0.00     0.017 A 
HETATM   14  C13 UNL     1      24.284   0.084  53.167  1.00  0.00     0.022 A 
HETATM   15  C14 UNL     1      22.997   0.379  52.797  1.00  0.00     0.079 A 
HETATM   16  N6  UNL     1      23.019   1.152  51.579  1.00  0.00    -0.274 N 
HETATM   17  N7  UNL     1      22.257   2.307  51.245  1.00  0.00    -0.155 NA
HETATM   18  C15 UNL     1      20.955   2.422  51.263  1.00  0.00     0.166 A 
HETATM   19  C16 UNL     1      20.874   3.823  50.820  1.00  0.00     0.056 A 
HETATM   20  C17 UNL     1      19.669   4.365  50.698  1.00  0.00     0.034 A 
HETATM   21  H15 UNL     1      23.741   0.632  50.984  1.00  0.00     0.189 HD
ENDROOT
BRANCH   1  22
HETATM   22  C3  UNL     1      17.160   4.173  50.861  1.00  0.00     0.205 C 
BRANCH  22  23
HETATM   23  N2  UNL     1      16.180   3.767  51.818  1.00  0.00    -0.305 N 
HETATM   24  C2  UNL     1      15.388   2.580  51.477  1.00  0.00     0.173 C 
BRANCH  23  25
HETATM   25  N1  UNL     1      15.827   4.316  53.063  1.00  0.00    -0.201 NA
HETATM   26  C1  UNL     1      14.615   4.313  53.500  1.00  0.00     0.173 C 
ENDBRANCH  23  25
ENDBRANCH  22  23
ENDBRANCH   1  22
TORSDOF 3
ENDMDL
MODEL 6
REMARK VINA RESULT:      -7.6      1.745      8.306
REMARK  3 active torsions:
REMARK  status: ('A' for Active; 'I' for Inactive)
REMARK    1  A    between atoms: N1_2  and  N2_3 
REMARK    2  A    between atoms: N2_3  and  C3_5 
REMARK    3  A    between atoms: C3_5  and  C4_6 
ROOT
HETATM    1  C4  UNL     1      17.876   1.674  51.610  1.00  0.00     0.074 A 
HETATM    2  N3  UNL     1      18.775   2.597  51.789  1.00  0.00    -0.173 NA
HETATM    3  N4  UNL     1      20.060   2.326  52.217  1.00  0.00    -0.241 N 
HETATM    4  C5  UNL     1      20.826   3.547  52.332  1.00  0.00     0.232 C 
HETATM    5  S1  UNL     1      22.173   3.694  51.161  1.00  0.00    -0.106 SA
HETATM    6  C6  UNL     1      23.487   2.566  51.680  1.00  0.00     0.031 A 
HETATM    7  C7  UNL     1      24.576   3.166  51.054  1.00  0.00     0.023 A 
HETATM    8  C8  UNL     1      25.802   2.526  51.239  1.00  0.00     0.034 A 
HETATM    9  C9  UNL     1      25.978   1.374  51.979  1.00  0.00     0.069 A 
HETATM   10  N5  UNL     1      27.169   0.785  52.119  1.00  0.00    -0.260 NA
HETATM   11  C10 UNL     1      27.246  -0.362  52.857  1.00  0.00     0.117 A 
HETATM   12  C11 UNL     1      26.117  -0.926  53.461  1.00  0.00     0.020 A 
HETATM   13  C12 UNL     1      24.892  -0.308  53.310  1.00  0.00     0.017 A 
HETATM   14  C13 UNL     1      24.851   0.844  52.564  1.00  0.00     0.022 A 
HETATM   15  C14 UNL     1      23.602   1.398  52.445  1.00  0.00     0.079 A 
HETATM   16  N6  UNL     1      22.662   0.617  53.213  1.00  0.00    -0.274 N 
HETATM   17  N7  UNL     1      21.351   0.194  52.850  1.00  0.00    -0.155 NA
HETATM   18  C15 UNL     1      20.361   0.953  52.460  1.00  0.00     0.166 A 
HETATM   19  C16 UNL     1      19.362  -0.110  52.266  1.00  0.00     0.056 A 
HETATM   20  C17 UNL     1      18.153   0.244  51.852  1.00  0.00     0.034 A 
HETATM   21  H15 UNL     1      23.190   0.446  54.128  1.00  0.00     0.189 HD
ENDROOT
BRANCH   1  22
HETATM   22  C3  UNL     1      16.521   2.035  51.151  1.00  0.00     0.205 C 
BRANCH  22  23
HETATM   23  N2  UNL     1      15.680   2.634  52.139  1.00  0.00    -0.305 N 
HETATM   24  C2  UNL     1      14.598   1.797  52.669  1.00  0.00     0.173 C 
BRANCH  23  25
HETATM   25  N1  UNL     1      15.704   3.918  52.711  1.00  0.00    -0.201 NA
HETATM   26  C1  UNL     1      14.750   4.357  53.458  1.00  0.00     0.173 C 
ENDBRANCH  23  25
ENDBRANCH  22  23
ENDBRANCH   1  22
TORSDOF 3
ENDMDL
MODEL 7
REMARK VINA RESULT:      -7.5      3.398      5.314
REMARK  3 active torsions:
REMARK  status: ('A' for Active; 'I' for Inactive)
REMARK    1  A    between atoms: N1_2  and  N2_3 
REMARK    2  A    between atoms: N2_3  and  C3_5 
REMARK    3  A    between atoms: C3_5  and  C4_6 
ROOT
HETATM    1  C4  UNL     1      25.459   3.555  49.867  1.00  0.00     0.074 A 
HETATM    2  N3  UNL     1      25.345   3.210  51.116  1.00  0.00    -0.173 NA
HETATM    3  N4  UNL     1      24.175   2.714  51.659  1.00  0.00    -0.241 N 
HETATM    4  C5  UNL     1      24.346   2.429  53.066  1.00  0.00     0.232 C 
HETATM    5  S1  UNL     1      24.262   0.692  53.489  1.00  0.00    -0.106 SA
HETATM    6  C6  UNL     1      22.534   0.174  53.374  1.00  0.00     0.031 A 
HETATM    7  C7  UNL     1      22.564  -0.940  54.207  1.00  0.00     0.023 A 
HETATM    8  C8  UNL     1      21.353  -1.620  54.345  1.00  0.00     0.034 A 
HETATM    9  C9  UNL     1      20.177  -1.255  53.719  1.00  0.00     0.069 A 
HETATM   10  N5  UNL     1      19.042  -1.943  53.868  1.00  0.00    -0.260 NA
HETATM   11  C10 UNL     1      17.930  -1.518  53.197  1.00  0.00     0.117 A 
HETATM   12  C11 UNL     1      17.957  -0.391  52.367  1.00  0.00     0.020 A 
HETATM   13  C12 UNL     1      19.136   0.311  52.222  1.00  0.00     0.017 A 
HETATM   14  C13 UNL     1      20.233  -0.143  52.912  1.00  0.00     0.022 A 
HETATM   15  C14 UNL     1      21.372   0.595  52.713  1.00  0.00     0.079 A 
HETATM   16  N6  UNL     1      21.070   1.711  51.850  1.00  0.00    -0.274 N 
HETATM   17  N7  UNL     1      21.822   2.213  50.750  1.00  0.00    -0.155 NA
HETATM   18  C15 UNL     1      23.072   2.596  50.761  1.00  0.00     0.166 A 
HETATM   19  C16 UNL     1      23.175   2.979  49.345  1.00  0.00     0.056 A 
HETATM   20  C17 UNL     1      24.339   3.446  48.912  1.00  0.00     0.034 A 
HETATM   21  H15 UNL     1      20.147   2.075  52.251  1.00  0.00     0.189 HD
ENDROOT
BRANCH   1  22
HETATM   22  C3  UNL     1      26.739   4.078  49.355  1.00  0.00     0.205 C 
BRANCH  22  23
HETATM   23  N2  UNL     1      26.775   5.487  49.121  1.00  0.00    -0.305 N 
HETATM   24  C2  UNL     1      27.892   5.986  48.312  1.00  0.00     0.173 C 
BRANCH  23  25
HETATM   25  N1  UNL     1      25.907   6.511  49.540  1.00  0.00    -0.201 NA
HETATM   26  C1  UNL     1      26.325   7.697  49.820  1.00  0.00     0.173 C 
ENDBRANCH  23  25
ENDBRANCH  22  23
ENDBRANCH   1  22
TORSDOF 3
ENDMDL
MODEL 8
REMARK VINA RESULT:      -7.4      2.842      8.643
REMARK  3 active torsions:
REMARK  status: ('A' for Active; 'I' for Inactive)
REMARK    1  A    between atoms: N1_2  and  N2_3 
REMARK    2  A    between atoms: N2_3  and  C3_5 
REMARK    3  A    between atoms: C3_5  and  C4_6 
ROOT
HETATM    1  C4  UNL     1      20.933   4.695  50.661  1.00  0.00     0.074 A 
HETATM    2  N3  UNL     1      21.172   3.416  50.635  1.00  0.00    -0.173 NA
HETATM    3  N4  UNL     1      22.399   2.871  50.963  1.00  0.00    -0.241 N 
HETATM    4  C5  UNL     1      22.368   1.432  50.833  1.00  0.00     0.232 C 
HETATM    5  S1  UNL     1      22.528   0.540  52.378  1.00  0.00    -0.106 SA
HETATM    6  C6  UNL     1      24.248   0.670  52.919  1.00  0.00     0.031 A 
HETATM    7  C7  UNL     1      24.321  -0.445  53.748  1.00  0.00     0.023 A 
HETATM    8  C8  UNL     1      25.553  -0.653  54.369  1.00  0.00     0.034 A 
HETATM    9  C9  UNL     1      26.655   0.162  54.208  1.00  0.00     0.069 A 
HETATM   10  N5  UNL     1      27.814  -0.066  54.832  1.00  0.00    -0.260 NA
HETATM   11  C10 UNL     1      28.848   0.803  54.625  1.00  0.00     0.117 A 
HETATM   12  C11 UNL     1      28.719   1.913  53.783  1.00  0.00     0.020 A 
HETATM   13  C12 UNL     1      27.517   2.138  53.143  1.00  0.00     0.017 A 
HETATM   14  C13 UNL     1      26.500   1.244  53.372  1.00  0.00     0.022 A 
HETATM   15  C14 UNL     1      25.332   1.533  52.713  1.00  0.00     0.079 A 
HETATM   16  N6  UNL     1      25.528   2.704  51.893  1.00  0.00    -0.274 N 
HETATM   17  N7  UNL     1      24.664   3.823  51.721  1.00  0.00    -0.155 NA
HETATM   18  C15 UNL     1      23.414   3.800  51.342  1.00  0.00     0.166 A 
HETATM   19  C16 UNL     1      23.168   5.250  51.379  1.00  0.00     0.056 A 
HETATM   20  C17 UNL     1      21.959   5.682  51.047  1.00  0.00     0.034 A 
HETATM   21  H15 UNL     1      26.477   2.515  51.437  1.00  0.00     0.189 HD
ENDROOT
BRANCH   1  22
HETATM   22  C3  UNL     1      19.599   5.208  50.297  1.00  0.00     0.205 C 
BRANCH  22  23
HETATM   23  N2  UNL     1      19.582   6.179  49.249  1.00  0.00    -0.305 N 
HETATM   24  C2  UNL     1      19.824   5.677  47.892  1.00  0.00     0.173 C 
BRANCH  23  25
HETATM   25  N1  UNL     1      19.370   7.568  49.285  1.00  0.00    -0.201 NA
HETATM   26  C1  UNL     1      20.317   8.416  49.078  1.00  0.00     0.173 C 
ENDBRANCH  23  25
ENDBRANCH  22  23
ENDBRANCH   1  22
TORSDOF 3
ENDMDL
MODEL 9
REMARK VINA RESULT:      -7.4      2.687      9.236
REMARK  3 active torsions:
REMARK  status: ('A' for Active; 'I' for Inactive)
REMARK    1  A    between atoms: N1_2  and  N2_3 
REMARK    2  A    between atoms: N2_3  and  C3_5 
REMARK    3  A    between atoms: C3_5  and  C4_6 
ROOT
HETATM    1  C4  UNL     1      15.883   2.611  51.513  1.00  0.00     0.074 A 
HETATM    2  N3  UNL     1      16.316   1.386  51.577  1.00  0.00    -0.173 NA
HETATM    3  N4  UNL     1      17.659   1.062  51.618  1.00  0.00    -0.241 N 
HETATM    4  C5  UNL     1      17.835  -0.372  51.677  1.00  0.00     0.232 C 
HETATM    5  S1  UNL     1      18.530  -0.974  53.214  1.00  0.00    -0.106 SA
HETATM    6  C6  UNL     1      20.284  -0.540  53.239  1.00  0.00     0.031 A 
HETATM    7  C7  UNL     1      20.750  -1.488  54.146  1.00  0.00     0.023 A 
HETATM    8  C8  UNL     1      22.117  -1.434  54.422  1.00  0.00     0.034 A 
HETATM    9  C9  UNL     1      22.991  -0.522  53.864  1.00  0.00     0.069 A 
HETATM   10  N5  UNL     1      24.292  -0.497  54.167  1.00  0.00    -0.260 NA
HETATM   11  C10 UNL     1      25.079   0.452  53.579  1.00  0.00     0.117 A 
HETATM   12  C11 UNL     1      24.557   1.385  52.676  1.00  0.00     0.020 A 
HETATM   13  C12 UNL     1      23.212   1.349  52.370  1.00  0.00     0.017 A 
HETATM   14  C13 UNL     1      22.450   0.381  52.979  1.00  0.00     0.022 A 
HETATM   15  C14 UNL     1      21.122   0.409  52.638  1.00  0.00     0.079 A 
HETATM   16  N6  UNL     1      20.904   1.447  51.660  1.00  0.00    -0.274 N 
HETATM   17  N7  UNL     1      19.852   2.405  51.598  1.00  0.00    -0.155 NA
HETATM   18  C15 UNL     1      18.568   2.161  51.585  1.00  0.00     0.166 A 
HETATM   19  C16 UNL     1      18.103   3.555  51.512  1.00  0.00     0.056 A 
HETATM   20  C17 UNL     1      16.794   3.770  51.477  1.00  0.00     0.034 A 
HETATM   21  H15 UNL     1      21.723   1.309  50.986  1.00  0.00     0.189 HD
ENDROOT
BRANCH   1  22
HETATM   22  C3  UNL     1      14.434   2.884  51.472  1.00  0.00     0.205 C 
BRANCH  22  23
HETATM   23  N2  UNL     1      13.807   3.052  52.745  1.00  0.00    -0.305 N 
HETATM   24  C2  UNL     1      13.242   1.845  53.359  1.00  0.00     0.173 C 
BRANCH  23  25
HETATM   25  N1  UNL     1      13.629   4.199  53.539  1.00  0.00    -0.201 NA
HETATM   26  C1  UNL     1      12.533   4.435  54.172  1.00  0.00     0.173 C 
ENDBRANCH  23  25
ENDBRANCH  22  23
ENDBRANCH   1  22
TORSDOF 3
ENDMDL
