MODEL 1
REMARK VINA RESULT:      -9.6      0.000      0.000
REMARK  3 active torsions:
REMARK  status: ('A' for Active; 'I' for Inactive)
REMARK    1  A    between atoms: N1_4  and  C4_5 
REMARK    2  A    between atoms: C4_5  and  C5_6 
REMARK    3  A    between atoms: C18_23  and  O3_24 
ROOT
HETATM    1  C5  UNL     1      23.927   2.331  52.538  1.00  0.00     0.071 C 
HETATM    2  C6  UNL     1      23.970   3.379  51.682  1.00  0.00    -0.018 C 
HETATM    3  C7  UNL     1      24.187   3.274  50.215  1.00  0.00     0.054 C 
HETATM    4  C8  UNL     1      23.118   2.554  49.477  1.00  0.00     0.065 C 
HETATM    5  C9  UNL     1      22.794   3.337  48.242  1.00  0.00    -0.004 C 
HETATM    6  C10 UNL     1      21.991   2.699  47.435  1.00  0.00    -0.029 C 
HETATM    7  C11 UNL     1      21.027   1.945  47.937  1.00  0.00     0.014 C 
HETATM    8  C12 UNL     1      20.822   2.002  49.396  1.00  0.00     0.029 C 
HETATM    9  C13 UNL     1      21.859   2.307  50.194  1.00  0.00     0.045 C 
HETATM   10  N2  UNL     1      21.234   2.252  51.507  1.00  0.00    -0.236 N 
HETATM   11  C14 UNL     1      21.638   1.151  52.375  1.00  0.00     0.331 C 
HETATM   12  O1  UNL     1      23.009   1.300  52.657  1.00  0.00    -0.332 OA
HETATM   13  O2  UNL     1      20.311   3.123  52.074  1.00  0.00    -0.246 OA
HETATM   14  C15 UNL     1      20.244   4.281  51.257  1.00  0.00     0.472 C 
HETATM   15  N3  UNL     1      21.632   4.760  51.135  1.00  0.00     0.112 N 
HETATM   16  C16 UNL     1      21.603   6.036  50.489  1.00  0.00     0.312 C 
HETATM   17  C17 UNL     1      22.189   4.857  52.449  1.00  0.00     0.311 C 
HETATM   18  C18 UNL     1      23.726   4.717  52.341  1.00  0.00     0.178 C 
ENDROOT
BRANCH   1  19
HETATM   19  C4  UNL     1      24.933   2.099  53.562  1.00  0.00     0.193 C 
BRANCH  19  20
HETATM   20  N1  UNL     1      25.869   1.047  53.330  1.00  0.00    -0.349 N 
HETATM   21  C3  UNL     1      25.589  -0.189  52.834  1.00  0.00     0.099 A 
HETATM   22  C2  UNL     1      26.707  -0.965  52.731  1.00  0.00    -0.034 A 
HETATM   23  C1  UNL     1      26.751  -2.353  52.232  1.00  0.00     0.050 C 
HETATM   24  C24 UNL     1      27.720  -0.153  53.190  1.00  0.00    -0.002 A 
HETATM   25  C19 UNL     1      27.215   1.090  53.561  1.00  0.00     0.045 A 
HETATM   26  C23 UNL     1      29.084  -0.443  53.303  1.00  0.00     0.014 A 
HETATM   27  C20 UNL     1      28.051   2.053  54.046  1.00  0.00     0.030 A 
HETATM   28  C21 UNL     1      29.403   1.784  54.165  1.00  0.00     0.002 A 
HETATM   29  C22 UNL     1      29.935   0.546  53.799  1.00  0.00     0.001 A 
ENDBRANCH  19  20
ENDBRANCH   1  19
BRANCH  18  30
HETATM   30  O3  UNL     1      24.225   4.805  53.612  1.00  0.00    -0.389 OA
HETATM   31  H23 UNL     1      24.466   5.694  53.929  1.00  0.00     0.210 HD
ENDBRANCH  18  30
TORSDOF 3
ENDMDL
MODEL 2
REMARK VINA RESULT:      -9.3      1.714      3.090
REMARK  3 active torsions:
REMARK  status: ('A' for Active; 'I' for Inactive)
REMARK    1  A    between atoms: N1_4  and  C4_5 
REMARK    2  A    between atoms: C4_5  and  C5_6 
REMARK    3  A    between atoms: C18_23  and  O3_24 
ROOT
HETATM    1  C5  UNL     1      24.644   2.978  52.421  1.00  0.00     0.071 C 
HETATM    2  C6  UNL     1      23.461   3.631  52.343  1.00  0.00    -0.018 C 
HETATM    3  C7  UNL     1      23.299   5.109  52.370  1.00  0.00     0.054 C 
HETATM    4  C8  UNL     1      23.912   5.823  51.219  1.00  0.00     0.065 C 
HETATM    5  C9  UNL     1      22.935   6.848  50.731  1.00  0.00    -0.004 C 
HETATM    6  C10 UNL     1      23.446   7.647  49.836  1.00  0.00    -0.029 C 
HETATM    7  C11 UNL     1      24.306   7.170  48.952  1.00  0.00     0.014 C 
HETATM    8  C12 UNL     1      24.513   5.711  48.937  1.00  0.00     0.029 C 
HETATM    9  C13 UNL     1      24.320   5.008  50.066  1.00  0.00     0.045 C 
HETATM   10  N2  UNL     1      24.625   3.658  49.617  1.00  0.00    -0.236 N 
HETATM   11  C14 UNL     1      25.848   3.059  50.140  1.00  0.00     0.331 C 
HETATM   12  O1  UNL     1      25.708   2.930  51.534  1.00  0.00    -0.332 OA
HETATM   13  O2  UNL     1      23.897   2.833  48.768  1.00  0.00    -0.246 OA
HETATM   14  C15 UNL     1      22.615   3.416  48.587  1.00  0.00     0.472 C 
HETATM   15  N3  UNL     1      22.079   3.624  49.942  1.00  0.00     0.112 N 
HETATM   16  C16 UNL     1      20.711   4.024  49.819  1.00  0.00     0.312 C 
HETATM   17  C17 UNL     1      22.198   2.395  50.664  1.00  0.00     0.311 C 
HETATM   18  C18 UNL     1      22.268   2.719  52.175  1.00  0.00     0.178 C 
ENDROOT
BRANCH   1  19
HETATM   19  C4  UNL     1      25.021   2.147  53.553  1.00  0.00     0.193 C 
BRANCH  19  20
HETATM   20  N1  UNL     1      25.897   1.050  53.294  1.00  0.00    -0.349 N 
HETATM   21  C3  UNL     1      25.549  -0.153  52.762  1.00  0.00     0.099 A 
HETATM   22  C2  UNL     1      26.623  -0.988  52.640  1.00  0.00    -0.034 A 
HETATM   23  C1  UNL     1      26.590  -2.362  52.102  1.00  0.00     0.050 C 
HETATM   24  C24 UNL     1      27.677  -0.248  53.125  1.00  0.00    -0.002 A 
HETATM   25  C19 UNL     1      27.242   1.011  53.531  1.00  0.00     0.045 A 
HETATM   26  C23 UNL     1      29.023  -0.618  53.234  1.00  0.00     0.014 A 
HETATM   27  C20 UNL     1      28.129   1.911  54.045  1.00  0.00     0.030 A 
HETATM   28  C21 UNL     1      29.462   1.562  54.160  1.00  0.00     0.002 A 
HETATM   29  C22 UNL     1      29.926   0.306  53.761  1.00  0.00     0.001 A 
ENDBRANCH  19  20
ENDBRANCH   1  19
BRANCH  18  30
HETATM   30  O3  UNL     1      22.389   1.526  52.834  1.00  0.00    -0.389 OA
HETATM   31  H23 UNL     1      21.778   0.814  52.571  1.00  0.00     0.210 HD
ENDBRANCH  18  30
TORSDOF 3
ENDMDL
MODEL 3
REMARK VINA RESULT:      -9.2      1.660      2.460
REMARK  3 active torsions:
REMARK  status: ('A' for Active; 'I' for Inactive)
REMARK    1  A    between atoms: N1_4  and  C4_5 
REMARK    2  A    between atoms: C4_5  and  C5_6 
REMARK    3  A    between atoms: C18_23  and  O3_24 
ROOT
HETATM    1  C5  UNL     1      24.729   3.066  51.241  1.00  0.00     0.071 C 
HETATM    2  C6  UNL     1      23.956   2.957  50.136  1.00  0.00    -0.018 C 
HETATM    3  C7  UNL     1      22.926   1.908  49.915  1.00  0.00     0.054 C 
HETATM    4  C8  UNL     1      21.782   1.951  50.863  1.00  0.00     0.065 C 
HETATM    5  C9  UNL     1      20.518   1.775  50.078  1.00  0.00    -0.004 C 
HETATM    6  C10 UNL     1      19.469   1.621  50.837  1.00  0.00    -0.029 C 
HETATM    7  C11 UNL     1      19.381   2.296  51.971  1.00  0.00     0.014 C 
HETATM    8  C12 UNL     1      20.417   3.312  52.229  1.00  0.00     0.029 C 
HETATM    9  C13 UNL     1      21.636   3.162  51.682  1.00  0.00     0.045 C 
HETATM   10  N2  UNL     1      22.319   4.347  52.179  1.00  0.00    -0.236 N 
HETATM   11  C14 UNL     1      23.372   4.125  53.164  1.00  0.00     0.331 C 
HETATM   12  O1  UNL     1      24.393   3.376  52.550  1.00  0.00    -0.332 OA
HETATM   13  O2  UNL     1      22.130   5.678  51.828  1.00  0.00    -0.246 OA
HETATM   14  C15 UNL     1      21.311   5.712  50.669  1.00  0.00     0.472 C 
HETATM   15  N3  UNL     1      21.984   4.848  49.684  1.00  0.00     0.112 N 
HETATM   16  C16 UNL     1      21.311   5.001  48.431  1.00  0.00     0.312 C 
HETATM   17  C17 UNL     1      23.352   5.255  49.592  1.00  0.00     0.311 C 
HETATM   18  C18 UNL     1      24.191   4.046  49.115  1.00  0.00     0.178 C 
ENDROOT
BRANCH   1  19
HETATM   19  C4  UNL     1      26.168   2.855  51.232  1.00  0.00     0.193 C 
BRANCH  19  20
HETATM   20  N1  UNL     1      26.657   1.670  51.857  1.00  0.00    -0.349 N 
HETATM   21  C3  UNL     1      26.226   0.399  51.629  1.00  0.00     0.099 A 
HETATM   22  C2  UNL     1      26.900  -0.514  52.390  1.00  0.00    -0.034 A 
HETATM   23  C1  UNL     1      26.677  -1.973  52.384  1.00  0.00     0.050 C 
HETATM   24  C24 UNL     1      27.787   0.247  53.116  1.00  0.00    -0.002 A 
HETATM   25  C19 UNL     1      27.647   1.595  52.796  1.00  0.00     0.045 A 
HETATM   26  C23 UNL     1      28.729  -0.178  54.060  1.00  0.00     0.014 A 
HETATM   27  C20 UNL     1      28.434   2.530  53.403  1.00  0.00     0.030 A 
HETATM   28  C21 UNL     1      29.370   2.127  54.338  1.00  0.00     0.002 A 
HETATM   29  C22 UNL     1      29.532   0.782  54.678  1.00  0.00     0.001 A 
ENDBRANCH  19  20
ENDBRANCH   1  19
BRANCH  18  30
HETATM   30  O3  UNL     1      25.492   4.466  49.046  1.00  0.00    -0.389 OA
HETATM   31  H23 UNL     1      25.835   4.690  48.162  1.00  0.00     0.210 HD
ENDBRANCH  18  30
TORSDOF 3
ENDMDL
MODEL 4
REMARK VINA RESULT:      -9.2      2.452      4.349
REMARK  3 active torsions:
REMARK  status: ('A' for Active; 'I' for Inactive)
REMARK    1  A    between atoms: N1_4  and  C4_5 
REMARK    2  A    between atoms: C4_5  and  C5_6 
REMARK    3  A    between atoms: C18_23  and  O3_24 
ROOT
HETATM    1  C5  UNL     1      22.610   2.940  50.620  1.00  0.00     0.071 C 
HETATM    2  C6  UNL     1      22.649   4.115  51.291  1.00  0.00    -0.018 C 
HETATM    3  C7  UNL     1      23.885   4.886  51.589  1.00  0.00     0.054 C 
HETATM    4  C8  UNL     1      24.602   5.400  50.394  1.00  0.00     0.065 C 
HETATM    5  C9  UNL     1      24.993   6.822  50.660  1.00  0.00    -0.004 C 
HETATM    6  C10 UNL     1      25.782   7.309  49.742  1.00  0.00    -0.029 C 
HETATM    7  C11 UNL     1      25.602   6.963  48.478  1.00  0.00     0.014 C 
HETATM    8  C12 UNL     1      24.404   6.162  48.166  1.00  0.00     0.029 C 
HETATM    9  C13 UNL     1      23.880   5.367  49.114  1.00  0.00     0.045 C 
HETATM   10  N2  UNL     1      22.753   4.781  48.404  1.00  0.00    -0.236 N 
HETATM   11  C14 UNL     1      22.850   3.361  48.086  1.00  0.00     0.331 C 
HETATM   12  O1  UNL     1      22.898   2.646  49.297  1.00  0.00    -0.332 OA
HETATM   13  O2  UNL     1      21.566   5.382  48.000  1.00  0.00    -0.246 OA
HETATM   14  C15 UNL     1      21.482   6.651  48.630  1.00  0.00     0.472 C 
HETATM   15  N3  UNL     1      21.645   6.390  50.070  1.00  0.00     0.112 N 
HETATM   16  C16 UNL     1      21.371   7.605  50.772  1.00  0.00     0.312 C 
HETATM   17  C17 UNL     1      20.729   5.356  50.444  1.00  0.00     0.311 C 
HETATM   18  C18 UNL     1      21.288   4.635  51.693  1.00  0.00     0.178 C 
ENDROOT
BRANCH   1  19
HETATM   19  C4  UNL     1      22.226   1.682  51.241  1.00  0.00     0.193 C 
BRANCH  19  20
HETATM   20  N1  UNL     1      23.195   1.041  52.070  1.00  0.00    -0.349 N 
HETATM   21  C3  UNL     1      24.547   1.097  51.924  1.00  0.00     0.099 A 
HETATM   22  C2  UNL     1      25.196   0.374  52.884  1.00  0.00    -0.034 A 
HETATM   23  C1  UNL     1      26.658   0.226  53.010  1.00  0.00     0.050 C 
HETATM   24  C24 UNL     1      24.179  -0.146  53.653  1.00  0.00    -0.002 A 
HETATM   25  C19 UNL     1      22.941   0.259  53.161  1.00  0.00     0.045 A 
HETATM   26  C23 UNL     1      24.276  -0.969  54.781  1.00  0.00     0.014 A 
HETATM   27  C20 UNL     1      21.793  -0.144  53.777  1.00  0.00     0.030 A 
HETATM   28  C21 UNL     1      21.869  -0.958  54.894  1.00  0.00     0.002 A 
HETATM   29  C22 UNL     1      23.098  -1.378  55.408  1.00  0.00     0.001 A 
ENDBRANCH  19  20
ENDBRANCH   1  19
BRANCH  18  30
HETATM   30  O3  UNL     1      20.396   3.650  52.018  1.00  0.00    -0.389 OA
HETATM   31  H23 UNL     1      20.768   2.804  52.326  1.00  0.00     0.210 HD
ENDBRANCH  18  30
TORSDOF 3
ENDMDL
MODEL 5
REMARK VINA RESULT:      -8.9      2.238      3.310
REMARK  3 active torsions:
REMARK  status: ('A' for Active; 'I' for Inactive)
REMARK    1  A    between atoms: N1_4  and  C4_5 
REMARK    2  A    between atoms: C4_5  and  C5_6 
REMARK    3  A    between atoms: C18_23  and  O3_24 
ROOT
HETATM    1  C5  UNL     1      25.133   3.659  50.656  1.00  0.00     0.071 C 
HETATM    2  C6  UNL     1      24.901   4.250  49.460  1.00  0.00    -0.018 C 
HETATM    3  C7  UNL     1      23.690   4.037  48.625  1.00  0.00     0.054 C 
HETATM    4  C8  UNL     1      22.419   4.499  49.241  1.00  0.00     0.065 C 
HETATM    5  C9  UNL     1      21.637   5.240  48.200  1.00  0.00    -0.004 C 
HETATM    6  C10 UNL     1      20.428   5.534  48.591  1.00  0.00    -0.029 C 
HETATM    7  C11 UNL     1      20.215   5.870  49.852  1.00  0.00     0.014 C 
HETATM    8  C12 UNL     1      21.401   6.045  50.709  1.00  0.00     0.029 C 
HETATM    9  C13 UNL     1      22.525   5.367  50.423  1.00  0.00     0.045 C 
HETATM   10  N2  UNL     1      23.411   5.820  51.485  1.00  0.00    -0.236 N 
HETATM   11  C14 UNL     1      23.766   4.836  52.501  1.00  0.00     0.331 C 
HETATM   12  O1  UNL     1      24.488   3.804  51.874  1.00  0.00    -0.332 OA
HETATM   13  O2  UNL     1      23.997   7.068  51.662  1.00  0.00    -0.246 OA
HETATM   14  C15 UNL     1      23.814   7.810  50.466  1.00  0.00     0.472 C 
HETATM   15  N3  UNL     1      24.351   6.964  49.388  1.00  0.00     0.112 N 
HETATM   16  C16 UNL     1      24.375   7.741  48.187  1.00  0.00     0.312 C 
HETATM   17  C17 UNL     1      25.667   6.544  49.762  1.00  0.00     0.311 C 
HETATM   18  C18 UNL     1      25.983   5.216  49.035  1.00  0.00     0.178 C 
ENDROOT
BRANCH   1  19
HETATM   19  C4  UNL     1      26.195   2.689  50.872  1.00  0.00     0.193 C 
BRANCH  19  20
HETATM   20  N1  UNL     1      26.023   1.763  51.944  1.00  0.00    -0.349 N 
HETATM   21  C3  UNL     1      24.897   1.053  52.226  1.00  0.00     0.099 A 
HETATM   22  C2  UNL     1      25.057   0.252  53.321  1.00  0.00    -0.034 A 
HETATM   23  C1  UNL     1      24.032  -0.642  53.892  1.00  0.00     0.050 C 
HETATM   24  C24 UNL     1      26.352   0.491  53.721  1.00  0.00    -0.002 A 
HETATM   25  C19 UNL     1      26.958   1.420  52.879  1.00  0.00     0.045 A 
HETATM   26  C23 UNL     1      27.047  -0.070  54.799  1.00  0.00     0.014 A 
HETATM   27  C20 UNL     1      28.250   1.802  53.096  1.00  0.00     0.030 A 
HETATM   28  C21 UNL     1      28.952   1.258  54.157  1.00  0.00     0.002 A 
HETATM   29  C22 UNL     1      28.368   0.324  55.016  1.00  0.00     0.001 A 
ENDBRANCH  19  20
ENDBRANCH   1  19
BRANCH  18  30
HETATM   30  O3  UNL     1      27.241   4.839  49.420  1.00  0.00    -0.389 OA
HETATM   31  H23 UNL     1      27.303   4.108  50.061  1.00  0.00     0.210 HD
ENDBRANCH  18  30
TORSDOF 3
ENDMDL
MODEL 6
REMARK VINA RESULT:      -8.9      2.118      3.249
REMARK  3 active torsions:
REMARK  status: ('A' for Active; 'I' for Inactive)
REMARK    1  A    between atoms: N1_4  and  C4_5 
REMARK    2  A    between atoms: C4_5  and  C5_6 
REMARK    3  A    between atoms: C18_23  and  O3_24 
ROOT
HETATM    1  C5  UNL     1      23.321   3.707  50.362  1.00  0.00     0.071 C 
HETATM    2  C6  UNL     1      22.798   4.914  50.044  1.00  0.00    -0.018 C 
HETATM    3  C7  UNL     1      23.182   5.724  48.859  1.00  0.00     0.054 C 
HETATM    4  C8  UNL     1      22.862   5.101  47.548  1.00  0.00     0.065 C 
HETATM    5  C9  UNL     1      22.253   6.149  46.668  1.00  0.00    -0.004 C 
HETATM    6  C10 UNL     1      22.099   5.748  45.437  1.00  0.00    -0.029 C 
HETATM    7  C11 UNL     1      21.756   4.493  45.199  1.00  0.00     0.014 C 
HETATM    8  C12 UNL     1      21.412   3.659  46.365  1.00  0.00     0.029 C 
HETATM    9  C13 UNL     1      21.955   3.944  47.561  1.00  0.00     0.045 C 
HETATM   10  N2  UNL     1      21.366   2.909  48.396  1.00  0.00    -0.236 N 
HETATM   11  C14 UNL     1      22.270   1.872  48.882  1.00  0.00     0.331 C 
HETATM   12  O1  UNL     1      23.223   2.483  49.718  1.00  0.00    -0.332 OA
HETATM   13  O2  UNL     1      20.051   2.774  48.826  1.00  0.00    -0.246 OA
HETATM   14  C15 UNL     1      19.371   3.986  48.538  1.00  0.00     0.472 C 
HETATM   15  N3  UNL     1      20.175   5.049  49.163  1.00  0.00     0.112 N 
HETATM   16  C16 UNL     1      19.435   6.270  49.076  1.00  0.00     0.312 C 
HETATM   17  C17 UNL     1      20.419   4.685  50.524  1.00  0.00     0.311 C 
HETATM   18  C18 UNL     1      21.718   5.382  50.993  1.00  0.00     0.178 C 
ENDROOT
BRANCH   1  19
HETATM   19  C4  UNL     1      24.147   3.481  51.538  1.00  0.00     0.193 C 
BRANCH  19  20
HETATM   20  N1  UNL     1      24.018   2.221  52.194  1.00  0.00    -0.349 N 
HETATM   21  C3  UNL     1      22.907   1.746  52.820  1.00  0.00     0.099 A 
HETATM   22  C2  UNL     1      23.109   0.503  53.349  1.00  0.00    -0.034 A 
HETATM   23  C1  UNL     1      22.111  -0.291  54.090  1.00  0.00     0.050 C 
HETATM   24  C24 UNL     1      24.414   0.211  53.022  1.00  0.00    -0.002 A 
HETATM   25  C19 UNL     1      24.984   1.262  52.309  1.00  0.00     0.045 A 
HETATM   26  C23 UNL     1      25.146  -0.946  53.317  1.00  0.00     0.014 A 
HETATM   27  C20 UNL     1      26.278   1.180  51.884  1.00  0.00     0.030 A 
HETATM   28  C21 UNL     1      27.017   0.045  52.166  1.00  0.00     0.002 A 
HETATM   29  C22 UNL     1      26.469  -1.024  52.879  1.00  0.00     0.001 A 
ENDBRANCH  19  20
ENDBRANCH   1  19
BRANCH  18  30
HETATM   30  O3  UNL     1      21.926   5.006  52.292  1.00  0.00    -0.389 OA
HETATM   31  H23 UNL     1      22.676   5.422  52.756  1.00  0.00     0.210 HD
ENDBRANCH  18  30
TORSDOF 3
ENDMDL
MODEL 7
REMARK VINA RESULT:      -8.8      3.143      5.037
REMARK  3 active torsions:
REMARK  status: ('A' for Active; 'I' for Inactive)
REMARK    1  A    between atoms: N1_4  and  C4_5 
REMARK    2  A    between atoms: C4_5  and  C5_6 
REMARK    3  A    between atoms: C18_23  and  O3_24 
ROOT
HETATM    1  C5  UNL     1      23.410   3.184  50.672  1.00  0.00     0.071 C 
HETATM    2  C6  UNL     1      23.815   3.691  49.484  1.00  0.00    -0.018 C 
HETATM    3  C7  UNL     1      22.908   4.153  48.400  1.00  0.00     0.054 C 
HETATM    4  C8  UNL     1      22.062   5.323  48.753  1.00  0.00     0.065 C 
HETATM    5  C9  UNL     1      22.093   6.285  47.606  1.00  0.00    -0.004 C 
HETATM    6  C10 UNL     1      21.242   7.263  47.744  1.00  0.00    -0.029 C 
HETATM    7  C11 UNL     1      21.020   7.770  48.945  1.00  0.00     0.014 C 
HETATM    8  C12 UNL     1      21.881   7.294  50.043  1.00  0.00     0.029 C 
HETATM    9  C13 UNL     1      22.419   6.065  49.971  1.00  0.00     0.045 C 
HETATM   10  N2  UNL     1      23.167   6.007  51.218  1.00  0.00    -0.236 N 
HETATM   11  C14 UNL     1      22.662   5.094  52.238  1.00  0.00     0.331 C 
HETATM   12  O1  UNL     1      22.746   3.784  51.730  1.00  0.00    -0.332 OA
HETATM   13  O2  UNL     1      24.325   6.687  51.575  1.00  0.00    -0.246 OA
HETATM   14  C15 UNL     1      24.857   7.288  50.405  1.00  0.00     0.472 C 
HETATM   15  N3  UNL     1      24.996   6.196  49.427  1.00  0.00     0.112 N 
HETATM   16  C16 UNL     1      25.713   6.704  48.298  1.00  0.00     0.312 C 
HETATM   17  C17 UNL     1      25.705   5.122  50.052  1.00  0.00     0.311 C 
HETATM   18  C18 UNL     1      25.316   3.802  49.346  1.00  0.00     0.178 C 
ENDROOT
BRANCH   1  19
HETATM   19  C4  UNL     1      23.627   1.800  51.062  1.00  0.00     0.193 C 
BRANCH  19  20
HETATM   20  N1  UNL     1      22.504   1.082  51.571  1.00  0.00    -0.349 N 
HETATM   21  C3  UNL     1      21.248   1.071  51.047  1.00  0.00     0.099 A 
HETATM   22  C2  UNL     1      20.399   0.283  51.770  1.00  0.00    -0.034 A 
HETATM   23  C1  UNL     1      18.971   0.054  51.473  1.00  0.00     0.050 C 
HETATM   24  C24 UNL     1      21.186  -0.210  52.786  1.00  0.00    -0.002 A 
HETATM   25  C19 UNL     1      22.486   0.276  52.673  1.00  0.00     0.045 A 
HETATM   26  C23 UNL     1      20.824  -1.077  53.824  1.00  0.00     0.014 A 
HETATM   27  C20 UNL     1      23.436  -0.089  53.582  1.00  0.00     0.030 A 
HETATM   28  C21 UNL     1      23.096  -0.945  54.615  1.00  0.00     0.002 A 
HETATM   29  C22 UNL     1      21.800  -1.447  54.751  1.00  0.00     0.001 A 
ENDBRANCH  19  20
ENDBRANCH   1  19
BRANCH  18  30
HETATM   30  O3  UNL     1      26.003   2.797  49.972  1.00  0.00    -0.389 OA
HETATM   31  H23 UNL     1      25.724   1.885  49.774  1.00  0.00     0.210 HD
ENDBRANCH  18  30
TORSDOF 3
ENDMDL
MODEL 8
REMARK VINA RESULT:      -8.8      2.476      4.483
REMARK  3 active torsions:
REMARK  status: ('A' for Active; 'I' for Inactive)
REMARK    1  A    between atoms: N1_4  and  C4_5 
REMARK    2  A    between atoms: C4_5  and  C5_6 
REMARK    3  A    between atoms: C18_23  and  O3_24 
ROOT
HETATM    1  C5  UNL     1      24.815   3.594  50.946  1.00  0.00     0.071 C 
HETATM    2  C6  UNL     1      24.757   4.037  49.669  1.00  0.00    -0.018 C 
HETATM    3  C7  UNL     1      23.561   3.951  48.789  1.00  0.00     0.054 C 
HETATM    4  C8  UNL     1      22.391   4.743  49.250  1.00  0.00     0.065 C 
HETATM    5  C9  UNL     1      21.820   5.464  48.067  1.00  0.00    -0.004 C 
HETATM    6  C10 UNL     1      20.685   6.048  48.331  1.00  0.00    -0.029 C 
HETATM    7  C11 UNL     1      20.497   6.601  49.518  1.00  0.00     0.014 C 
HETATM    8  C12 UNL     1      21.660   6.659  50.422  1.00  0.00     0.029 C 
HETATM    9  C13 UNL     1      22.629   5.735  50.307  1.00  0.00     0.045 C 
HETATM   10  N2  UNL     1      23.547   6.153  51.356  1.00  0.00    -0.236 N 
HETATM   11  C14 UNL     1      23.651   5.277  52.518  1.00  0.00     0.331 C 
HETATM   12  O1  UNL     1      24.167   4.041  52.087  1.00  0.00    -0.332 OA
HETATM   13  O2  UNL     1      24.372   7.271  51.402  1.00  0.00    -0.246 OA
HETATM   14  C15 UNL     1      24.393   7.852  50.107  1.00  0.00     0.472 C 
HETATM   15  N3  UNL     1      24.785   6.766  49.192  1.00  0.00     0.112 N 
HETATM   16  C16 UNL     1      25.016   7.338  47.902  1.00  0.00     0.312 C 
HETATM   17  C17 UNL     1      25.969   6.152  49.708  1.00  0.00     0.311 C 
HETATM   18  C18 UNL     1      26.031   4.695  49.190  1.00  0.00     0.178 C 
ENDROOT
BRANCH   1  19
HETATM   19  C4  UNL     1      25.643   2.474  51.363  1.00  0.00     0.193 C 
BRANCH  19  20
HETATM   20  N1  UNL     1      25.032   1.484  52.189  1.00  0.00    -0.349 N 
HETATM   21  C3  UNL     1      25.605   0.851  53.250  1.00  0.00     0.099 A 
HETATM   22  C2  UNL     1      24.753  -0.044  53.832  1.00  0.00    -0.034 A 
HETATM   23  C1  UNL     1      25.061  -0.892  54.999  1.00  0.00     0.050 C 
HETATM   24  C24 UNL     1      23.603   0.054  53.083  1.00  0.00    -0.002 A 
HETATM   25  C19 UNL     1      23.763   0.993  52.067  1.00  0.00     0.045 A 
HETATM   26  C23 UNL     1      22.400  -0.643  53.240  1.00  0.00     0.014 A 
HETATM   27  C20 UNL     1      22.739   1.250  51.202  1.00  0.00     0.030 A 
HETATM   28  C21 UNL     1      21.543   0.570  51.343  1.00  0.00     0.002 A 
HETATM   29  C22 UNL     1      21.356  -0.377  52.353  1.00  0.00     0.001 A 
ENDBRANCH  19  20
ENDBRANCH   1  19
BRANCH  18  30
HETATM   30  O3  UNL     1      27.168   4.136  49.707  1.00  0.00    -0.389 OA
HETATM   31  H23 UNL     1      27.087   3.700  50.575  1.00  0.00     0.210 HD
ENDBRANCH  18  30
TORSDOF 3
ENDMDL
MODEL 9
REMARK VINA RESULT:      -8.8      2.061      3.058
REMARK  3 active torsions:
REMARK  status: ('A' for Active; 'I' for Inactive)
REMARK    1  A    between atoms: N1_4  and  C4_5 
REMARK    2  A    between atoms: C4_5  and  C5_6 
REMARK    3  A    between atoms: C18_23  and  O3_24 
ROOT
HETATM    1  C5  UNL     1      22.948   4.411  51.459  1.00  0.00     0.071 C 
HETATM    2  C6  UNL     1      23.575   5.095  50.474  1.00  0.00    -0.018 C 
HETATM    3  C7  UNL     1      23.771   4.602  49.085  1.00  0.00     0.054 C 
HETATM    4  C8  UNL     1      22.517   4.397  48.314  1.00  0.00     0.065 C 
HETATM    5  C9  UNL     1      22.711   4.970  46.944  1.00  0.00    -0.004 C 
HETATM    6  C10 UNL     1      21.731   4.684  46.133  1.00  0.00    -0.029 C 
HETATM    7  C11 UNL     1      20.492   4.644  46.597  1.00  0.00     0.014 C 
HETATM    8  C12 UNL     1      20.283   5.089  47.986  1.00  0.00     0.029 C 
HETATM    9  C13 UNL     1      21.287   4.976  48.872  1.00  0.00     0.045 C 
HETATM   10  N2  UNL     1      20.668   5.511  50.075  1.00  0.00    -0.236 N 
HETATM   11  C14 UNL     1      20.391   4.558  51.144  1.00  0.00     0.331 C 
HETATM   12  O1  UNL     1      21.619   4.041  51.595  1.00  0.00    -0.332 OA
HETATM   13  O2  UNL     1      20.319   6.824  50.369  1.00  0.00    -0.246 OA
HETATM   14  C15 UNL     1      20.911   7.663  49.390  1.00  0.00     0.472 C 
HETATM   15  N3  UNL     1      22.346   7.333  49.400  1.00  0.00     0.112 N 
HETATM   16  C16 UNL     1      23.024   8.285  48.576  1.00  0.00     0.312 C 
HETATM   17  C17 UNL     1      22.810   7.392  50.752  1.00  0.00     0.311 C 
HETATM   18  C18 UNL     1      24.045   6.471  50.887  1.00  0.00     0.178 C 
ENDROOT
BRANCH   1  19
HETATM   19  C4  UNL     1      23.632   3.909  52.640  1.00  0.00     0.193 C 
BRANCH  19  20
HETATM   20  N1  UNL     1      23.813   2.497  52.737  1.00  0.00    -0.349 N 
HETATM   21  C3  UNL     1      22.841   1.571  52.965  1.00  0.00     0.099 A 
HETATM   22  C2  UNL     1      23.343   0.302  53.001  1.00  0.00    -0.034 A 
HETATM   23  C1  UNL     1      22.559  -0.928  53.227  1.00  0.00     0.050 C 
HETATM   24  C24 UNL     1      24.691   0.469  52.783  1.00  0.00    -0.002 A 
HETATM   25  C19 UNL     1      24.993   1.818  52.618  1.00  0.00     0.045 A 
HETATM   26  C23 UNL     1      25.690  -0.509  52.718  1.00  0.00     0.014 A 
HETATM   27  C20 UNL     1      26.280   2.211  52.389  1.00  0.00     0.030 A 
HETATM   28  C21 UNL     1      27.280   1.257  52.322  1.00  0.00     0.002 A 
HETATM   29  C22 UNL     1      27.004  -0.102  52.483  1.00  0.00     0.001 A 
ENDBRANCH  19  20
ENDBRANCH   1  19
BRANCH  18  30
HETATM   30  O3  UNL     1      24.457   6.544  52.190  1.00  0.00    -0.389 OA
HETATM   31  H23 UNL     1      23.825   6.243  52.868  1.00  0.00     0.210 HD
ENDBRANCH  18  30
TORSDOF 3
ENDMDL
