MODEL 1
REMARK VINA RESULT:      -8.1      0.000      0.000
REMARK  7 active torsions:
REMARK  status: ('A' for Active; 'I' for Inactive)
REMARK    1  A    between atoms: O1_2  and  C2_3 
REMARK    2  A    between atoms: C8_11  and  N3_12 
REMARK    3  A    between atoms: N3_12  and  C9_13 
REMARK    4  A    between atoms: C17_22  and  N4_23 
REMARK    5  A    between atoms: N4_23  and  C18_24 
REMARK    6  A    between atoms: C18_24  and  C19_25 
REMARK    7  A    between atoms: C19_25  and  C20_26 
ROOT
HETATM    1  C2  UNL     1      25.186   0.076  53.856  1.00  0.00     0.096 A 
HETATM    2  C3  UNL     1      24.023   0.012  53.125  1.00  0.00     0.071 A 
HETATM    3  C4  UNL     1      23.577   0.996  52.291  1.00  0.00     0.071 A 
HETATM    4  N1  UNL     1      22.429   0.877  51.601  1.00  0.00    -0.259 NA
HETATM    5  C5  UNL     1      21.976   1.838  50.775  1.00  0.00     0.142 A 
HETATM    6  C6  UNL     1      22.738   3.003  50.635  1.00  0.00     0.089 A 
HETATM    7  C7  UNL     1      22.264   4.025  49.762  1.00  0.00     0.103 C 
HETATM    8  N2  UNL     1      21.886   4.854  49.054  1.00  0.00    -0.191 NA
HETATM    9  C8  UNL     1      23.939   3.185  51.326  1.00  0.00     0.067 A 
HETATM   10  C15 UNL     1      24.349   2.147  52.167  1.00  0.00     0.023 A 
HETATM   11  C16 UNL     1      25.535   2.268  52.881  1.00  0.00     0.048 A 
HETATM   12  C17 UNL     1      25.952   1.238  53.721  1.00  0.00     0.063 A 
ENDROOT
BRANCH   9  13
HETATM   13  N3  UNL     1      24.677   4.359  51.166  1.00  0.00    -0.354 N 
HETATM   14  H6  UNL     1      24.348   4.858  52.010  1.00  0.00     0.166 HD
BRANCH  13  15
HETATM   15  C9  UNL     1      25.613   4.868  50.221  1.00  0.00     0.034 A 
HETATM   16  C10 UNL     1      26.512   3.987  49.692  1.00  0.00     0.029 A 
HETATM   17  C11 UNL     1      27.407   4.509  48.779  1.00  0.00     0.004 A 
HETATM   18  C12 UNL     1      27.398   5.829  48.421  1.00  0.00     0.024 A 
HETATM   19  C13 UNL     1      26.468   6.672  48.988  1.00  0.00     0.036 A 
HETATM   20 CL1  UNL     1      26.545   8.341  48.459  1.00  0.00    -0.084 Cl
HETATM   21  C14 UNL     1      25.530   6.216  49.919  1.00  0.00     0.053 A 
ENDBRANCH  13  15
ENDBRANCH   9  13
BRANCH  12  22
HETATM   22  N4  UNL     1      27.189   1.417  54.438  1.00  0.00    -0.384 N 
HETATM   23  H12 UNL     1      27.121   1.376  55.495  1.00  0.00     0.160 HD
BRANCH  22  24
HETATM   24  C18 UNL     1      28.498   1.642  53.834  1.00  0.00     0.151 C 
BRANCH  24  25
HETATM   25  C19 UNL     1      29.378   0.472  54.068  1.00  0.00     0.051 C 
BRANCH  25  26
HETATM   26  C20 UNL     1      29.027  -0.753  53.790  1.00  0.00     0.219 C 
HETATM   27  O2  UNL     1      28.952  -1.975  53.534  1.00  0.00    -0.284 OA
ENDBRANCH  25  26
ENDBRANCH  24  25
ENDBRANCH  22  24
ENDBRANCH  12  22
BRANCH   1  28
HETATM   28  O1  UNL     1      25.648  -0.915  54.705  1.00  0.00    -0.354 OA
HETATM   29  C1  UNL     1      24.878  -1.208  55.863  1.00  0.00     0.210 C 
ENDBRANCH   1  28
TORSDOF 7
ENDMDL
MODEL 2
REMARK VINA RESULT:      -8.0      3.451      6.250
REMARK  7 active torsions:
REMARK  status: ('A' for Active; 'I' for Inactive)
REMARK    1  A    between atoms: O1_2  and  C2_3 
REMARK    2  A    between atoms: C8_11  and  N3_12 
REMARK    3  A    between atoms: N3_12  and  C9_13 
REMARK    4  A    between atoms: C17_22  and  N4_23 
REMARK    5  A    between atoms: N4_23  and  C18_24 
REMARK    6  A    between atoms: C18_24  and  C19_25 
REMARK    7  A    between atoms: C19_25  and  C20_26 
ROOT
HETATM    1  C2  UNL     1      27.479   1.825  53.234  1.00  0.00     0.096 A 
HETATM    2  C3  UNL     1      27.093   0.925  54.198  1.00  0.00     0.071 A 
HETATM    3  C4  UNL     1      25.865   0.334  54.260  1.00  0.00     0.071 A 
HETATM    4  N1  UNL     1      25.544  -0.541  55.229  1.00  0.00    -0.259 NA
HETATM    5  C5  UNL     1      24.337  -1.132  55.303  1.00  0.00     0.142 A 
HETATM    6  C6  UNL     1      23.386  -0.818  54.327  1.00  0.00     0.089 A 
HETATM    7  C7  UNL     1      22.106  -1.440  54.399  1.00  0.00     0.103 C 
HETATM    8  N2  UNL     1      21.069  -1.944  54.452  1.00  0.00    -0.191 NA
HETATM    9  C8  UNL     1      23.660   0.084  53.294  1.00  0.00     0.067 A 
HETATM   10  C15 UNL     1      24.933   0.661  53.279  1.00  0.00     0.023 A 
HETATM   11  C16 UNL     1      25.266   1.564  52.278  1.00  0.00     0.048 A 
HETATM   12  C17 UNL     1      26.533   2.144  52.255  1.00  0.00     0.063 A 
ENDROOT
BRANCH   9  13
HETATM   13  N3  UNL     1      22.690   0.377  52.335  1.00  0.00    -0.354 N 
HETATM   14  H6  UNL     1      22.980  -0.306  51.616  1.00  0.00     0.166 HD
BRANCH  13  15
HETATM   15  C9  UNL     1      21.596   1.282  52.219  1.00  0.00     0.034 A 
HETATM   16  C10 UNL     1      21.858   2.610  52.392  1.00  0.00     0.029 A 
HETATM   17  C11 UNL     1      20.778   3.463  52.274  1.00  0.00     0.004 A 
HETATM   18  C12 UNL     1      19.517   3.009  52.000  1.00  0.00     0.024 A 
HETATM   19  C13 UNL     1      19.312   1.657  51.835  1.00  0.00     0.036 A 
HETATM   20 CL1  UNL     1      17.660   1.185  51.487  1.00  0.00    -0.084 Cl
HETATM   21  C14 UNL     1      20.355   0.734  51.940  1.00  0.00     0.053 A 
ENDBRANCH  13  15
ENDBRANCH   9  13
BRANCH  12  22
HETATM   22  N4  UNL     1      26.824   3.075  51.194  1.00  0.00    -0.384 N 
HETATM   23  H12 UNL     1      27.675   3.691  51.340  1.00  0.00     0.160 HD
BRANCH  22  24
HETATM   24  C18 UNL     1      26.057   3.231  49.963  1.00  0.00     0.151 C 
BRANCH  24  25
HETATM   25  C19 UNL     1      26.416   4.504  49.293  1.00  0.00     0.051 C 
BRANCH  25  26
HETATM   26  C20 UNL     1      27.568   4.708  48.717  1.00  0.00     0.219 C 
HETATM   27  O2  UNL     1      28.738   5.014  48.398  1.00  0.00    -0.284 OA
ENDBRANCH  25  26
ENDBRANCH  24  25
ENDBRANCH  22  24
ENDBRANCH  12  22
BRANCH   1  28
HETATM   28  O1  UNL     1      28.722   2.432  53.161  1.00  0.00    -0.354 OA
HETATM   29  C1  UNL     1      29.620   2.233  54.244  1.00  0.00     0.210 C 
ENDBRANCH   1  28
TORSDOF 7
ENDMDL
MODEL 3
REMARK VINA RESULT:      -8.0      3.431      6.351
REMARK  7 active torsions:
REMARK  status: ('A' for Active; 'I' for Inactive)
REMARK    1  A    between atoms: O1_2  and  C2_3 
REMARK    2  A    between atoms: C8_11  and  N3_12 
REMARK    3  A    between atoms: N3_12  and  C9_13 
REMARK    4  A    between atoms: C17_22  and  N4_23 
REMARK    5  A    between atoms: N4_23  and  C18_24 
REMARK    6  A    between atoms: C18_24  and  C19_25 
REMARK    7  A    between atoms: C19_25  and  C20_26 
ROOT
HETATM    1  C2  UNL     1      22.507   2.653  49.087  1.00  0.00     0.096 A 
HETATM    2  C3  UNL     1      21.633   1.745  49.635  1.00  0.00     0.071 A 
HETATM    3  C4  UNL     1      21.836   1.087  50.813  1.00  0.00     0.071 A 
HETATM    4  N1  UNL     1      20.943   0.207  51.300  1.00  0.00    -0.259 NA
HETATM    5  C5  UNL     1      21.129  -0.449  52.460  1.00  0.00     0.142 A 
HETATM    6  C6  UNL     1      22.302  -0.199  53.180  1.00  0.00     0.089 A 
HETATM    7  C7  UNL     1      22.506  -0.891  54.409  1.00  0.00     0.103 C 
HETATM    8  N2  UNL     1      22.674  -1.447  55.407  1.00  0.00    -0.191 NA
HETATM    9  C8  UNL     1      23.267   0.704  52.726  1.00  0.00     0.067 A 
HETATM   10  C15 UNL     1      23.009   1.350  51.514  1.00  0.00     0.023 A 
HETATM   11  C16 UNL     1      23.930   2.259  51.009  1.00  0.00     0.048 A 
HETATM   12  C17 UNL     1      23.681   2.908  49.802  1.00  0.00     0.063 A 
ENDROOT
BRANCH   9  13
HETATM   13  N3  UNL     1      24.427   0.932  53.467  1.00  0.00    -0.354 N 
HETATM   14  H6  UNL     1      24.047   1.628  54.130  1.00  0.00     0.166 HD
BRANCH  13  15
HETATM   15  C9  UNL     1      25.769   0.455  53.454  1.00  0.00     0.034 A 
HETATM   16  C10 UNL     1      25.992  -0.780  52.917  1.00  0.00     0.029 A 
HETATM   17  C11 UNL     1      27.302  -1.216  52.918  1.00  0.00     0.004 A 
HETATM   18  C12 UNL     1      28.322  -0.459  53.427  1.00  0.00     0.024 A 
HETATM   19  C13 UNL     1      28.038   0.780  53.957  1.00  0.00     0.036 A 
HETATM   20 CL1  UNL     1      29.418   1.665  54.579  1.00  0.00    -0.084 Cl
HETATM   21  C14 UNL     1      26.737   1.288  53.990  1.00  0.00     0.053 A 
ENDBRANCH  13  15
ENDBRANCH   9  13
BRANCH  12  22
HETATM   22  N4  UNL     1      24.672   3.841  49.326  1.00  0.00    -0.384 N 
HETATM   23  H12 UNL     1      24.307   4.639  48.730  1.00  0.00     0.160 HD
BRANCH  22  24
HETATM   24  C18 UNL     1      26.103   3.772  49.594  1.00  0.00     0.151 C 
BRANCH  24  25
HETATM   25  C19 UNL     1      26.799   4.917  48.958  1.00  0.00     0.051 C 
BRANCH  25  26
HETATM   26  C20 UNL     1      28.058   4.888  48.617  1.00  0.00     0.219 C 
HETATM   27  O2  UNL     1      29.218   5.108  48.208  1.00  0.00    -0.284 OA
ENDBRANCH  25  26
ENDBRANCH  24  25
ENDBRANCH  22  24
ENDBRANCH  12  22
BRANCH   1  28
HETATM   28  O1  UNL     1      22.312   3.327  47.893  1.00  0.00    -0.354 OA
HETATM   29  C1  UNL     1      21.321   4.345  47.860  1.00  0.00     0.210 C 
ENDBRANCH   1  28
TORSDOF 7
ENDMDL
MODEL 4
REMARK VINA RESULT:      -7.8      1.952      2.326
REMARK  7 active torsions:
REMARK  status: ('A' for Active; 'I' for Inactive)
REMARK    1  A    between atoms: O1_2  and  C2_3 
REMARK    2  A    between atoms: C8_11  and  N3_12 
REMARK    3  A    between atoms: N3_12  and  C9_13 
REMARK    4  A    between atoms: C17_22  and  N4_23 
REMARK    5  A    between atoms: N4_23  and  C18_24 
REMARK    6  A    between atoms: C18_24  and  C19_25 
REMARK    7  A    between atoms: C19_25  and  C20_26 
ROOT
HETATM    1  C2  UNL     1      22.665   0.132  53.284  1.00  0.00     0.096 A 
HETATM    2  C3  UNL     1      21.552   0.852  52.919  1.00  0.00     0.071 A 
HETATM    3  C4  UNL     1      21.578   2.130  52.440  1.00  0.00     0.071 A 
HETATM    4  N1  UNL     1      20.455   2.785  52.099  1.00  0.00    -0.259 NA
HETATM    5  C5  UNL     1      20.465   4.045  51.626  1.00  0.00     0.142 A 
HETATM    6  C6  UNL     1      21.699   4.689  51.487  1.00  0.00     0.089 A 
HETATM    7  C7  UNL     1      21.716   6.024  50.987  1.00  0.00     0.103 C 
HETATM    8  N2  UNL     1      21.736   7.103  50.579  1.00  0.00    -0.191 NA
HETATM    9  C8  UNL     1      22.900   4.061  51.825  1.00  0.00     0.067 A 
HETATM   10  C15 UNL     1      22.816   2.753  52.311  1.00  0.00     0.023 A 
HETATM   11  C16 UNL     1      23.975   2.074  52.664  1.00  0.00     0.048 A 
HETATM   12  C17 UNL     1      23.901   0.770  53.148  1.00  0.00     0.063 A 
ENDROOT
BRANCH   9  13
HETATM   13  N3  UNL     1      24.116   4.730  51.676  1.00  0.00    -0.354 N 
HETATM   14  H6  UNL     1      24.141   5.201  52.596  1.00  0.00     0.166 HD
BRANCH  13  15
HETATM   15  C9  UNL     1      25.114   4.842  50.666  1.00  0.00     0.034 A 
HETATM   16  C10 UNL     1      25.845   3.725  50.379  1.00  0.00     0.029 A 
HETATM   17  C11 UNL     1      26.804   3.863  49.397  1.00  0.00     0.004 A 
HETATM   18  C12 UNL     1      27.016   5.047  48.745  1.00  0.00     0.024 A 
HETATM   19  C13 UNL     1      26.248   6.142  49.076  1.00  0.00     0.036 A 
HETATM   20 CL1  UNL     1      26.602   7.607  48.180  1.00  0.00    -0.084 Cl
HETATM   21  C14 UNL     1      25.258   6.078  50.060  1.00  0.00     0.053 A 
ENDBRANCH  13  15
ENDBRANCH   9  13
BRANCH  12  22
HETATM   22  N4  UNL     1      25.135   0.114  53.500  1.00  0.00    -0.384 N 
HETATM   23  H12 UNL     1      25.323   0.008  54.538  1.00  0.00     0.160 HD
BRANCH  22  24
HETATM   24  C18 UNL     1      26.122  -0.404  52.559  1.00  0.00     0.151 C 
BRANCH  24  25
HETATM   25  C19 UNL     1      27.276   0.521  52.465  1.00  0.00     0.051 C 
BRANCH  25  26
HETATM   26  C20 UNL     1      27.545   1.422  53.371  1.00  0.00     0.219 C 
HETATM   27  O2  UNL     1      27.610   2.422  54.118  1.00  0.00    -0.284 OA
ENDBRANCH  25  26
ENDBRANCH  24  25
ENDBRANCH  22  24
ENDBRANCH  12  22
BRANCH   1  28
HETATM   28  O1  UNL     1      22.650  -1.165  53.771  1.00  0.00    -0.354 OA
HETATM   29  C1  UNL     1      21.566  -1.547  54.606  1.00  0.00     0.210 C 
ENDBRANCH   1  28
TORSDOF 7
ENDMDL
MODEL 5
REMARK VINA RESULT:      -7.7      2.574      5.120
REMARK  7 active torsions:
REMARK  status: ('A' for Active; 'I' for Inactive)
REMARK    1  A    between atoms: O1_2  and  C2_3 
REMARK    2  A    between atoms: C8_11  and  N3_12 
REMARK    3  A    between atoms: N3_12  and  C9_13 
REMARK    4  A    between atoms: C17_22  and  N4_23 
REMARK    5  A    between atoms: N4_23  and  C18_24 
REMARK    6  A    between atoms: C18_24  and  C19_25 
REMARK    7  A    between atoms: C19_25  and  C20_26 
ROOT
HETATM    1  C2  UNL     1      26.968   1.538  52.686  1.00  0.00     0.096 A 
HETATM    2  C3  UNL     1      26.347   0.568  53.437  1.00  0.00     0.071 A 
HETATM    3  C4  UNL     1      25.001   0.345  53.456  1.00  0.00     0.071 A 
HETATM    4  N1  UNL     1      24.450  -0.620  54.212  1.00  0.00    -0.259 NA
HETATM    5  C5  UNL     1      23.125  -0.852  54.241  1.00  0.00     0.142 A 
HETATM    6  C6  UNL     1      22.296  -0.052  53.447  1.00  0.00     0.089 A 
HETATM    7  C7  UNL     1      20.892  -0.292  53.473  1.00  0.00     0.103 C 
HETATM    8  N2  UNL     1      19.754  -0.485  53.488  1.00  0.00    -0.191 NA
HETATM    9  C8  UNL     1      22.809   0.967  52.640  1.00  0.00     0.067 A 
HETATM   10  C15 UNL     1      24.194   1.153  52.659  1.00  0.00     0.023 A 
HETATM   11  C16 UNL     1      24.766   2.149  51.879  1.00  0.00     0.048 A 
HETATM   12  C17 UNL     1      26.145   2.342  51.891  1.00  0.00     0.063 A 
ENDROOT
BRANCH   9  13
HETATM   13  N3  UNL     1      21.957   1.749  51.860  1.00  0.00    -0.354 N 
HETATM   14  H6  UNL     1      21.320   2.068  52.609  1.00  0.00     0.166 HD
BRANCH  13  15
HETATM   15  C9  UNL     1      21.852   2.100  50.484  1.00  0.00     0.034 A 
HETATM   16  C10 UNL     1      21.686   1.084  49.587  1.00  0.00     0.029 A 
HETATM   17  C11 UNL     1      21.587   1.454  48.261  1.00  0.00     0.004 A 
HETATM   18  C12 UNL     1      21.651   2.761  47.861  1.00  0.00     0.024 A 
HETATM   19  C13 UNL     1      21.820   3.745  48.810  1.00  0.00     0.036 A 
HETATM   20 CL1  UNL     1      21.888   5.383  48.190  1.00  0.00    -0.084 Cl
HETATM   21  C14 UNL     1      21.927   3.447  50.171  1.00  0.00     0.053 A 
ENDBRANCH  13  15
ENDBRANCH   9  13
BRANCH  12  22
HETATM   22  N4  UNL     1      26.684   3.390  51.062  1.00  0.00    -0.384 N 
HETATM   23  H12 UNL     1      27.180   4.176  51.573  1.00  0.00     0.160 HD
BRANCH  22  24
HETATM   24  C18 UNL     1      26.601   3.452  49.607  1.00  0.00     0.151 C 
BRANCH  24  25
HETATM   25  C19 UNL     1      25.877   4.675  49.186  1.00  0.00     0.051 C 
BRANCH  25  26
HETATM   26  C20 UNL     1      25.132   5.378  49.994  1.00  0.00     0.219 C 
HETATM   27  O2  UNL     1      24.543   5.913  50.958  1.00  0.00    -0.284 OA
ENDBRANCH  25  26
ENDBRANCH  24  25
ENDBRANCH  22  24
ENDBRANCH  12  22
BRANCH   1  28
HETATM   28  O1  UNL     1      28.332   1.774  52.660  1.00  0.00    -0.354 OA
HETATM   29  C1  UNL     1      28.914   2.424  53.782  1.00  0.00     0.210 C 
ENDBRANCH   1  28
TORSDOF 7
ENDMDL
MODEL 6
REMARK VINA RESULT:      -7.7      2.156      2.764
REMARK  7 active torsions:
REMARK  status: ('A' for Active; 'I' for Inactive)
REMARK    1  A    between atoms: O1_2  and  C2_3 
REMARK    2  A    between atoms: C8_11  and  N3_12 
REMARK    3  A    between atoms: N3_12  and  C9_13 
REMARK    4  A    between atoms: C17_22  and  N4_23 
REMARK    5  A    between atoms: N4_23  and  C18_24 
REMARK    6  A    between atoms: C18_24  and  C19_25 
REMARK    7  A    between atoms: C19_25  and  C20_26 
ROOT
HETATM    1  C2  UNL     1      25.582  -0.486  53.263  1.00  0.00     0.096 A 
HETATM    2  C3  UNL     1      24.248  -0.792  53.389  1.00  0.00     0.071 A 
HETATM    3  C4  UNL     1      23.226   0.078  53.137  1.00  0.00     0.071 A 
HETATM    4  N1  UNL     1      21.937  -0.279  53.278  1.00  0.00    -0.259 NA
HETATM    5  C5  UNL     1      20.919   0.567  53.034  1.00  0.00     0.142 A 
HETATM    6  C6  UNL     1      21.225   1.866  52.616  1.00  0.00     0.089 A 
HETATM    7  C7  UNL     1      20.152   2.767  52.355  1.00  0.00     0.103 C 
HETATM    8  N2  UNL     1      19.286   3.499  52.139  1.00  0.00    -0.191 NA
HETATM    9  C8  UNL     1      22.545   2.296  52.451  1.00  0.00     0.067 A 
HETATM   10  C15 UNL     1      23.552   1.366  52.723  1.00  0.00     0.023 A 
HETATM   11  C16 UNL     1      24.884   1.732  52.577  1.00  0.00     0.048 A 
HETATM   12  C17 UNL     1      25.894   0.811  52.845  1.00  0.00     0.063 A 
ENDROOT
BRANCH   9  13
HETATM   13  N3  UNL     1      22.818   3.598  52.032  1.00  0.00    -0.354 N 
HETATM   14  H6  UNL     1      22.679   4.078  52.937  1.00  0.00     0.166 HD
BRANCH  13  15
HETATM   15  C9  UNL     1      23.180   4.234  50.810  1.00  0.00     0.034 A 
HETATM   16  C10 UNL     1      24.165   5.178  50.862  1.00  0.00     0.029 A 
HETATM   17  C11 UNL     1      24.495   5.777  49.663  1.00  0.00     0.004 A 
HETATM   18  C12 UNL     1      23.876   5.449  48.488  1.00  0.00     0.024 A 
HETATM   19  C13 UNL     1      22.888   4.489  48.496  1.00  0.00     0.036 A 
HETATM   20 CL1  UNL     1      22.161   4.146  46.938  1.00  0.00    -0.084 Cl
HETATM   21  C14 UNL     1      22.500   3.839  49.671  1.00  0.00     0.053 A 
ENDBRANCH  13  15
ENDBRANCH   9  13
BRANCH  12  22
HETATM   22  N4  UNL     1      27.259   1.246  52.678  1.00  0.00    -0.384 N 
HETATM   23  H12 UNL     1      27.809   0.758  51.915  1.00  0.00     0.160 HD
BRANCH  22  24
HETATM   24  C18 UNL     1      27.924   2.281  53.461  1.00  0.00     0.151 C 
BRANCH  24  25
HETATM   25  C19 UNL     1      29.167   1.747  54.067  1.00  0.00     0.051 C 
BRANCH  25  26
HETATM   26  C20 UNL     1      29.552   0.507  53.931  1.00  0.00     0.219 C 
HETATM   27  O2  UNL     1      29.954  -0.612  53.545  1.00  0.00    -0.284 OA
ENDBRANCH  25  26
ENDBRANCH  24  25
ENDBRANCH  22  24
ENDBRANCH  12  22
BRANCH   1  28
HETATM   28  O1  UNL     1      26.627  -1.359  53.516  1.00  0.00    -0.354 OA
HETATM   29  C1  UNL     1      26.998  -2.265  52.486  1.00  0.00     0.210 C 
ENDBRANCH   1  28
TORSDOF 7
ENDMDL
MODEL 7
REMARK VINA RESULT:      -7.6      3.593      6.359
REMARK  7 active torsions:
REMARK  status: ('A' for Active; 'I' for Inactive)
REMARK    1  A    between atoms: O1_2  and  C2_3 
REMARK    2  A    between atoms: C8_11  and  N3_12 
REMARK    3  A    between atoms: N3_12  and  C9_13 
REMARK    4  A    between atoms: C17_22  and  N4_23 
REMARK    5  A    between atoms: N4_23  and  C18_24 
REMARK    6  A    between atoms: C18_24  and  C19_25 
REMARK    7  A    between atoms: C19_25  and  C20_26 
ROOT
HETATM    1  C2  UNL     1      19.617  -0.874  53.460  1.00  0.00     0.096 A 
HETATM    2  C3  UNL     1      20.479  -1.412  54.385  1.00  0.00     0.071 A 
HETATM    3  C4  UNL     1      21.819  -1.153  54.439  1.00  0.00     0.071 A 
HETATM    4  N1  UNL     1      22.614  -1.710  55.369  1.00  0.00    -0.259 NA
HETATM    5  C5  UNL     1      23.936  -1.465  55.434  1.00  0.00     0.142 A 
HETATM    6  C6  UNL     1      24.494  -0.595  54.492  1.00  0.00     0.089 A 
HETATM    7  C7  UNL     1      25.893  -0.331  54.555  1.00  0.00     0.103 C 
HETATM    8  N2  UNL     1      27.025  -0.113  54.604  1.00  0.00    -0.191 NA
HETATM    9  C8  UNL     1      23.719   0.014  53.501  1.00  0.00     0.067 A 
HETATM   10  C15 UNL     1      22.354  -0.285  53.492  1.00  0.00     0.023 A 
HETATM   11  C16 UNL     1      21.530   0.289  52.532  1.00  0.00     0.048 A 
HETATM   12  C17 UNL     1      20.168  -0.003  52.515  1.00  0.00     0.063 A 
ENDROOT
BRANCH   9  13
HETATM   13  N3  UNL     1      24.305   0.877  52.575  1.00  0.00    -0.354 N 
HETATM   14  H6  UNL     1      25.025   0.234  52.205  1.00  0.00     0.166 HD
BRANCH  13  15
HETATM   15  C9  UNL     1      24.108   2.223  52.151  1.00  0.00     0.034 A 
HETATM   16  C10 UNL     1      24.009   3.179  53.120  1.00  0.00     0.029 A 
HETATM   17  C11 UNL     1      23.818   4.473  52.680  1.00  0.00     0.004 A 
HETATM   18  C12 UNL     1      23.730   4.786  51.351  1.00  0.00     0.024 A 
HETATM   19  C13 UNL     1      23.836   3.780  50.416  1.00  0.00     0.036 A 
HETATM   20 CL1  UNL     1      23.711   4.291  48.744  1.00  0.00    -0.084 Cl
HETATM   21  C14 UNL     1      24.031   2.446  50.787  1.00  0.00     0.053 A 
ENDBRANCH  13  15
ENDBRANCH   9  13
BRANCH  12  22
HETATM   22  N4  UNL     1      19.361   0.620  51.497  1.00  0.00    -0.384 N 
HETATM   23  H12 UNL     1      18.472   0.106  51.232  1.00  0.00     0.160 HD
BRANCH  22  24
HETATM   24  C18 UNL     1      19.666   1.874  50.819  1.00  0.00     0.151 C 
BRANCH  24  25
HETATM   25  C19 UNL     1      19.848   1.641  49.366  1.00  0.00     0.051 C 
BRANCH  25  26
HETATM   26  C20 UNL     1      21.008   1.395  48.822  1.00  0.00     0.219 C 
HETATM   27  O2  UNL     1      22.035   1.326  48.112  1.00  0.00    -0.284 OA
ENDBRANCH  25  26
ENDBRANCH  24  25
ENDBRANCH  22  24
ENDBRANCH  12  22
BRANCH   1  28
HETATM   28  O1  UNL     1      18.257  -1.129  53.396  1.00  0.00    -0.354 OA
HETATM   29  C1  UNL     1      17.825  -2.471  53.577  1.00  0.00     0.210 C 
ENDBRANCH   1  28
TORSDOF 7
ENDMDL
MODEL 8
REMARK VINA RESULT:      -7.5      1.742      2.387
REMARK  7 active torsions:
REMARK  status: ('A' for Active; 'I' for Inactive)
REMARK    1  A    between atoms: O1_2  and  C2_3 
REMARK    2  A    between atoms: C8_11  and  N3_12 
REMARK    3  A    between atoms: N3_12  and  C9_13 
REMARK    4  A    between atoms: C17_22  and  N4_23 
REMARK    5  A    between atoms: N4_23  and  C18_24 
REMARK    6  A    between atoms: C18_24  and  C19_25 
REMARK    7  A    between atoms: C19_25  and  C20_26 
ROOT
HETATM    1  C2  UNL     1      24.669  -0.527  54.172  1.00  0.00     0.096 A 
HETATM    2  C3  UNL     1      23.324  -0.692  53.946  1.00  0.00     0.071 A 
HETATM    3  C4  UNL     1      22.627  -0.092  52.937  1.00  0.00     0.071 A 
HETATM    4  N1  UNL     1      21.308  -0.292  52.765  1.00  0.00    -0.259 NA
HETATM    5  C5  UNL     1      20.609   0.293  51.776  1.00  0.00     0.142 A 
HETATM    6  C6  UNL     1      21.289   1.140  50.895  1.00  0.00     0.089 A 
HETATM    7  C7  UNL     1      20.554   1.762  49.845  1.00  0.00     0.103 C 
HETATM    8  N2  UNL     1      19.963   2.266  48.991  1.00  0.00    -0.191 NA
HETATM    9  C8  UNL     1      22.659   1.387  51.022  1.00  0.00     0.067 A 
HETATM   10  C15 UNL     1      23.323   0.748  52.072  1.00  0.00     0.023 A 
HETATM   11  C16 UNL     1      24.685   0.953  52.251  1.00  0.00     0.048 A 
HETATM   12  C17 UNL     1      25.356   0.319  53.295  1.00  0.00     0.063 A 
ENDROOT
BRANCH   9  13
HETATM   13  N3  UNL     1      23.310   2.238  50.128  1.00  0.00    -0.354 N 
HETATM   14  H6  UNL     1      23.215   1.661  49.276  1.00  0.00     0.166 HD
BRANCH  13  15
HETATM   15  C9  UNL     1      23.951   3.509  50.195  1.00  0.00     0.034 A 
HETATM   16  C10 UNL     1      23.376   4.461  50.987  1.00  0.00     0.029 A 
HETATM   17  C11 UNL     1      24.018   5.682  51.032  1.00  0.00     0.004 A 
HETATM   18  C12 UNL     1      25.163   5.931  50.325  1.00  0.00     0.024 A 
HETATM   19  C13 UNL     1      25.698   4.932  49.541  1.00  0.00     0.036 A 
HETATM   20 CL1  UNL     1      27.164   5.357  48.680  1.00  0.00    -0.084 Cl
HETATM   21  C14 UNL     1      25.104   3.671  49.446  1.00  0.00     0.053 A 
ENDBRANCH  13  15
ENDBRANCH   9  13
BRANCH  12  22
HETATM   22  N4  UNL     1      26.769   0.569  53.434  1.00  0.00    -0.384 N 
HETATM   23  H12 UNL     1      27.037   1.539  53.767  1.00  0.00     0.160 HD
BRANCH  22  24
HETATM   24  C18 UNL     1      27.833  -0.390  53.160  1.00  0.00     0.151 C 
BRANCH  24  25
HETATM   25  C19 UNL     1      29.140   0.157  53.596  1.00  0.00     0.051 C 
BRANCH  25  26
HETATM   26  C20 UNL     1      29.265   1.290  54.231  1.00  0.00     0.219 C 
HETATM   27  O2  UNL     1      29.513   2.229  55.018  1.00  0.00    -0.284 OA
ENDBRANCH  25  26
ENDBRANCH  24  25
ENDBRANCH  22  24
ENDBRANCH  12  22
BRANCH   1  28
HETATM   28  O1  UNL     1      25.387  -1.129  55.192  1.00  0.00    -0.354 OA
HETATM   29  C1  UNL     1      25.003  -0.843  56.530  1.00  0.00     0.210 C 
ENDBRANCH   1  28
TORSDOF 7
ENDMDL
MODEL 9
REMARK VINA RESULT:      -7.5      2.754      4.781
REMARK  7 active torsions:
REMARK  status: ('A' for Active; 'I' for Inactive)
REMARK    1  A    between atoms: O1_2  and  C2_3 
REMARK    2  A    between atoms: C8_11  and  N3_12 
REMARK    3  A    between atoms: N3_12  and  C9_13 
REMARK    4  A    between atoms: C17_22  and  N4_23 
REMARK    5  A    between atoms: N4_23  and  C18_24 
REMARK    6  A    between atoms: C18_24  and  C19_25 
REMARK    7  A    between atoms: C19_25  and  C20_26 
ROOT
HETATM    1  C2  UNL     1      26.191  -0.331  53.748  1.00  0.00     0.096 A 
HETATM    2  C3  UNL     1      25.179  -0.884  54.495  1.00  0.00     0.071 A 
HETATM    3  C4  UNL     1      23.849  -0.767  54.207  1.00  0.00     0.071 A 
HETATM    4  N1  UNL     1      22.902  -1.332  54.976  1.00  0.00    -0.259 NA
HETATM    5  C5  UNL     1      21.588  -1.226  54.705  1.00  0.00     0.142 A 
HETATM    6  C6  UNL     1      21.203  -0.497  53.575  1.00  0.00     0.089 A 
HETATM    7  C7  UNL     1      19.813  -0.380  53.282  1.00  0.00     0.103 C 
HETATM    8  N2  UNL     1      18.689  -0.285  53.039  1.00  0.00    -0.191 NA
HETATM    9  C8  UNL     1      22.141   0.113  52.737  1.00  0.00     0.067 A 
HETATM   10  C15 UNL     1      23.488  -0.037  53.078  1.00  0.00     0.023 A 
HETATM   11  C16 UNL     1      24.468   0.545  52.285  1.00  0.00     0.048 A 
HETATM   12  C17 UNL     1      25.813   0.400  52.617  1.00  0.00     0.063 A 
ENDROOT
BRANCH   9  13
HETATM   13  N3  UNL     1      21.726   0.834  51.617  1.00  0.00    -0.354 N 
HETATM   14  H6  UNL     1      21.405   0.040  51.038  1.00  0.00     0.166 HD
BRANCH  13  15
HETATM   15  C9  UNL     1      21.685   2.204  51.230  1.00  0.00     0.034 A 
HETATM   16  C10 UNL     1      20.915   3.046  51.980  1.00  0.00     0.029 A 
HETATM   17  C11 UNL     1      20.894   4.368  51.582  1.00  0.00     0.004 A 
HETATM   18  C12 UNL     1      21.601   4.814  50.499  1.00  0.00     0.024 A 
HETATM   19  C13 UNL     1      22.361   3.919  49.778  1.00  0.00     0.036 A 
HETATM   20 CL1  UNL     1      23.225   4.597  48.412  1.00  0.00    -0.084 Cl
HETATM   21  C14 UNL     1      22.431   2.567  50.122  1.00  0.00     0.053 A 
ENDBRANCH  13  15
ENDBRANCH   9  13
BRANCH  12  22
HETATM   22  N4  UNL     1      26.787   1.026  51.759  1.00  0.00    -0.384 N 
HETATM   23  H12 UNL     1      27.467   0.371  51.277  1.00  0.00     0.160 HD
BRANCH  22  24
HETATM   24  C18 UNL     1      26.905   2.457  51.508  1.00  0.00     0.151 C 
BRANCH  24  25
HETATM   25  C19 UNL     1      26.322   2.795  50.187  1.00  0.00     0.051 C 
BRANCH  25  26
HETATM   26  C20 UNL     1      26.737   3.795  49.457  1.00  0.00     0.219 C 
HETATM   27  O2  UNL     1      27.365   4.618  48.757  1.00  0.00    -0.284 OA
ENDBRANCH  25  26
ENDBRANCH  24  25
ENDBRANCH  22  24
ENDBRANCH  12  22
BRANCH   1  28
HETATM   28  O1  UNL     1      27.542  -0.442  54.030  1.00  0.00    -0.354 OA
HETATM   29  C1  UNL     1      28.110   0.499  54.932  1.00  0.00     0.210 C 
ENDBRANCH   1  28
TORSDOF 7
ENDMDL
