MODEL 1
REMARK VINA RESULT:      -7.9      0.000      0.000
REMARK  4 active torsions:
REMARK  status: ('A' for Active; 'I' for Inactive)
REMARK    1  A    between atoms: C2_2  and  C3_3 
REMARK    2  A    between atoms: C14_15  and  N1_16 
REMARK    3  A    between atoms: N1_16  and  C15_17 
REMARK    4  A    between atoms: C15_17  and  C16_18 
ROOT
HETATM    1  C3  UNL     1      22.129  -0.024  52.479  1.00  0.00     0.105 C 
HETATM    2  C4  UNL     1      21.949   0.732  51.212  1.00  0.00     0.017 C 
HETATM    3  C5  UNL     1      21.811   1.883  50.566  1.00  0.00     0.010 C 
HETATM    4 CL1  UNL     1      21.605   2.229  48.828  1.00  0.00    -0.089 Cl
HETATM    5  C6  UNL     1      21.811   3.231  51.198  1.00  0.00     0.055 C 
HETATM    6  C7  UNL     1      22.923   4.099  50.634  1.00  0.00     0.044 C 
HETATM    7  C8  UNL     1      24.255   3.503  50.845  1.00  0.00    -0.057 A 
HETATM    8  C9  UNL     1      25.133   3.487  49.782  1.00  0.00     0.007 A 
HETATM    9  C10 UNL     1      26.397   2.946  49.895  1.00  0.00     0.001 A 
HETATM   10  C11 UNL     1      26.670   2.434  51.172  1.00  0.00     0.013 A 
HETATM   11  C12 UNL     1      25.804   2.431  52.277  1.00  0.00    -0.013 A 
HETATM   12  C13 UNL     1      24.567   2.994  52.061  1.00  0.00     0.020 A 
HETATM   13  C14 UNL     1      26.413   1.808  53.459  1.00  0.00     0.024 C 
HETATM   14  C17 UNL     1      25.535   0.829  53.547  1.00  0.00     0.073 C 
HETATM   15  C18 UNL     1      25.314  -0.334  54.442  1.00  0.00     0.002 C 
HETATM   16  C19 UNL     1      24.206  -0.826  53.854  1.00  0.00     0.080 C 
HETATM   17  N2  UNL     1      23.565  -0.263  52.718  1.00  0.00    -0.391 N 
HETATM   18  H23 UNL     1      24.354  -0.060  52.069  1.00  0.00     0.159 HD
ENDROOT
BRANCH  13  19
HETATM   19  N1  UNL     1      27.575   2.602  53.818  1.00  0.00    -0.386 N 
HETATM   20  H16 UNL     1      27.423   3.604  54.053  1.00  0.00     0.159 HD
BRANCH  19  21
HETATM   21  C15 UNL     1      28.850   1.911  53.823  1.00  0.00     0.188 C 
BRANCH  21  22
HETATM   22  C16 UNL     1      28.844   0.774  54.771  1.00  0.00     0.250 C 
HETATM   23  O1  UNL     1      29.179  -0.256  54.204  1.00  0.00    -0.305 OA
ENDBRANCH  21  22
ENDBRANCH  19  21
ENDBRANCH  13  19
BRANCH   1  24
HETATM   24  C2  UNL     1      21.651   0.755  53.701  1.00  0.00     0.024 C 
HETATM   25  C1  UNL     1      20.742  -0.057  54.563  1.00  0.00     0.007 C 
ENDBRANCH   1  24
TORSDOF 4
ENDMDL
MODEL 2
REMARK VINA RESULT:      -7.7      2.046      4.341
REMARK  4 active torsions:
REMARK  status: ('A' for Active; 'I' for Inactive)
REMARK    1  A    between atoms: C2_2  and  C3_3 
REMARK    2  A    between atoms: C14_15  and  N1_16 
REMARK    3  A    between atoms: N1_16  and  C15_17 
REMARK    4  A    between atoms: C15_17  and  C16_18 
ROOT
HETATM    1  C3  UNL     1      23.177   2.764  51.524  1.00  0.00     0.105 C 
HETATM    2  C4  UNL     1      22.144   2.219  52.444  1.00  0.00     0.017 C 
HETATM    3  C5  UNL     1      21.357   1.223  52.834  1.00  0.00     0.010 C 
HETATM    4 CL1  UNL     1      20.176   1.123  54.166  1.00  0.00    -0.089 Cl
HETATM    5  C6  UNL     1      21.296  -0.124  52.203  1.00  0.00     0.055 C 
HETATM    6  C7  UNL     1      21.632  -1.212  53.208  1.00  0.00     0.044 C 
HETATM    7  C8  UNL     1      22.981  -1.044  53.780  1.00  0.00    -0.057 A 
HETATM    8  C9  UNL     1      23.126  -1.175  55.145  1.00  0.00     0.007 A 
HETATM    9  C10 UNL     1      24.352  -1.030  55.759  1.00  0.00     0.001 A 
HETATM   10  C11 UNL     1      25.392  -0.745  54.863  1.00  0.00     0.013 A 
HETATM   11  C12 UNL     1      25.285  -0.603  53.471  1.00  0.00    -0.013 A 
HETATM   12  C13 UNL     1      24.019  -0.767  52.956  1.00  0.00     0.020 A 
HETATM   13  C14 UNL     1      26.576  -0.299  52.841  1.00  0.00     0.024 C 
HETATM   14  C17 UNL     1      26.208   0.876  52.370  1.00  0.00     0.073 C 
HETATM   15  C18 UNL     1      26.844   1.961  51.581  1.00  0.00     0.002 C 
HETATM   16  C19 UNL     1      25.793   2.802  51.524  1.00  0.00     0.080 C 
HETATM   17  N2  UNL     1      24.518   2.560  52.103  1.00  0.00    -0.391 N 
HETATM   18  H23 UNL     1      24.747   2.205  53.055  1.00  0.00     0.159 HD
ENDROOT
BRANCH  13  19
HETATM   19  N1  UNL     1      27.460  -1.422  53.099  1.00  0.00    -0.386 N 
HETATM   20  H16 UNL     1      27.045  -2.376  53.093  1.00  0.00     0.159 HD
BRANCH  19  21
HETATM   21  C15 UNL     1      28.855  -1.103  53.331  1.00  0.00     0.188 C 
BRANCH  21  22
HETATM   22  C16 UNL     1      29.013  -0.160  54.461  1.00  0.00     0.250 C 
HETATM   23  O1  UNL     1      29.543   0.875  54.083  1.00  0.00    -0.305 OA
ENDBRANCH  21  22
ENDBRANCH  19  21
ENDBRANCH  13  19
BRANCH   1  24
HETATM   24  C2  UNL     1      23.212   2.037  50.183  1.00  0.00     0.024 C 
HETATM   25  C1  UNL     1      22.905   2.951  49.042  1.00  0.00     0.007 C 
ENDBRANCH   1  24
TORSDOF 4
ENDMDL
MODEL 3
REMARK VINA RESULT:      -7.3      2.288      4.784
REMARK  4 active torsions:
REMARK  status: ('A' for Active; 'I' for Inactive)
REMARK    1  A    between atoms: C2_2  and  C3_3 
REMARK    2  A    between atoms: C14_15  and  N1_16 
REMARK    3  A    between atoms: N1_16  and  C15_17 
REMARK    4  A    between atoms: C15_17  and  C16_18 
ROOT
HETATM    1  C3  UNL     1      21.504   4.428  51.297  1.00  0.00     0.105 C 
HETATM    2  C4  UNL     1      20.150   3.825  51.400  1.00  0.00     0.017 C 
HETATM    3  C5  UNL     1      19.274   2.891  51.048  1.00  0.00     0.010 C 
HETATM    4 CL1  UNL     1      17.584   2.627  51.553  1.00  0.00    -0.089 Cl
HETATM    5  C6  UNL     1      19.538   1.777  50.096  1.00  0.00     0.055 C 
HETATM    6  C7  UNL     1      19.325   0.429  50.762  1.00  0.00     0.044 C 
HETATM    7  C8  UNL     1      20.205   0.240  51.931  1.00  0.00    -0.057 A 
HETATM    8  C9  UNL     1      19.647  -0.259  53.089  1.00  0.00     0.007 A 
HETATM    9  C10 UNL     1      20.400  -0.462  54.226  1.00  0.00     0.001 A 
HETATM   10  C11 UNL     1      21.749  -0.113  54.069  1.00  0.00     0.013 A 
HETATM   11  C12 UNL     1      22.354   0.397  52.910  1.00  0.00    -0.013 A 
HETATM   12  C13 UNL     1      21.516   0.563  51.829  1.00  0.00     0.020 A 
HETATM   13  C14 UNL     1      23.787   0.658  53.098  1.00  0.00     0.024 C 
HETATM   14  C17 UNL     1      23.704   1.956  52.883  1.00  0.00     0.073 C 
HETATM   15  C18 UNL     1      24.649   3.101  52.859  1.00  0.00     0.002 C 
HETATM   16  C19 UNL     1      23.768   4.075  52.560  1.00  0.00     0.080 C 
HETATM   17  N2  UNL     1      22.375   3.884  52.356  1.00  0.00    -0.391 N 
HETATM   18  H23 UNL     1      22.095   3.266  53.146  1.00  0.00     0.159 HD
ENDROOT
BRANCH  13  19
HETATM   19  N1  UNL     1      24.423  -0.612  53.399  1.00  0.00    -0.386 N 
HETATM   20  H16 UNL     1      23.810  -1.445  53.514  1.00  0.00     0.159 HD
BRANCH  19  21
HETATM   21  C15 UNL     1      25.869  -0.599  53.501  1.00  0.00     0.188 C 
BRANCH  21  22
HETATM   22  C16 UNL     1      26.318   0.098  54.727  1.00  0.00     0.250 C 
HETATM   23  O1  UNL     1      27.402  -0.335  55.091  1.00  0.00    -0.305 OA
ENDBRANCH  21  22
ENDBRANCH  19  21
ENDBRANCH  13  19
BRANCH   1  24
HETATM   24  C2  UNL     1      22.206   4.076  49.989  1.00  0.00     0.024 C 
HETATM   25  C1  UNL     1      22.577   5.293  49.207  1.00  0.00     0.007 C 
ENDBRANCH   1  24
TORSDOF 4
ENDMDL
MODEL 4
REMARK VINA RESULT:      -7.1      2.875      4.825
REMARK  4 active torsions:
REMARK  status: ('A' for Active; 'I' for Inactive)
REMARK    1  A    between atoms: C2_2  and  C3_3 
REMARK    2  A    between atoms: C14_15  and  N1_16 
REMARK    3  A    between atoms: N1_16  and  C15_17 
REMARK    4  A    between atoms: C15_17  and  C16_18 
ROOT
HETATM    1  C3  UNL     1      20.166   1.951  52.608  1.00  0.00     0.105 C 
HETATM    2  C4  UNL     1      20.812   1.022  53.572  1.00  0.00     0.017 C 
HETATM    3  C5  UNL     1      21.571  -0.039  53.818  1.00  0.00     0.010 C 
HETATM    4 CL1  UNL     1      22.070  -0.784  55.360  1.00  0.00    -0.089 Cl
HETATM    5  C6  UNL     1      22.225  -0.889  52.785  1.00  0.00     0.055 C 
HETATM    6  C7  UNL     1      23.732  -0.909  52.969  1.00  0.00     0.044 C 
HETATM    7  C8  UNL     1      24.322   0.440  52.881  1.00  0.00    -0.057 A 
HETATM    8  C9  UNL     1      25.246   0.807  53.836  1.00  0.00     0.007 A 
HETATM    9  C10 UNL     1      25.842   2.050  53.826  1.00  0.00     0.001 A 
HETATM   10  C11 UNL     1      25.411   2.865  52.769  1.00  0.00     0.013 A 
HETATM   11  C12 UNL     1      24.473   2.529  51.780  1.00  0.00    -0.013 A 
HETATM   12  C13 UNL     1      23.937   1.265  51.878  1.00  0.00     0.020 A 
HETATM   13  C14 UNL     1      24.253   3.625  50.827  1.00  0.00     0.024 C 
HETATM   14  C17 UNL     1      22.976   3.780  51.114  1.00  0.00     0.073 C 
HETATM   15  C18 UNL     1      21.875   4.667  50.659  1.00  0.00     0.002 C 
HETATM   16  C19 UNL     1      20.893   4.178  51.441  1.00  0.00     0.080 C 
HETATM   17  N2  UNL     1      21.043   3.114  52.372  1.00  0.00    -0.391 N 
HETATM   18  H23 UNL     1      21.926   3.349  52.871  1.00  0.00     0.159 HD
ENDROOT
BRANCH  13  19
HETATM   19  N1  UNL     1      25.517   3.882  50.161  1.00  0.00    -0.386 N 
HETATM   20  H16 UNL     1      26.230   3.125  50.169  1.00  0.00     0.159 HD
BRANCH  19  21
HETATM   21  C15 UNL     1      25.660   5.180  49.531  1.00  0.00     0.188 C 
BRANCH  21  22
HETATM   22  C16 UNL     1      26.933   5.279  48.783  1.00  0.00     0.250 C 
HETATM   23  O1  UNL     1      27.576   4.245  48.893  1.00  0.00    -0.305 OA
ENDBRANCH  21  22
ENDBRANCH  19  21
ENDBRANCH  13  19
BRANCH   1  24
HETATM   24  C2  UNL     1      19.964   1.324  51.232  1.00  0.00     0.024 C 
HETATM   25  C1  UNL     1      18.893   0.284  51.242  1.00  0.00     0.007 C 
ENDBRANCH   1  24
TORSDOF 4
ENDMDL
MODEL 5
REMARK VINA RESULT:      -6.9      3.767      6.371
REMARK  4 active torsions:
REMARK  status: ('A' for Active; 'I' for Inactive)
REMARK    1  A    between atoms: C2_2  and  C3_3 
REMARK    2  A    between atoms: C14_15  and  N1_16 
REMARK    3  A    between atoms: N1_16  and  C15_17 
REMARK    4  A    between atoms: C15_17  and  C16_18 
ROOT
HETATM    1  C3  UNL     1      22.553   2.920  49.050  1.00  0.00     0.105 C 
HETATM    2  C4  UNL     1      23.915   2.848  49.640  1.00  0.00     0.017 C 
HETATM    3  C5  UNL     1      24.761   3.123  50.626  1.00  0.00     0.010 C 
HETATM    4 CL1  UNL     1      26.493   2.744  50.817  1.00  0.00    -0.089 Cl
HETATM    5  C6  UNL     1      24.416   3.850  51.879  1.00  0.00     0.055 C 
HETATM    6  C7  UNL     1      24.701   2.994  53.101  1.00  0.00     0.044 C 
HETATM    7  C8  UNL     1      23.937   1.733  53.088  1.00  0.00    -0.057 A 
HETATM    8  C9  UNL     1      24.607   0.567  53.394  1.00  0.00     0.007 A 
HETATM    9  C10 UNL     1      23.967  -0.654  53.402  1.00  0.00     0.001 A 
HETATM   10  C11 UNL     1      22.606  -0.571  53.072  1.00  0.00     0.013 A 
HETATM   11  C12 UNL     1      21.890   0.593  52.754  1.00  0.00    -0.013 A 
HETATM   12  C13 UNL     1      22.620   1.761  52.776  1.00  0.00     0.020 A 
HETATM   13  C14 UNL     1      20.480   0.315  52.455  1.00  0.00     0.024 C 
HETATM   14  C17 UNL     1      20.532   0.747  51.210  1.00  0.00     0.073 C 
HETATM   15  C18 UNL     1      19.581   0.869  50.077  1.00  0.00     0.002 C 
HETATM   16  C19 UNL     1      20.422   1.406  49.172  1.00  0.00     0.080 C 
HETATM   17  N2  UNL     1      21.791   1.708  49.406  1.00  0.00    -0.391 N 
HETATM   18  H23 UNL     1      22.148   0.857  49.888  1.00  0.00     0.159 HD
ENDROOT
BRANCH  13  19
HETATM   19  N1  UNL     1      19.884  -0.250  53.653  1.00  0.00    -0.386 N 
HETATM   20  H16 UNL     1      20.131   0.184  54.566  1.00  0.00     0.159 HD
BRANCH  19  21
HETATM   21  C15 UNL     1      18.985  -1.369  53.458  1.00  0.00     0.188 C 
BRANCH  21  22
HETATM   22  C16 UNL     1      17.775  -0.966  52.707  1.00  0.00     0.250 C 
HETATM   23  O1  UNL     1      16.812  -0.892  53.458  1.00  0.00    -0.305 OA
ENDBRANCH  21  22
ENDBRANCH  19  21
ENDBRANCH  13  19
BRANCH   1  24
HETATM   24  C2  UNL     1      21.732   4.079  49.607  1.00  0.00     0.024 C 
HETATM   25  C1  UNL     1      21.219   4.972  48.525  1.00  0.00     0.007 C 
ENDBRANCH   1  24
TORSDOF 4
ENDMDL
MODEL 6
REMARK VINA RESULT:      -6.8      3.330      5.734
REMARK  4 active torsions:
REMARK  status: ('A' for Active; 'I' for Inactive)
REMARK    1  A    between atoms: C2_2  and  C3_3 
REMARK    2  A    between atoms: C14_15  and  N1_16 
REMARK    3  A    between atoms: N1_16  and  C15_17 
REMARK    4  A    between atoms: C15_17  and  C16_18 
ROOT
HETATM    1  C3  UNL     1      25.706  -0.766  54.126  1.00  0.00     0.105 C 
HETATM    2  C4  UNL     1      26.513   0.455  53.868  1.00  0.00     0.017 C 
HETATM    3  C5  UNL     1      27.076   1.307  53.020  1.00  0.00     0.010 C 
HETATM    4 CL1  UNL     1      28.047   2.775  53.312  1.00  0.00    -0.089 Cl
HETATM    5  C6  UNL     1      27.002   1.220  51.535  1.00  0.00     0.055 C 
HETATM    6  C7  UNL     1      26.373   2.471  50.946  1.00  0.00     0.044 C 
HETATM    7  C8  UNL     1      25.006   2.697  51.452  1.00  0.00    -0.057 A 
HETATM    8  C9  UNL     1      24.669   3.970  51.861  1.00  0.00     0.007 A 
HETATM    9  C10 UNL     1      23.414   4.264  52.349  1.00  0.00     0.001 A 
HETATM   10  C11 UNL     1      22.554   3.156  52.378  1.00  0.00     0.013 A 
HETATM   11  C12 UNL     1      22.859   1.848  51.972  1.00  0.00    -0.013 A 
HETATM   12  C13 UNL     1      24.139   1.658  51.500  1.00  0.00     0.020 A 
HETATM   13  C14 UNL     1      21.724   0.933  52.143  1.00  0.00     0.024 C 
HETATM   14  C17 UNL     1      22.330   0.147  53.010  1.00  0.00     0.073 C 
HETATM   15  C18 UNL     1      21.981  -1.077  53.775  1.00  0.00     0.002 C 
HETATM   16  C19 UNL     1      23.150  -1.243  54.423  1.00  0.00     0.080 C 
HETATM   17  N2  UNL     1      24.286  -0.400  54.290  1.00  0.00    -0.391 N 
HETATM   18  H23 UNL     1      23.885   0.559  54.346  1.00  0.00     0.159 HD
ENDROOT
BRANCH  13  19
HETATM   19  N1  UNL     1      20.647   1.413  51.295  1.00  0.00    -0.386 N 
HETATM   20  H16 UNL     1      20.892   1.729  50.335  1.00  0.00     0.159 HD
BRANCH  19  21
HETATM   21  C15 UNL     1      19.317   1.396  51.872  1.00  0.00     0.188 C 
BRANCH  21  22
HETATM   22  C16 UNL     1      18.568   2.628  51.540  1.00  0.00     0.250 C 
HETATM   23  O1  UNL     1      18.998   3.575  52.184  1.00  0.00    -0.305 OA
ENDBRANCH  21  22
ENDBRANCH  19  21
ENDBRANCH  13  19
BRANCH   1  24
HETATM   24  C2  UNL     1      25.727  -1.743  52.954  1.00  0.00     0.024 C 
HETATM   25  C1  UNL     1      27.106  -2.234  52.660  1.00  0.00     0.007 C 
ENDBRANCH   1  24
TORSDOF 4
ENDMDL
MODEL 7
REMARK VINA RESULT:      -6.7      2.262      4.681
REMARK  4 active torsions:
REMARK  status: ('A' for Active; 'I' for Inactive)
REMARK    1  A    between atoms: C2_2  and  C3_3 
REMARK    2  A    between atoms: C14_15  and  N1_16 
REMARK    3  A    between atoms: N1_16  and  C15_17 
REMARK    4  A    between atoms: C15_17  and  C16_18 
ROOT
HETATM    1  C3  UNL     1      22.994   5.349  50.615  1.00  0.00     0.105 C 
HETATM    2  C4  UNL     1      21.869   4.910  49.748  1.00  0.00     0.017 C 
HETATM    3  C5  UNL     1      21.397   4.143  48.772  1.00  0.00     0.010 C 
HETATM    4 CL1  UNL     1      19.764   4.029  48.065  1.00  0.00    -0.089 Cl
HETATM    5  C6  UNL     1      22.184   3.133  48.013  1.00  0.00     0.055 C 
HETATM    6  C7  UNL     1      21.576   1.748  48.154  1.00  0.00     0.044 C 
HETATM    7  C8  UNL     1      21.516   1.308  49.560  1.00  0.00    -0.057 A 
HETATM    8  C9  UNL     1      20.343   0.741  50.012  1.00  0.00     0.007 A 
HETATM    9  C10 UNL     1      20.205   0.305  51.313  1.00  0.00     0.001 A 
HETATM   10  C11 UNL     1      21.356   0.501  52.091  1.00  0.00     0.013 A 
HETATM   11  C12 UNL     1      22.565   1.074  51.669  1.00  0.00    -0.013 A 
HETATM   12  C13 UNL     1      22.602   1.476  50.352  1.00  0.00     0.020 A 
HETATM   13  C14 UNL     1      23.561   1.130  52.747  1.00  0.00     0.024 C 
HETATM   14  C17 UNL     1      23.654   2.444  52.758  1.00  0.00     0.073 C 
HETATM   15  C18 UNL     1      24.421   3.457  53.526  1.00  0.00     0.002 C 
HETATM   16  C19 UNL     1      23.944   4.563  52.923  1.00  0.00     0.080 C 
HETATM   17  N2  UNL     1      22.990   4.573  51.869  1.00  0.00    -0.391 N 
HETATM   18  H23 UNL     1      22.264   3.900  52.192  1.00  0.00     0.159 HD
ENDROOT
BRANCH  13  19
HETATM   19  N1  UNL     1      23.842  -0.237  53.149  1.00  0.00    -0.386 N 
HETATM   20  H16 UNL     1      23.033  -0.868  53.318  1.00  0.00     0.159 HD
BRANCH  19  21
HETATM   21  C15 UNL     1      25.241  -0.598  53.266  1.00  0.00     0.188 C 
BRANCH  21  22
HETATM   22  C16 UNL     1      25.862   0.022  54.457  1.00  0.00     0.250 C 
HETATM   23  O1  UNL     1      26.789  -0.665  54.862  1.00  0.00    -0.305 OA
ENDBRANCH  21  22
ENDBRANCH  19  21
ENDBRANCH  13  19
BRANCH   1  24
HETATM   24  C2  UNL     1      24.359   5.079  49.988  1.00  0.00     0.024 C 
HETATM   25  C1  UNL     1      25.231   6.292  50.001  1.00  0.00     0.007 C 
ENDBRANCH   1  24
TORSDOF 4
ENDMDL
MODEL 8
REMARK VINA RESULT:      -6.6      2.893      5.158
REMARK  4 active torsions:
REMARK  status: ('A' for Active; 'I' for Inactive)
REMARK    1  A    between atoms: C2_2  and  C3_3 
REMARK    2  A    between atoms: C14_15  and  N1_16 
REMARK    3  A    between atoms: N1_16  and  C15_17 
REMARK    4  A    between atoms: C15_17  and  C16_18 
ROOT
HETATM    1  C3  UNL     1      25.563  -0.120  53.197  1.00  0.00     0.105 C 
HETATM    2  C4  UNL     1      24.257  -0.827  53.251  1.00  0.00     0.017 C 
HETATM    3  C5  UNL     1      22.969  -0.848  53.576  1.00  0.00     0.010 C 
HETATM    4 CL1  UNL     1      21.738  -2.123  53.383  1.00  0.00    -0.089 Cl
HETATM    5  C6  UNL     1      22.222   0.276  54.206  1.00  0.00     0.055 C 
HETATM    6  C7  UNL     1      21.055   0.710  53.336  1.00  0.00     0.044 C 
HETATM    7  C8  UNL     1      21.492   1.154  51.999  1.00  0.00    -0.057 A 
HETATM    8  C9  UNL     1      20.797   0.688  50.903  1.00  0.00     0.007 A 
HETATM    9  C10 UNL     1      21.143   1.053  49.619  1.00  0.00     0.001 A 
HETATM   10  C11 UNL     1      22.244   1.921  49.565  1.00  0.00     0.013 A 
HETATM   11  C12 UNL     1      22.977   2.415  50.656  1.00  0.00    -0.013 A 
HETATM   12  C13 UNL     1      22.551   1.991  51.895  1.00  0.00     0.020 A 
HETATM   13  C14 UNL     1      24.072   3.298  50.236  1.00  0.00     0.024 C 
HETATM   14  C17 UNL     1      25.034   2.540  50.724  1.00  0.00     0.073 C 
HETATM   15  C18 UNL     1      26.516   2.597  50.788  1.00  0.00     0.002 C 
HETATM   16  C19 UNL     1      26.728   1.445  51.453  1.00  0.00     0.080 C 
HETATM   17  N2  UNL     1      25.711   0.556  51.894  1.00  0.00    -0.391 N 
HETATM   18  H23 UNL     1      25.081   0.478  51.068  1.00  0.00     0.159 HD
ENDROOT
BRANCH  13  19
HETATM   19  N1  UNL     1      23.477   4.436  49.559  1.00  0.00    -0.386 N 
HETATM   20  H16 UNL     1      23.500   4.446  48.519  1.00  0.00     0.159 HD
BRANCH  19  21
HETATM   21  C15 UNL     1      22.892   5.456  50.407  1.00  0.00     0.188 C 
BRANCH  21  22
HETATM   22  C16 UNL     1      23.850   5.918  51.435  1.00  0.00     0.250 C 
HETATM   23  O1  UNL     1      24.274   7.031  51.155  1.00  0.00    -0.305 OA
ENDBRANCH  21  22
ENDBRANCH  19  21
ENDBRANCH  13  19
BRANCH   1  24
HETATM   24  C2  UNL     1      25.672   0.994  54.233  1.00  0.00     0.024 C 
HETATM   25  C1  UNL     1      26.871   0.830  55.108  1.00  0.00     0.007 C 
ENDBRANCH   1  24
TORSDOF 4
ENDMDL
MODEL 9
REMARK VINA RESULT:      -6.2      4.682      6.920
REMARK  4 active torsions:
REMARK  status: ('A' for Active; 'I' for Inactive)
REMARK    1  A    between atoms: C2_2  and  C3_3 
REMARK    2  A    between atoms: C14_15  and  N1_16 
REMARK    3  A    between atoms: N1_16  and  C15_17 
REMARK    4  A    between atoms: C15_17  and  C16_18 
ROOT
HETATM    1  C3  UNL     1      20.399   2.262  51.675  1.00  0.00     0.105 C 
HETATM    2  C4  UNL     1      21.693   2.692  52.266  1.00  0.00     0.017 C 
HETATM    3  C5  UNL     1      23.012   2.574  52.364  1.00  0.00     0.010 C 
HETATM    4 CL1  UNL     1      24.193   3.467  53.358  1.00  0.00    -0.089 Cl
HETATM    5  C6  UNL     1      23.849   1.608  51.600  1.00  0.00     0.055 C 
HETATM    6  C7  UNL     1      24.894   2.331  50.767  1.00  0.00     0.044 C 
HETATM    7  C8  UNL     1      24.286   3.264  49.800  1.00  0.00    -0.057 A 
HETATM    8  C9  UNL     1      24.823   4.530  49.696  1.00  0.00     0.007 A 
HETATM    9  C10 UNL     1      24.312   5.462  48.817  1.00  0.00     0.001 A 
HETATM   10  C11 UNL     1      23.223   4.985  48.072  1.00  0.00     0.013 A 
HETATM   11  C12 UNL     1      22.649   3.707  48.150  1.00  0.00    -0.013 A 
HETATM   12  C13 UNL     1      23.232   2.851  49.057  1.00  0.00     0.020 A 
HETATM   13  C14 UNL     1      21.517   3.549  47.229  1.00  0.00     0.024 C 
HETATM   14  C17 UNL     1      20.621   3.334  48.172  1.00  0.00     0.073 C 
HETATM   15  C18 UNL     1      19.162   3.067  48.223  1.00  0.00     0.002 C 
HETATM   16  C19 UNL     1      19.028   2.965  49.560  1.00  0.00     0.080 C 
HETATM   17  N2  UNL     1      20.086   3.097  50.500  1.00  0.00    -0.391 N 
HETATM   18  H23 UNL     1      20.598   3.942  50.172  1.00  0.00     0.159 HD
ENDROOT
BRANCH  13  19
HETATM   19  N1  UNL     1      22.028   3.716  45.880  1.00  0.00    -0.386 N 
HETATM   20  H16 UNL     1      22.907   3.219  45.630  1.00  0.00     0.159 HD
BRANCH  19  21
HETATM   21  C15 UNL     1      21.249   4.561  44.997  1.00  0.00     0.188 C 
BRANCH  21  22
HETATM   22  C16 UNL     1      20.227   3.781  44.264  1.00  0.00     0.250 C 
HETATM   23  O1  UNL     1      20.663   3.419  43.180  1.00  0.00    -0.305 OA
ENDBRANCH  21  22
ENDBRANCH  19  21
ENDBRANCH  13  19
BRANCH   1  24
HETATM   24  C2  UNL     1      20.442   0.833  51.142  1.00  0.00     0.024 C 
HETATM   25  C1  UNL     1      19.363  -0.016  51.729  1.00  0.00     0.007 C 
ENDBRANCH   1  24
TORSDOF 4
ENDMDL
