MODEL 1
REMARK VINA RESULT:      -8.6      0.000      0.000
REMARK  4 active torsions:
REMARK  status: ('A' for Active; 'I' for Inactive)
REMARK    1  A    between atoms: O1_1  and  C1_2 
REMARK    2  A    between atoms: C4_5  and  C5_6 
REMARK    3  A    between atoms: N2_13  and  C11_14 
REMARK    4  A    between atoms: C11_14  and  C12_15 
ROOT
HETATM    1  C5  UNL     1      21.661   0.005  52.976  1.00  0.00     0.039 C 
HETATM    2  C6  UNL     1      22.448  -0.819  53.628  1.00  0.00     0.032 C 
HETATM    3  C7  UNL     1      23.878  -0.615  53.946  1.00  0.00     0.031 C 
HETATM    4  C8  UNL     1      24.414   0.484  53.500  1.00  0.00     0.058 A 
HETATM    5  C9  UNL     1      23.595   1.394  52.695  1.00  0.00     0.176 A 
HETATM    6  C10 UNL     1      24.366   2.612  52.570  1.00  0.00     0.143 A 
HETATM    7  N1  UNL     1      25.527   2.453  53.135  1.00  0.00    -0.186 NA
HETATM    8  N2  UNL     1      25.640   1.174  53.707  1.00  0.00    -0.271 N 
HETATM    9  N3  UNL     1      22.208   1.339  52.750  1.00  0.00    -0.374 N 
HETATM   10  H14 UNL     1      21.628   2.198  52.633  1.00  0.00     0.160 HD
ENDROOT
BRANCH   1  11
HETATM   11  C4  UNL     1      20.265  -0.205  52.647  1.00  0.00    -0.010 A 
HETATM   12  C3  UNL     1      19.441  -0.935  53.442  1.00  0.00     0.016 A 
HETATM   13  C2  UNL     1      18.107  -1.156  53.159  1.00  0.00     0.037 A 
HETATM   14  C1  UNL     1      17.532  -0.632  52.026  1.00  0.00     0.065 A 
HETATM   15  C18 UNL     1      18.357   0.111  51.208  1.00  0.00     0.037 A 
HETATM   16  C17 UNL     1      19.685   0.310  51.523  1.00  0.00     0.016 A 
BRANCH  14  17
HETATM   17  O1  UNL     1      16.203  -0.845  51.733  1.00  0.00    -0.361 OA
HETATM   18  H1  UNL     1      15.657  -0.128  51.276  1.00  0.00     0.217 HD
ENDBRANCH  14  17
ENDBRANCH   1  11
BRANCH   8  19
HETATM   19  C11 UNL     1      26.777   0.592  54.400  1.00  0.00     0.163 C 
BRANCH  19  20
HETATM   20  C12 UNL     1      27.812   0.246  53.342  1.00  0.00     0.054 A 
HETATM   21  C13 UNL     1      27.654  -1.174  52.894  1.00  0.00    -0.013 A 
HETATM   22  C14 UNL     1      28.764  -1.842  53.171  1.00  0.00     0.038 A 
HETATM   23  C15 UNL     1      29.724  -0.929  53.814  1.00  0.00     0.113 A 
HETATM   24  F1  UNL     1      30.911  -1.487  54.152  1.00  0.00    -0.206 F 
HETATM   25  C16 UNL     1      29.181   0.272  53.914  1.00  0.00     0.025 A 
ENDBRANCH  19  20
ENDBRANCH   8  19
TORSDOF 4
ENDMDL
MODEL 2
REMARK VINA RESULT:      -8.1      4.639      8.839
REMARK  4 active torsions:
REMARK  status: ('A' for Active; 'I' for Inactive)
REMARK    1  A    between atoms: O1_1  and  C1_2 
REMARK    2  A    between atoms: C4_5  and  C5_6 
REMARK    3  A    between atoms: N2_13  and  C11_14 
REMARK    4  A    between atoms: C11_14  and  C12_15 
ROOT
HETATM    1  C5  UNL     1      25.221   0.209  53.422  1.00  0.00     0.039 C 
HETATM    2  C6  UNL     1      24.432   0.982  52.712  1.00  0.00     0.032 C 
HETATM    3  C7  UNL     1      22.954   0.951  52.682  1.00  0.00     0.031 C 
HETATM    4  C8  UNL     1      22.384   0.037  53.412  1.00  0.00     0.058 A 
HETATM    5  C9  UNL     1      23.227  -0.901  54.156  1.00  0.00     0.176 A 
HETATM    6  C10 UNL     1      22.336  -1.609  55.051  1.00  0.00     0.143 A 
HETATM    7  N1  UNL     1      21.111  -1.231  54.834  1.00  0.00    -0.186 NA
HETATM    8  N2  UNL     1      21.055  -0.245  53.834  1.00  0.00    -0.271 N 
HETATM    9  N3  UNL     1      24.552  -0.596  54.439  1.00  0.00    -0.374 N 
HETATM   10  H14 UNL     1      25.009  -0.930  55.316  1.00  0.00     0.160 HD
ENDROOT
BRANCH   1  11
HETATM   11  C4  UNL     1      26.671   0.226  53.435  1.00  0.00    -0.010 A 
HETATM   12  C3  UNL     1      27.375   1.365  53.661  1.00  0.00     0.016 A 
HETATM   13  C2  UNL     1      28.754   1.418  53.680  1.00  0.00     0.037 A 
HETATM   14  C1  UNL     1      29.505   0.287  53.466  1.00  0.00     0.065 A 
HETATM   15  C18 UNL     1      28.804  -0.878  53.234  1.00  0.00     0.037 A 
HETATM   16  C17 UNL     1      27.425  -0.893  53.222  1.00  0.00     0.016 A 
BRANCH  14  17
HETATM   17  O1  UNL     1      30.882   0.326  53.483  1.00  0.00    -0.361 OA
HETATM   18  H1  UNL     1      31.420  -0.230  52.833  1.00  0.00     0.217 HD
ENDBRANCH  14  17
ENDBRANCH   1  11
BRANCH   8  19
HETATM   19  C11 UNL     1      19.884   0.414  53.280  1.00  0.00     0.163 C 
BRANCH  19  20
HETATM   20  C12 UNL     1      19.151  -0.618  52.439  1.00  0.00     0.054 A 
HETATM   21  C13 UNL     1      18.497   0.032  51.258  1.00  0.00    -0.013 A 
HETATM   22  C14 UNL     1      17.187  -0.152  51.333  1.00  0.00     0.038 A 
HETATM   23  C15 UNL     1      16.881  -0.924  52.549  1.00  0.00     0.113 A 
HETATM   24  F1  UNL     1      15.567  -1.184  52.749  1.00  0.00    -0.206 F 
HETATM   25  C16 UNL     1      18.007  -1.193  53.188  1.00  0.00     0.025 A 
ENDBRANCH  19  20
ENDBRANCH   8  19
TORSDOF 4
ENDMDL
MODEL 3
REMARK VINA RESULT:      -8.0      4.324      8.326
REMARK  4 active torsions:
REMARK  status: ('A' for Active; 'I' for Inactive)
REMARK    1  A    between atoms: O1_1  and  C1_2 
REMARK    2  A    between atoms: C4_5  and  C5_6 
REMARK    3  A    between atoms: N2_13  and  C11_14 
REMARK    4  A    between atoms: C11_14  and  C12_15 
ROOT
HETATM    1  C5  UNL     1      25.159   0.295  53.148  1.00  0.00     0.039 C 
HETATM    2  C6  UNL     1      24.094  -0.145  53.777  1.00  0.00     0.032 C 
HETATM    3  C7  UNL     1      22.696   0.287  53.563  1.00  0.00     0.031 C 
HETATM    4  C8  UNL     1      22.514   1.226  52.682  1.00  0.00     0.058 A 
HETATM    5  C9  UNL     1      23.682   1.806  52.015  1.00  0.00     0.176 A 
HETATM    6  C10 UNL     1      23.159   2.615  50.935  1.00  0.00     0.143 A 
HETATM    7  N1  UNL     1      21.859   2.611  50.978  1.00  0.00    -0.186 NA
HETATM    8  N2  UNL     1      21.390   1.803  52.029  1.00  0.00    -0.271 N 
HETATM    9  N3  UNL     1      24.891   1.123  51.977  1.00  0.00    -0.374 N 
HETATM   10  H14 UNL     1      25.538   1.213  51.163  1.00  0.00     0.160 HD
ENDROOT
BRANCH   1  11
HETATM   11  C4  UNL     1      26.532  -0.114  53.373  1.00  0.00    -0.010 A 
HETATM   12  C3  UNL     1      27.063  -1.209  52.771  1.00  0.00     0.016 A 
HETATM   13  C2  UNL     1      28.365  -1.627  52.962  1.00  0.00     0.037 A 
HETATM   14  C1  UNL     1      29.211  -0.936  53.795  1.00  0.00     0.065 A 
HETATM   15  C18 UNL     1      28.686   0.178  54.415  1.00  0.00     0.037 A 
HETATM   16  C17 UNL     1      27.380   0.566  54.200  1.00  0.00     0.016 A 
BRANCH  14  17
HETATM   17  O1  UNL     1      30.513  -1.343  53.995  1.00  0.00    -0.361 OA
HETATM   18  H1  UNL     1      31.109  -0.857  54.650  1.00  0.00     0.217 HD
ENDBRANCH  14  17
ENDBRANCH   1  11
BRANCH   8  19
HETATM   19  C11 UNL     1      20.017   1.557  52.433  1.00  0.00     0.163 C 
BRANCH  19  20
HETATM   20  C12 UNL     1      19.622   0.204  51.864  1.00  0.00     0.054 A 
HETATM   21  C13 UNL     1      18.418   0.334  50.981  1.00  0.00    -0.013 A 
HETATM   22  C14 UNL     1      17.432  -0.394  51.485  1.00  0.00     0.038 A 
HETATM   23  C15 UNL     1      17.901  -1.048  52.718  1.00  0.00     0.113 A 
HETATM   24  F1  UNL     1      16.985  -1.829  53.339  1.00  0.00    -0.206 F 
HETATM   25  C16 UNL     1      19.159  -0.707  52.940  1.00  0.00     0.025 A 
ENDBRANCH  19  20
ENDBRANCH   8  19
TORSDOF 4
ENDMDL
MODEL 4
REMARK VINA RESULT:      -7.9      5.515      8.527
REMARK  4 active torsions:
REMARK  status: ('A' for Active; 'I' for Inactive)
REMARK    1  A    between atoms: O1_1  and  C1_2 
REMARK    2  A    between atoms: C4_5  and  C5_6 
REMARK    3  A    between atoms: N2_13  and  C11_14 
REMARK    4  A    between atoms: C11_14  and  C12_15 
ROOT
HETATM    1  C5  UNL     1      25.324   4.551  49.747  1.00  0.00     0.039 C 
HETATM    2  C6  UNL     1      25.110   3.256  49.704  1.00  0.00     0.032 C 
HETATM    3  C7  UNL     1      24.020   2.516  50.375  1.00  0.00     0.031 C 
HETATM    4  C8  UNL     1      23.215   3.223  51.112  1.00  0.00     0.058 A 
HETATM    5  C9  UNL     1      23.465   4.658  51.257  1.00  0.00     0.176 A 
HETATM    6  C10 UNL     1      22.289   5.202  51.902  1.00  0.00     0.143 A 
HETATM    7  N1  UNL     1      21.468   4.237  52.194  1.00  0.00    -0.186 NA
HETATM    8  N2  UNL     1      21.971   2.996  51.764  1.00  0.00    -0.271 N 
HETATM    9  N3  UNL     1      24.246   5.341  50.333  1.00  0.00    -0.374 N 
HETATM   10  H14 UNL     1      24.055   6.339  50.095  1.00  0.00     0.160 HD
ENDROOT
BRANCH   1  11
HETATM   11  C4  UNL     1      26.405   5.275  49.105  1.00  0.00    -0.010 A 
HETATM   12  C3  UNL     1      26.297   6.589  48.781  1.00  0.00     0.016 A 
HETATM   13  C2  UNL     1      27.304   7.308  48.169  1.00  0.00     0.037 A 
HETATM   14  C1  UNL     1      28.500   6.712  47.849  1.00  0.00     0.065 A 
HETATM   15  C18 UNL     1      28.624   5.377  48.171  1.00  0.00     0.037 A 
HETATM   16  C17 UNL     1      27.596   4.690  48.782  1.00  0.00     0.016 A 
BRANCH  14  17
HETATM   17  O1  UNL     1      29.513   7.419  47.238  1.00  0.00    -0.361 OA
HETATM   18  H1  UNL     1      30.450   7.041  47.196  1.00  0.00     0.217 HD
ENDBRANCH  14  17
ENDBRANCH   1  11
BRANCH   8  19
HETATM   19  C11 UNL     1      21.380   1.678  51.923  1.00  0.00     0.163 C 
BRANCH  19  20
HETATM   20  C12 UNL     1      21.911   1.108  53.227  1.00  0.00     0.054 A 
HETATM   21  C13 UNL     1      22.932   0.045  52.961  1.00  0.00    -0.013 A 
HETATM   22  C14 UNL     1      22.504  -1.103  53.466  1.00  0.00     0.038 A 
HETATM   23  C15 UNL     1      21.188  -0.889  54.094  1.00  0.00     0.113 A 
HETATM   24  F1  UNL     1      20.633  -1.990  54.654  1.00  0.00    -0.206 F 
HETATM   25  C16 UNL     1      20.844   0.381  53.958  1.00  0.00     0.025 A 
ENDBRANCH  19  20
ENDBRANCH   8  19
TORSDOF 4
ENDMDL
MODEL 5
REMARK VINA RESULT:      -7.7      7.973      9.793
REMARK  4 active torsions:
REMARK  status: ('A' for Active; 'I' for Inactive)
REMARK    1  A    between atoms: O1_1  and  C1_2 
REMARK    2  A    between atoms: C4_5  and  C5_6 
REMARK    3  A    between atoms: N2_13  and  C11_14 
REMARK    4  A    between atoms: C11_14  and  C12_15 
ROOT
HETATM    1  C5  UNL     1      27.727   5.817  48.680  1.00  0.00     0.039 C 
HETATM    2  C6  UNL     1      28.792   5.247  48.168  1.00  0.00     0.032 C 
HETATM    3  C7  UNL     1      30.069   5.906  47.818  1.00  0.00     0.031 C 
HETATM    4  C8  UNL     1      30.122   7.192  48.009  1.00  0.00     0.058 A 
HETATM    5  C9  UNL     1      28.929   7.884  48.501  1.00  0.00     0.176 A 
HETATM    6  C10 UNL     1      29.363   9.219  48.852  1.00  0.00     0.143 A 
HETATM    7  N1  UNL     1      30.617   9.365  48.541  1.00  0.00    -0.186 NA
HETATM    8  N2  UNL     1      31.146   8.179  48.003  1.00  0.00    -0.271 N 
HETATM    9  N3  UNL     1      27.919   7.185  49.151  1.00  0.00    -0.374 N 
HETATM   10  H14 UNL     1      27.357   7.628  49.910  1.00  0.00     0.160 HD
ENDROOT
BRANCH   1  11
HETATM   11  C4  UNL     1      26.468   5.174  49.004  1.00  0.00    -0.010 A 
HETATM   12  C3  UNL     1      25.276   5.808  48.853  1.00  0.00     0.016 A 
HETATM   13  C2  UNL     1      24.060   5.227  49.152  1.00  0.00     0.037 A 
HETATM   14  C1  UNL     1      23.993   3.941  49.631  1.00  0.00     0.065 A 
HETATM   15  C18 UNL     1      25.196   3.283  49.790  1.00  0.00     0.037 A 
HETATM   16  C17 UNL     1      26.392   3.897  49.481  1.00  0.00     0.016 A 
BRANCH  14  17
HETATM   17  O1  UNL     1      22.786   3.349  49.932  1.00  0.00    -0.361 OA
HETATM   18  H1  UNL     1      21.985   3.913  50.178  1.00  0.00     0.217 HD
ENDBRANCH  14  17
ENDBRANCH   1  11
BRANCH   8  19
HETATM   19  C11 UNL     1      32.490   7.934  47.507  1.00  0.00     0.163 C 
BRANCH  19  20
HETATM   20  C12 UNL     1      33.354   7.601  48.711  1.00  0.00     0.054 A 
HETATM   21  C13 UNL     1      34.770   8.033  48.481  1.00  0.00    -0.013 A 
HETATM   22  C14 UNL     1      35.559   6.970  48.523  1.00  0.00     0.038 A 
HETATM   23  C15 UNL     1      34.738   5.774  48.779  1.00  0.00     0.113 A 
HETATM   24  F1  UNL     1      35.426   4.609  48.847  1.00  0.00    -0.206 F 
HETATM   25  C16 UNL     1      33.470   6.132  48.888  1.00  0.00     0.025 A 
ENDBRANCH  19  20
ENDBRANCH   8  19
TORSDOF 4
ENDMDL
MODEL 6
REMARK VINA RESULT:      -7.5      6.258      8.765
REMARK  4 active torsions:
REMARK  status: ('A' for Active; 'I' for Inactive)
REMARK    1  A    between atoms: O1_1  and  C1_2 
REMARK    2  A    between atoms: C4_5  and  C5_6 
REMARK    3  A    between atoms: N2_13  and  C11_14 
REMARK    4  A    between atoms: C11_14  and  C12_15 
ROOT
HETATM    1  C5  UNL     1      26.780   5.624  48.814  1.00  0.00     0.039 C 
HETATM    2  C6  UNL     1      27.185   4.380  48.920  1.00  0.00     0.032 C 
HETATM    3  C7  UNL     1      26.583   3.320  49.757  1.00  0.00     0.031 C 
HETATM    4  C8  UNL     1      25.566   3.674  50.487  1.00  0.00     0.058 A 
HETATM    5  C9  UNL     1      25.132   5.072  50.465  1.00  0.00     0.176 A 
HETATM    6  C10 UNL     1      23.858   5.101  51.153  1.00  0.00     0.143 A 
HETATM    7  N1  UNL     1      23.585   3.916  51.613  1.00  0.00    -0.186 NA
HETATM    8  N2  UNL     1      24.589   2.995  51.266  1.00  0.00    -0.271 N 
HETATM    9  N3  UNL     1      25.479   5.908  49.411  1.00  0.00    -0.374 N 
HETATM   10  H14 UNL     1      24.842   6.670  49.092  1.00  0.00     0.160 HD
ENDROOT
BRANCH   1  11
HETATM   11  C4  UNL     1      27.383   6.669  48.009  1.00  0.00    -0.010 A 
HETATM   12  C3  UNL     1      26.655   7.697  47.502  1.00  0.00     0.016 A 
HETATM   13  C2  UNL     1      27.197   8.707  46.732  1.00  0.00     0.037 A 
HETATM   14  C1  UNL     1      28.538   8.723  46.433  1.00  0.00     0.065 A 
HETATM   15  C18 UNL     1      29.291   7.684  46.940  1.00  0.00     0.037 A 
HETATM   16  C17 UNL     1      28.715   6.692  47.706  1.00  0.00     0.016 A 
BRANCH  14  17
HETATM   17  O1  UNL     1      29.090   9.725  45.666  1.00  0.00    -0.361 OA
HETATM   18  H1  UNL     1      30.038   9.648  45.325  1.00  0.00     0.217 HD
ENDBRANCH  14  17
ENDBRANCH   1  11
BRANCH   8  19
HETATM   19  C11 UNL     1      24.677   1.585  51.609  1.00  0.00     0.163 C 
BRANCH  19  20
HETATM   20  C12 UNL     1      26.013   1.380  52.303  1.00  0.00     0.054 A 
HETATM   21  C13 UNL     1      26.515  -0.013  52.080  1.00  0.00    -0.013 A 
HETATM   22  C14 UNL     1      26.626  -0.626  53.249  1.00  0.00     0.038 A 
HETATM   23  C15 UNL     1      26.212   0.301  54.317  1.00  0.00     0.113 A 
HETATM   24  F1  UNL     1      26.278  -0.203  55.572  1.00  0.00    -0.206 F 
HETATM   25  C16 UNL     1      25.858   1.455  53.777  1.00  0.00     0.025 A 
ENDBRANCH  19  20
ENDBRANCH   8  19
TORSDOF 4
ENDMDL
MODEL 7
REMARK VINA RESULT:      -7.3      4.449      5.656
REMARK  4 active torsions:
REMARK  status: ('A' for Active; 'I' for Inactive)
REMARK    1  A    between atoms: O1_1  and  C1_2 
REMARK    2  A    between atoms: C4_5  and  C5_6 
REMARK    3  A    between atoms: N2_13  and  C11_14 
REMARK    4  A    between atoms: C11_14  and  C12_15 
ROOT
HETATM    1  C5  UNL     1      22.095   2.233  51.845  1.00  0.00     0.039 C 
HETATM    2  C6  UNL     1      23.374   2.378  52.104  1.00  0.00     0.032 C 
HETATM    3  C7  UNL     1      24.282   3.397  51.536  1.00  0.00     0.031 C 
HETATM    4  C8  UNL     1      23.761   4.209  50.664  1.00  0.00     0.058 A 
HETATM    5  C9  UNL     1      22.358   4.031  50.281  1.00  0.00     0.176 A 
HETATM    6  C10 UNL     1      22.004   5.208  49.517  1.00  0.00     0.143 A 
HETATM    7  N1  UNL     1      23.053   5.963  49.369  1.00  0.00    -0.186 NA
HETATM    8  N2  UNL     1      24.169   5.411  50.022  1.00  0.00    -0.271 N 
HETATM    9  N3  UNL     1      21.482   3.327  51.099  1.00  0.00    -0.374 N 
HETATM   10  H14 UNL     1      20.472   3.581  51.155  1.00  0.00     0.160 HD
ENDROOT
BRANCH   1  11
HETATM   11  C4  UNL     1      21.209   1.220  52.387  1.00  0.00    -0.010 A 
HETATM   12  C3  UNL     1      21.464   0.598  53.566  1.00  0.00     0.016 A 
HETATM   13  C2  UNL     1      20.643  -0.370  54.111  1.00  0.00     0.037 A 
HETATM   14  C1  UNL     1      19.494  -0.762  53.467  1.00  0.00     0.065 A 
HETATM   15  C18 UNL     1      19.222  -0.139  52.266  1.00  0.00     0.037 A 
HETATM   16  C17 UNL     1      20.065   0.824  51.753  1.00  0.00     0.016 A 
BRANCH  14  17
HETATM   17  O1  UNL     1      18.666  -1.726  53.999  1.00  0.00    -0.361 OA
HETATM   18  H1  UNL     1      18.532  -1.793  54.999  1.00  0.00     0.217 HD
ENDBRANCH  14  17
ENDBRANCH   1  11
BRANCH   8  19
HETATM   19  C11 UNL     1      25.528   5.923  50.074  1.00  0.00     0.163 C 
BRANCH  19  20
HETATM   20  C12 UNL     1      26.153   5.662  48.714  1.00  0.00     0.054 A 
HETATM   21  C13 UNL     1      27.271   4.672  48.827  1.00  0.00    -0.013 A 
HETATM   22  C14 UNL     1      28.399   5.246  48.437  1.00  0.00     0.038 A 
HETATM   23  C15 UNL     1      28.117   6.637  48.042  1.00  0.00     0.113 A 
HETATM   24  F1  UNL     1      29.192   7.343  47.618  1.00  0.00    -0.206 F 
HETATM   25  C16 UNL     1      26.827   6.880  48.200  1.00  0.00     0.025 A 
ENDBRANCH  19  20
ENDBRANCH   8  19
TORSDOF 4
ENDMDL
MODEL 8
REMARK VINA RESULT:      -7.3      6.572      9.760
REMARK  4 active torsions:
REMARK  status: ('A' for Active; 'I' for Inactive)
REMARK    1  A    between atoms: O1_1  and  C1_2 
REMARK    2  A    between atoms: C4_5  and  C5_6 
REMARK    3  A    between atoms: N2_13  and  C11_14 
REMARK    4  A    between atoms: C11_14  and  C12_15 
ROOT
HETATM    1  C5  UNL     1      26.687   5.338  48.944  1.00  0.00     0.039 C 
HETATM    2  C6  UNL     1      25.384   5.492  48.973  1.00  0.00     0.032 C 
HETATM    3  C7  UNL     1      24.404   4.628  49.666  1.00  0.00     0.031 C 
HETATM    4  C8  UNL     1      24.889   3.590  50.281  1.00  0.00     0.058 A 
HETATM    5  C9  UNL     1      26.329   3.332  50.206  1.00  0.00     0.176 A 
HETATM    6  C10 UNL     1      26.595   2.289  51.175  1.00  0.00     0.143 A 
HETATM    7  N1  UNL     1      25.476   1.895  51.708  1.00  0.00    -0.186 NA
HETATM    8  N2  UNL     1      24.388   2.626  51.200  1.00  0.00    -0.271 N 
HETATM    9  N3  UNL     1      27.217   4.347  49.875  1.00  0.00    -0.374 N 
HETATM   10  H14 UNL     1      28.181   4.375  50.274  1.00  0.00     0.160 HD
ENDROOT
BRANCH   1  11
HETATM   11  C4  UNL     1      27.646   6.174  48.247  1.00  0.00    -0.010 A 
HETATM   12  C3  UNL     1      27.278   7.322  47.621  1.00  0.00     0.016 A 
HETATM   13  C2  UNL     1      28.163   8.141  46.948  1.00  0.00     0.037 A 
HETATM   14  C1  UNL     1      29.498   7.825  46.876  1.00  0.00     0.065 A 
HETATM   15  C18 UNL     1      29.887   6.661  47.506  1.00  0.00     0.037 A 
HETATM   16  C17 UNL     1      28.974   5.868  48.170  1.00  0.00     0.016 A 
BRANCH  14  17
HETATM   17  O1  UNL     1      30.392   8.633  46.208  1.00  0.00    -0.361 OA
HETATM   18  H1  UNL     1      30.799   9.437  46.666  1.00  0.00     0.217 HD
ENDBRANCH  14  17
ENDBRANCH   1  11
BRANCH   8  19
HETATM   19  C11 UNL     1      22.976   2.478  51.511  1.00  0.00     0.163 C 
BRANCH  19  20
HETATM   20  C12 UNL     1      22.506   1.198  50.841  1.00  0.00     0.054 A 
HETATM   21  C13 UNL     1      21.878   1.496  49.515  1.00  0.00    -0.013 A 
HETATM   22  C14 UNL     1      20.614   1.101  49.535  1.00  0.00     0.038 A 
HETATM   23  C15 UNL     1      20.315   0.521  50.856  1.00  0.00     0.113 A 
HETATM   24  F1  UNL     1      19.046   0.073  51.014  1.00  0.00    -0.206 F 
HETATM   25  C16 UNL     1      21.400   0.575  51.610  1.00  0.00     0.025 A 
ENDBRANCH  19  20
ENDBRANCH   8  19
TORSDOF 4
ENDMDL
MODEL 9
REMARK VINA RESULT:      -7.2      7.947      9.644
REMARK  4 active torsions:
REMARK  status: ('A' for Active; 'I' for Inactive)
REMARK    1  A    between atoms: O1_1  and  C1_2 
REMARK    2  A    between atoms: C4_5  and  C5_6 
REMARK    3  A    between atoms: N2_13  and  C11_14 
REMARK    4  A    between atoms: C11_14  and  C12_15 
ROOT
HETATM    1  C5  UNL     1      26.876   7.174  49.182  1.00  0.00     0.039 C 
HETATM    2  C6  UNL     1      27.415   6.185  48.507  1.00  0.00     0.032 C 
HETATM    3  C7  UNL     1      28.792   6.125  47.971  1.00  0.00     0.031 C 
HETATM    4  C8  UNL     1      29.529   7.180  48.161  1.00  0.00     0.058 A 
HETATM    5  C9  UNL     1      28.942   8.340  48.835  1.00  0.00     0.176 A 
HETATM    6  C10 UNL     1      30.047   9.229  49.125  1.00  0.00     0.143 A 
HETATM    7  N1  UNL     1      31.143   8.738  48.627  1.00  0.00    -0.186 NA
HETATM    8  N2  UNL     1      30.905   7.500  48.004  1.00  0.00    -0.271 N 
HETATM    9  N3  UNL     1      27.808   8.204  49.627  1.00  0.00    -0.374 N 
HETATM   10  H14 UNL     1      27.660   8.805  50.467  1.00  0.00     0.160 HD
ENDROOT
BRANCH   1  11
HETATM   11  C4  UNL     1      25.520   7.241  49.690  1.00  0.00    -0.010 A 
HETATM   12  C3  UNL     1      25.001   6.270  50.486  1.00  0.00     0.016 A 
HETATM   13  C2  UNL     1      23.715   6.301  50.987  1.00  0.00     0.037 A 
HETATM   14  C1  UNL     1      22.872   7.347  50.696  1.00  0.00     0.065 A 
HETATM   15  C18 UNL     1      23.384   8.340  49.888  1.00  0.00     0.037 A 
HETATM   16  C17 UNL     1      24.674   8.275  49.406  1.00  0.00     0.016 A 
BRANCH  14  17
HETATM   17  O1  UNL     1      21.586   7.390  51.190  1.00  0.00    -0.361 OA
HETATM   18  H1  UNL     1      21.315   8.100  51.857  1.00  0.00     0.217 HD
ENDBRANCH  14  17
ENDBRANCH   1  11
BRANCH   8  19
HETATM   19  C11 UNL     1      31.851   6.645  47.306  1.00  0.00     0.163 C 
BRANCH  19  20
HETATM   20  C12 UNL     1      32.495   5.750  48.351  1.00  0.00     0.054 A 
HETATM   21  C13 UNL     1      33.928   6.133  48.563  1.00  0.00    -0.013 A 
HETATM   22  C14 UNL     1      34.702   5.106  48.245  1.00  0.00     0.038 A 
HETATM   23  C15 UNL     1      33.854   3.985  47.806  1.00  0.00     0.113 A 
HETATM   24  F1  UNL     1      34.524   2.863  47.449  1.00  0.00    -0.206 F 
HETATM   25  C16 UNL     1      32.585   4.351  47.865  1.00  0.00     0.025 A 
ENDBRANCH  19  20
ENDBRANCH   8  19
TORSDOF 4
ENDMDL
