MODEL 1
REMARK VINA RESULT:      -7.2      0.000      0.000
REMARK  4 active torsions:
REMARK  status: ('A' for Active; 'I' for Inactive)
REMARK    1  A    between atoms: O1_2  and  C2_3 
REMARK    2  A    between atoms: C5_7  and  N2_8 
REMARK    3  A    between atoms: C6_10  and  C7_11 
REMARK    4  A    between atoms: C14_19  and  O2_20 
ROOT
HETATM    1  C2  UNL     1      25.547   1.861  51.694  1.00  0.00     0.130 C 
HETATM    2  C3  UNL     1      26.476   0.910  52.047  1.00  0.00     0.079 C 
HETATM    3  C4  UNL     1      26.346  -0.206  53.070  1.00  0.00     0.118 C 
HETATM    4  N1  UNL     1      25.991  -1.098  54.018  1.00  0.00    -0.079 NA
HETATM    5  C5  UNL     1      24.640  -0.839  54.512  1.00  0.00     0.720 C 
HETATM    6  N3  UNL     1      23.380  -0.402  54.614  1.00  0.00    -0.067 NA
HETATM    7  C6  UNL     1      22.897   0.406  53.481  1.00  0.00     0.071 C 
HETATM    8  C13 UNL     1      23.328   1.377  52.645  1.00  0.00     0.084 C 
HETATM    9  C14 UNL     1      24.115   2.405  51.938  1.00  0.00     0.170 C 
ENDROOT
BRANCH   7  10
HETATM   10  C7  UNL     1      21.529   0.158  53.050  1.00  0.00    -0.009 A 
HETATM   11  C8  UNL     1      20.707  -0.681  53.817  1.00  0.00     0.013 A 
HETATM   12  C9  UNL     1      19.413  -1.021  53.569  1.00  0.00     0.002 A 
HETATM   13  C10 UNL     1      18.864  -0.473  52.438  1.00  0.00     0.019 A 
HETATM   14  C11 UNL     1      19.535   0.359  51.592  1.00  0.00     0.011 A 
HETATM   15 BR1  UNL     1      18.831   1.146  50.017  1.00  0.00    -0.051 Br
HETATM   16  C12 UNL     1      20.835   0.630  51.946  1.00  0.00     0.032 A 
ENDBRANCH   7  10
BRANCH   5  17
HETATM   17  N2  UNL     1      24.888  -1.595  55.717  1.00  0.00    -0.231 N 
HETATM   18  H6  UNL     1      25.562  -2.379  55.817  1.00  0.00     0.174 HD
HETATM   19  H7  UNL     1      24.687  -1.777  56.730  1.00  0.00     0.174 HD
ENDBRANCH   5  17
BRANCH   9  20
HETATM   20  O2  UNL     1      24.152   3.627  52.504  1.00  0.00    -0.387 OA
HETATM   21  C15 UNL     1      23.399   4.625  51.953  1.00  0.00     0.202 C 
ENDBRANCH   9  20
BRANCH   1  22
HETATM   22  O1  UNL     1      26.634   2.210  50.860  1.00  0.00    -0.378 OA
HETATM   23  C1  UNL     1      26.460   3.196  49.882  1.00  0.00     0.202 C 
ENDBRANCH   1  22
TORSDOF 4
ENDMDL
MODEL 2
REMARK VINA RESULT:      -7.1      1.339      1.749
REMARK  4 active torsions:
REMARK  status: ('A' for Active; 'I' for Inactive)
REMARK    1  A    between atoms: O1_2  and  C2_3 
REMARK    2  A    between atoms: C5_7  and  N2_8 
REMARK    3  A    between atoms: C6_10  and  C7_11 
REMARK    4  A    between atoms: C14_19  and  O2_20 
ROOT
HETATM    1  C2  UNL     1      25.033   3.027  50.904  1.00  0.00     0.130 C 
HETATM    2  C3  UNL     1      26.251   2.408  50.744  1.00  0.00     0.079 C 
HETATM    3  C4  UNL     1      26.858   1.287  51.571  1.00  0.00     0.118 C 
HETATM    4  N1  UNL     1      27.177   0.310  52.444  1.00  0.00    -0.079 NA
HETATM    5  C5  UNL     1      26.123   0.122  53.439  1.00  0.00     0.720 C 
HETATM    6  N3  UNL     1      24.943   0.140  54.067  1.00  0.00    -0.067 NA
HETATM    7  C6  UNL     1      23.842   0.778  53.324  1.00  0.00     0.071 C 
HETATM    8  C13 UNL     1      23.612   1.852  52.537  1.00  0.00     0.084 C 
HETATM    9  C14 UNL     1      23.728   3.090  51.742  1.00  0.00     0.170 C 
ENDROOT
BRANCH   7  10
HETATM   10  C7  UNL     1      22.545   0.122  53.406  1.00  0.00    -0.009 A 
HETATM   11  C8  UNL     1      22.365  -0.938  54.307  1.00  0.00     0.013 A 
HETATM   12  C9  UNL     1      21.230  -1.660  54.517  1.00  0.00     0.002 A 
HETATM   13  C10 UNL     1      20.149  -1.298  53.754  1.00  0.00     0.019 A 
HETATM   14  C11 UNL     1      20.169  -0.290  52.836  1.00  0.00     0.011 A 
HETATM   15 BR1  UNL     1      18.710   0.255  51.755  1.00  0.00    -0.051 Br
HETATM   16  C12 UNL     1      21.369   0.367  52.712  1.00  0.00     0.032 A 
ENDBRANCH   7  10
BRANCH   5  17
HETATM   17  N2  UNL     1      27.033  -0.543  54.342  1.00  0.00    -0.231 N 
HETATM   18  H6  UNL     1      26.778  -0.995  55.242  1.00  0.00     0.174 HD
HETATM   19  H7  UNL     1      28.006  -0.852  54.583  1.00  0.00     0.174 HD
ENDBRANCH   5  17
BRANCH   9  20
HETATM   20  O2  UNL     1      23.645   4.250  52.422  1.00  0.00    -0.387 OA
HETATM   21  C15 UNL     1      22.595   5.085  52.163  1.00  0.00     0.202 C 
ENDBRANCH   9  20
BRANCH   1  22
HETATM   22  O1  UNL     1      25.550   3.716  49.784  1.00  0.00    -0.378 OA
HETATM   23  C1  UNL     1      25.692   5.108  49.840  1.00  0.00     0.202 C 
ENDBRANCH   1  22
TORSDOF 4
ENDMDL
MODEL 3
REMARK VINA RESULT:      -7.1      3.608      6.450
REMARK  4 active torsions:
REMARK  status: ('A' for Active; 'I' for Inactive)
REMARK    1  A    between atoms: O1_2  and  C2_3 
REMARK    2  A    between atoms: C5_7  and  N2_8 
REMARK    3  A    between atoms: C6_10  and  C7_11 
REMARK    4  A    between atoms: C14_19  and  O2_20 
ROOT
HETATM    1  C2  UNL     1      21.582   0.580  51.943  1.00  0.00     0.130 C 
HETATM    2  C3  UNL     1      21.227   1.717  51.255  1.00  0.00     0.079 C 
HETATM    3  C4  UNL     1      21.866   3.095  51.311  1.00  0.00     0.118 C 
HETATM    4  N1  UNL     1      22.594   4.209  51.537  1.00  0.00    -0.079 NA
HETATM    5  C5  UNL     1      23.639   3.968  52.530  1.00  0.00     0.720 C 
HETATM    6  N3  UNL     1      24.525   3.366  53.330  1.00  0.00    -0.067 NA
HETATM    7  C6  UNL     1      24.574   1.898  53.227  1.00  0.00     0.071 C 
HETATM    8  C13 UNL     1      23.739   0.841  53.101  1.00  0.00     0.084 C 
HETATM    9  C14 UNL     1      22.564  -0.041  52.971  1.00  0.00     0.170 C 
ENDROOT
BRANCH   7  10
HETATM   10  C7  UNL     1      25.897   1.293  53.270  1.00  0.00    -0.009 A 
HETATM   11  C8  UNL     1      27.009   2.091  53.574  1.00  0.00     0.013 A 
HETATM   12  C9  UNL     1      28.310   1.698  53.660  1.00  0.00     0.002 A 
HETATM   13  C10 UNL     1      28.543   0.369  53.419  1.00  0.00     0.019 A 
HETATM   14  C11 UNL     1      27.566  -0.532  53.111  1.00  0.00     0.011 A 
HETATM   15 BR1  UNL     1      27.827  -2.379  52.768  1.00  0.00    -0.051 Br
HETATM   16  C12 UNL     1      26.293  -0.019  53.053  1.00  0.00     0.032 A 
ENDBRANCH   7  10
BRANCH   5  17
HETATM   17  N2  UNL     1      23.769   5.381  52.799  1.00  0.00    -0.231 N 
HETATM   18  H6  UNL     1      23.512   5.859  53.686  1.00  0.00     0.174 HD
HETATM   19  H7  UNL     1      24.047   6.342  52.484  1.00  0.00     0.174 HD
ENDBRANCH   5  17
BRANCH   9  20
HETATM   20  O2  UNL     1      21.928  -0.365  54.114  1.00  0.00    -0.387 OA
HETATM   21  C15 UNL     1      21.440  -1.634  54.252  1.00  0.00     0.202 C 
ENDBRANCH   9  20
BRANCH   1  22
HETATM   22  O1  UNL     1      20.478   0.118  51.191  1.00  0.00    -0.378 OA
HETATM   23  C1  UNL     1      19.183   0.299  51.693  1.00  0.00     0.202 C 
ENDBRANCH   1  22
TORSDOF 4
ENDMDL
MODEL 4
REMARK VINA RESULT:      -7.1      3.153      5.662
REMARK  4 active torsions:
REMARK  status: ('A' for Active; 'I' for Inactive)
REMARK    1  A    between atoms: O1_2  and  C2_3 
REMARK    2  A    between atoms: C5_7  and  N2_8 
REMARK    3  A    between atoms: C6_10  and  C7_11 
REMARK    4  A    between atoms: C14_19  and  O2_20 
ROOT
HETATM    1  C2  UNL     1      27.231  -0.025  53.384  1.00  0.00     0.130 C 
HETATM    2  C3  UNL     1      26.224  -0.960  53.463  1.00  0.00     0.079 C 
HETATM    3  C4  UNL     1      24.728  -0.756  53.292  1.00  0.00     0.118 C 
HETATM    4  N1  UNL     1      23.464  -0.323  53.104  1.00  0.00    -0.079 NA
HETATM    5  C5  UNL     1      23.426   1.119  52.870  1.00  0.00     0.720 C 
HETATM    6  N3  UNL     1      23.778   2.373  52.566  1.00  0.00    -0.067 NA
HETATM    7  C6  UNL     1      25.183   2.555  52.166  1.00  0.00     0.071 C 
HETATM    8  C13 UNL     1      26.420   2.128  52.508  1.00  0.00     0.084 C 
HETATM    9  C14 UNL     1      27.576   1.467  53.143  1.00  0.00     0.170 C 
ENDROOT
BRANCH   7  10
HETATM   10  C7  UNL     1      25.425   3.472  51.061  1.00  0.00    -0.009 A 
HETATM   11  C8  UNL     1      26.576   3.314  50.275  1.00  0.00     0.013 A 
HETATM   12  C9  UNL     1      26.959   4.071  49.211  1.00  0.00     0.002 A 
HETATM   13  C10 UNL     1      26.114   5.100  48.882  1.00  0.00     0.019 A 
HETATM   14  C11 UNL     1      24.960   5.380  49.551  1.00  0.00     0.011 A 
HETATM   15 BR1  UNL     1      23.754   6.786  49.144  1.00  0.00    -0.051 Br
HETATM   16  C12 UNL     1      24.678   4.548  50.607  1.00  0.00     0.032 A 
ENDBRANCH   7  10
BRANCH   5  17
HETATM   17  N2  UNL     1      22.027   1.184  53.225  1.00  0.00    -0.231 N 
HETATM   18  H6  UNL     1      21.352   0.394  53.193  1.00  0.00     0.174 HD
HETATM   19  H7  UNL     1      21.203   1.737  53.564  1.00  0.00     0.174 HD
ENDBRANCH   5  17
BRANCH   9  20
HETATM   20  O2  UNL     1      28.054   2.042  54.265  1.00  0.00    -0.387 OA
HETATM   21  C15 UNL     1      29.408   2.117  54.435  1.00  0.00     0.202 C 
ENDBRANCH   9  20
BRANCH   1  22
HETATM   22  O1  UNL     1      27.963  -1.201  53.668  1.00  0.00    -0.378 OA
HETATM   23  C1  UNL     1      29.322  -1.259  53.336  1.00  0.00     0.202 C 
ENDBRANCH   1  22
TORSDOF 4
ENDMDL
MODEL 5
REMARK VINA RESULT:      -7.0      3.270      5.673
REMARK  4 active torsions:
REMARK  status: ('A' for Active; 'I' for Inactive)
REMARK    1  A    between atoms: O1_2  and  C2_3 
REMARK    2  A    between atoms: C5_7  and  N2_8 
REMARK    3  A    between atoms: C6_10  and  C7_11 
REMARK    4  A    between atoms: C14_19  and  O2_20 
ROOT
HETATM    1  C2  UNL     1      21.736   2.765  51.687  1.00  0.00     0.130 C 
HETATM    2  C3  UNL     1      20.776   2.407  52.605  1.00  0.00     0.079 C 
HETATM    3  C4  UNL     1      20.772   1.221  53.555  1.00  0.00     0.118 C 
HETATM    4  N1  UNL     1      20.998   0.112  54.289  1.00  0.00    -0.079 NA
HETATM    5  C5  UNL     1      22.263  -0.520  53.919  1.00  0.00     0.720 C 
HETATM    6  N3  UNL     1      23.491  -0.730  53.432  1.00  0.00    -0.067 NA
HETATM    7  C6  UNL     1      24.121   0.433  52.784  1.00  0.00     0.071 C 
HETATM    8  C13 UNL     1      23.803   1.455  51.958  1.00  0.00     0.084 C 
HETATM    9  C14 UNL     1      23.113   2.409  51.069  1.00  0.00     0.170 C 
ENDROOT
BRANCH   7  10
HETATM   10  C7  UNL     1      25.539   0.629  53.049  1.00  0.00    -0.009 A 
HETATM   11  C8  UNL     1      26.015   1.917  53.334  1.00  0.00     0.013 A 
HETATM   12  C9  UNL     1      27.297   2.283  53.606  1.00  0.00     0.002 A 
HETATM   13  C10 UNL     1      28.217   1.265  53.597  1.00  0.00     0.019 A 
HETATM   14  C11 UNL     1      27.908  -0.037  53.338  1.00  0.00     0.011 A 
HETATM   15 BR1  UNL     1      29.133  -1.484  53.311  1.00  0.00    -0.051 Br
HETATM   16  C12 UNL     1      26.582  -0.285  53.077  1.00  0.00     0.032 A 
ENDBRANCH   7  10
BRANCH   5  17
HETATM   17  N2  UNL     1      21.855  -1.778  54.499  1.00  0.00    -0.231 N 
HETATM   18  H6  UNL     1      21.049  -1.922  55.139  1.00  0.00     0.174 HD
HETATM   19  H7  UNL     1      21.995  -2.811  54.613  1.00  0.00     0.174 HD
ENDBRANCH   5  17
BRANCH   9  20
HETATM   20  O2  UNL     1      22.985   2.041  49.779  1.00  0.00    -0.387 OA
HETATM   21  C15 UNL     1      23.143   2.990  48.809  1.00  0.00     0.202 C 
ENDBRANCH   9  20
BRANCH   1  22
HETATM   22  O1  UNL     1      20.774   3.784  51.497  1.00  0.00    -0.378 OA
HETATM   23  C1  UNL     1      21.201   5.085  51.208  1.00  0.00     0.202 C 
ENDBRANCH   1  22
TORSDOF 4
ENDMDL
MODEL 6
REMARK VINA RESULT:      -6.9      2.623      3.978
REMARK  4 active torsions:
REMARK  status: ('A' for Active; 'I' for Inactive)
REMARK    1  A    between atoms: O1_2  and  C2_3 
REMARK    2  A    between atoms: C5_7  and  N2_8 
REMARK    3  A    between atoms: C6_10  and  C7_11 
REMARK    4  A    between atoms: C14_19  and  O2_20 
ROOT
HETATM    1  C2  UNL     1      25.648  -0.080  53.639  1.00  0.00     0.130 C 
HETATM    2  C3  UNL     1      24.982  -1.001  54.415  1.00  0.00     0.079 C 
HETATM    3  C4  UNL     1      23.496  -1.088  54.714  1.00  0.00     0.118 C 
HETATM    4  N1  UNL     1      22.158  -0.951  54.831  1.00  0.00    -0.079 NA
HETATM    5  C5  UNL     1      21.678   0.217  54.095  1.00  0.00     0.720 C 
HETATM    6  N3  UNL     1      21.592   1.236  53.233  1.00  0.00    -0.067 NA
HETATM    7  C6  UNL     1      22.744   1.398  52.330  1.00  0.00     0.071 C 
HETATM    8  C13 UNL     1      24.094   1.332  52.352  1.00  0.00     0.084 C 
HETATM    9  C14 UNL     1      25.508   1.178  52.742  1.00  0.00     0.170 C 
ENDROOT
BRANCH   7  10
HETATM   10  C7  UNL     1      22.436   1.748  50.950  1.00  0.00    -0.009 A 
HETATM   11  C8  UNL     1      21.713   0.846  50.156  1.00  0.00     0.013 A 
HETATM   12  C9  UNL     1      21.338   1.005  48.858  1.00  0.00     0.002 A 
HETATM   13  C10 UNL     1      21.715   2.187  48.273  1.00  0.00     0.019 A 
HETATM   14  C11 UNL     1      22.421   3.162  48.915  1.00  0.00     0.011 A 
HETATM   15 BR1  UNL     1      22.970   4.813  48.162  1.00  0.00    -0.051 Br
HETATM   16  C12 UNL     1      22.743   2.888  50.222  1.00  0.00     0.032 A 
ENDBRANCH   7  10
BRANCH   5  17
HETATM   17  N2  UNL     1      20.456   0.254  54.864  1.00  0.00    -0.231 N 
HETATM   18  H6  UNL     1      19.752   1.018  54.855  1.00  0.00     0.174 HD
HETATM   19  H7  UNL     1      19.807  -0.194  55.555  1.00  0.00     0.174 HD
ENDBRANCH   5  17
BRANCH   9  20
HETATM   20  O2  UNL     1      26.092   2.249  53.316  1.00  0.00    -0.387 OA
HETATM   21  C15 UNL     1      27.452   2.364  53.252  1.00  0.00     0.202 C 
ENDBRANCH   9  20
BRANCH   1  22
HETATM   22  O1  UNL     1      26.714  -0.900  54.074  1.00  0.00    -0.378 OA
HETATM   23  C1  UNL     1      27.763  -1.186  53.191  1.00  0.00     0.202 C 
ENDBRANCH   1  22
TORSDOF 4
ENDMDL
MODEL 7
REMARK VINA RESULT:      -6.8      4.134      5.660
REMARK  4 active torsions:
REMARK  status: ('A' for Active; 'I' for Inactive)
REMARK    1  A    between atoms: O1_2  and  C2_3 
REMARK    2  A    between atoms: C5_7  and  N2_8 
REMARK    3  A    between atoms: C6_10  and  C7_11 
REMARK    4  A    between atoms: C14_19  and  O2_20 
ROOT
HETATM    1  C2  UNL     1      22.417   2.391  48.775  1.00  0.00     0.130 C 
HETATM    2  C3  UNL     1      22.969   3.606  48.443  1.00  0.00     0.079 C 
HETATM    3  C4  UNL     1      23.582   4.650  49.361  1.00  0.00     0.118 C 
HETATM    4  N1  UNL     1      24.063   5.410  50.367  1.00  0.00    -0.079 NA
HETATM    5  C5  UNL     1      23.864   4.763  51.662  1.00  0.00     0.720 C 
HETATM    6  N3  UNL     1      23.646   3.846  52.611  1.00  0.00    -0.067 NA
HETATM    7  C6  UNL     1      23.461   2.468  52.128  1.00  0.00     0.071 C 
HETATM    8  C13 UNL     1      22.850   1.797  51.125  1.00  0.00     0.084 C 
HETATM    9  C14 UNL     1      22.076   1.412  49.930  1.00  0.00     0.170 C 
ENDROOT
BRANCH   7  10
HETATM   10  C7  UNL     1      24.093   1.418  52.915  1.00  0.00    -0.009 A 
HETATM   11  C8  UNL     1      23.325   0.329  53.353  1.00  0.00     0.013 A 
HETATM   12  C9  UNL     1      23.746  -0.734  54.090  1.00  0.00     0.002 A 
HETATM   13  C10 UNL     1      25.073  -0.727  54.436  1.00  0.00     0.019 A 
HETATM   14  C11 UNL     1      25.945   0.261  54.085  1.00  0.00     0.011 A 
HETATM   15 BR1  UNL     1      27.787   0.327  54.533  1.00  0.00    -0.051 Br
HETATM   16  C12 UNL     1      25.405   1.283  53.341  1.00  0.00     0.032 A 
ENDBRANCH   7  10
BRANCH   5  17
HETATM   17  N2  UNL     1      24.015   6.018  52.361  1.00  0.00    -0.231 N 
HETATM   18  H6  UNL     1      24.915   6.473  52.610  1.00  0.00     0.174 HD
HETATM   19  H7  UNL     1      23.584   6.853  52.828  1.00  0.00     0.174 HD
ENDBRANCH   5  17
BRANCH   9  20
HETATM   20  O2  UNL     1      20.743   1.298  50.090  1.00  0.00    -0.387 OA
HETATM   21  C15 UNL     1      20.272   0.486  51.083  1.00  0.00     0.202 C 
ENDBRANCH   9  20
BRANCH   1  22
HETATM   22  O1  UNL     1      22.252   2.397  47.371  1.00  0.00    -0.378 OA
HETATM   23  C1  UNL     1      21.437   3.370  46.781  1.00  0.00     0.202 C 
ENDBRANCH   1  22
TORSDOF 4
ENDMDL
MODEL 8
REMARK VINA RESULT:      -6.6      3.331      5.618
REMARK  4 active torsions:
REMARK  status: ('A' for Active; 'I' for Inactive)
REMARK    1  A    between atoms: O1_2  and  C2_3 
REMARK    2  A    between atoms: C5_7  and  N2_8 
REMARK    3  A    between atoms: C6_10  and  C7_11 
REMARK    4  A    between atoms: C14_19  and  O2_20 
ROOT
HETATM    1  C2  UNL     1      22.517   4.862  51.334  1.00  0.00     0.130 C 
HETATM    2  C3  UNL     1      21.211   4.709  51.738  1.00  0.00     0.079 C 
HETATM    3  C4  UNL     1      20.495   3.439  52.165  1.00  0.00     0.118 C 
HETATM    4  N1  UNL     1      20.089   2.195  52.494  1.00  0.00    -0.079 NA
HETATM    5  C5  UNL     1      21.165   1.221  52.320  1.00  0.00     0.720 C 
HETATM    6  N3  UNL     1      22.373   0.666  52.180  1.00  0.00    -0.067 NA
HETATM    7  C6  UNL     1      23.507   1.606  52.199  1.00  0.00     0.071 C 
HETATM    8  C13 UNL     1      23.846   2.827  51.730  1.00  0.00     0.084 C 
HETATM    9  C14 UNL     1      23.868   4.146  51.069  1.00  0.00     0.170 C 
ENDROOT
BRANCH   7  10
HETATM   10  C7  UNL     1      24.692   1.171  52.925  1.00  0.00    -0.009 A 
HETATM   11  C8  UNL     1      24.646  -0.018  53.668  1.00  0.00     0.013 A 
HETATM   12  C9  UNL     1      25.650  -0.574  54.400  1.00  0.00     0.002 A 
HETATM   13  C10 UNL     1      26.834   0.119  54.403  1.00  0.00     0.019 A 
HETATM   14  C11 UNL     1      27.032   1.289  53.731  1.00  0.00     0.011 A 
HETATM   15 BR1  UNL     1      28.642   2.290  53.697  1.00  0.00    -0.051 Br
HETATM   16  C12 UNL     1      25.947   1.752  53.027  1.00  0.00     0.032 A 
ENDBRANCH   7  10
BRANCH   5  17
HETATM   17  N2  UNL     1      20.225   0.126  52.272  1.00  0.00    -0.231 N 
HETATM   18  H6  UNL     1      19.385   0.016  52.873  1.00  0.00     0.174 HD
HETATM   19  H7  UNL     1      19.914  -0.783  51.852  1.00  0.00     0.174 HD
ENDBRANCH   5  17
BRANCH   9  20
HETATM   20  O2  UNL     1      24.172   4.155  49.757  1.00  0.00    -0.387 OA
HETATM   21  C15 UNL     1      23.318   3.541  48.885  1.00  0.00     0.202 C 
ENDBRANCH   9  20
BRANCH   1  22
HETATM   22  O1  UNL     1      22.038   6.188  51.236  1.00  0.00    -0.378 OA
HETATM   23  C1  UNL     1      21.291   6.567  50.115  1.00  0.00     0.202 C 
ENDBRANCH   1  22
TORSDOF 4
ENDMDL
MODEL 9
REMARK VINA RESULT:      -6.5      4.259      7.509
REMARK  4 active torsions:
REMARK  status: ('A' for Active; 'I' for Inactive)
REMARK    1  A    between atoms: O1_2  and  C2_3 
REMARK    2  A    between atoms: C5_7  and  N2_8 
REMARK    3  A    between atoms: C6_10  and  C7_11 
REMARK    4  A    between atoms: C14_19  and  O2_20 
ROOT
HETATM    1  C2  UNL     1      22.397   3.985  50.498  1.00  0.00     0.130 C 
HETATM    2  C3  UNL     1      22.563   3.452  51.755  1.00  0.00     0.079 C 
HETATM    3  C4  UNL     1      23.810   2.833  52.363  1.00  0.00     0.118 C 
HETATM    4  N1  UNL     1      25.026   2.335  52.671  1.00  0.00    -0.079 NA
HETATM    5  C5  UNL     1      25.947   2.450  51.543  1.00  0.00     0.720 C 
HETATM    6  N3  UNL     1      26.521   2.832  50.397  1.00  0.00    -0.067 NA
HETATM    7  C6  UNL     1      25.803   3.879  49.650  1.00  0.00     0.071 C 
HETATM    8  C13 UNL     1      24.542   4.229  49.313  1.00  0.00     0.084 C 
HETATM    9  C14 UNL     1      23.078   4.298  49.140  1.00  0.00     0.170 C 
ENDROOT
BRANCH   7  10
HETATM   10  C7  UNL     1      26.627   4.910  49.034  1.00  0.00    -0.009 A 
HETATM   11  C8  UNL     1      26.049   6.143  48.699  1.00  0.00     0.013 A 
HETATM   12  C9  UNL     1      26.663   7.214  48.124  1.00  0.00     0.002 A 
HETATM   13  C10 UNL     1      27.996   7.053  47.847  1.00  0.00     0.019 A 
HETATM   14  C11 UNL     1      28.697   5.914  48.114  1.00  0.00     0.011 A 
HETATM   15 BR1  UNL     1      30.538   5.633  47.755  1.00  0.00    -0.051 Br
HETATM   16  C12 UNL     1      27.971   4.902  48.694  1.00  0.00     0.032 A 
ENDBRANCH   7  10
BRANCH   5  17
HETATM   17  N2  UNL     1      26.815   1.434  52.092  1.00  0.00    -0.231 N 
HETATM   18  H6  UNL     1      26.891   0.453  51.759  1.00  0.00     0.174 HD
HETATM   19  H7  UNL     1      27.542   1.143  52.790  1.00  0.00     0.174 HD
ENDBRANCH   5  17
BRANCH   9  20
HETATM   20  O2  UNL     1      22.555   3.547  48.151  1.00  0.00    -0.387 OA
HETATM   21  C15 UNL     1      22.449   2.198  48.342  1.00  0.00     0.202 C 
ENDBRANCH   9  20
BRANCH   1  22
HETATM   22  O1  UNL     1      21.108   4.166  51.049  1.00  0.00    -0.378 OA
HETATM   23  C1  UNL     1      20.303   3.046  51.290  1.00  0.00     0.202 C 
ENDBRANCH   1  22
TORSDOF 4
ENDMDL
