MODEL 1
REMARK VINA RESULT:      -8.1      0.000      0.000
REMARK  5 active torsions:
REMARK  status: ('A' for Active; 'I' for Inactive)
REMARK    1  A    between atoms: O1_2  and  C2_3 
REMARK    2  A    between atoms: C14_18  and  N3_19 
REMARK       I    between atoms: N3_19  and  C15_20 
REMARK    3  A    between atoms: C15_20  and  C16_22 
REMARK    4  A    between atoms: C17_23  and  C18_24 
REMARK    5  A    between atoms: C18_24  and  N4_26 
ROOT
HETATM    1  C2  UNL     1      26.767   0.097  55.142  1.00  0.00     0.179 C 
HETATM    2  C3  UNL     1      26.153   0.408  53.819  1.00  0.00    -0.021 C 
HETATM    3  C4  UNL     1      26.118  -0.929  53.604  1.00  0.00     0.053 C 
HETATM    4  C5  UNL     1      26.309  -1.731  52.423  1.00  0.00     0.097 C 
HETATM    5  N1  UNL     1      26.466  -2.359  51.464  1.00  0.00    -0.192 NA
HETATM    6  C6  UNL     1      25.821  -1.065  55.033  1.00  0.00     0.158 C 
HETATM    7  N2  UNL     1      24.480  -0.593  55.317  1.00  0.00    -0.387 N 
HETATM    8  C7  UNL     1      23.332  -1.424  55.537  1.00  0.00     0.083 C 
HETATM    9  C8  UNL     1      22.312  -1.120  54.702  1.00  0.00     0.017 C 
HETATM   10  C9  UNL     1      21.790  -0.303  53.622  1.00  0.00     0.006 C 
HETATM   11  C10 UNL     1      21.149   0.328  52.662  1.00  0.00    -0.062 C 
HETATM   12  C11 UNL     1      19.775  -0.124  52.369  1.00  0.00     0.045 C 
HETATM   13  C12 UNL     1      21.691   1.449  51.811  1.00  0.00     0.135 C 
HETATM   14 CL1  UNL     1      21.837   0.910  50.124  1.00  0.00    -0.116 Cl
HETATM   15  C13 UNL     1      23.032   1.875  52.261  1.00  0.00     0.027 C 
HETATM   16  C14 UNL     1      23.729   2.978  52.501  1.00  0.00     0.029 C 
HETATM   17  C22 UNL     1      25.043   2.673  53.120  1.00  0.00     0.012 C 
HETATM   18  C23 UNL     1      25.986   1.874  53.613  1.00  0.00     0.055 C 
HETATM   19  H6  UNL     1      24.277   0.449  55.379  1.00  0.00     0.159 HD
ENDROOT
BRANCH   1  20
HETATM   20  O1  UNL     1      28.095  -0.161  55.151  1.00  0.00    -0.384 OA
HETATM   21  C1  UNL     1      28.957   0.823  54.767  1.00  0.00     0.202 C 
ENDBRANCH   1  20
BRANCH  16  22
HETATM   22  N3  UNL     1      23.404   4.331  52.392  1.00  0.00    -0.324 N 
HETATM   23  C15 UNL     1      23.876   4.895  51.176  1.00  0.00     0.245 C 
HETATM   24  O2  UNL     1      24.488   4.076  50.446  1.00  0.00    -0.268 OA
HETATM   25  H15 UNL     1      22.881   4.957  53.058  1.00  0.00     0.169 HD
BRANCH  23  26
HETATM   26  C16 UNL     1      23.693   6.280  50.773  1.00  0.00     0.072 C 
HETATM   27  C17 UNL     1      24.718   7.078  50.538  1.00  0.00     0.013 C 
BRANCH  27  28
HETATM   28  C18 UNL     1      24.573   8.487  50.129  1.00  0.00     0.241 C 
HETATM   29  C19 UNL     1      23.283   8.643  49.368  1.00  0.00     0.047 C 
BRANCH  28  30
HETATM   30  N4  UNL     1      25.722   8.860  49.322  1.00  0.00     0.087 N 
HETATM   31  C20 UNL     1      26.940   8.805  50.112  1.00  0.00     0.310 C 
HETATM   32  C21 UNL     1      25.887   7.942  48.209  1.00  0.00     0.310 C 
ENDBRANCH  28  30
ENDBRANCH  27  28
ENDBRANCH  23  26
ENDBRANCH  16  22
TORSDOF 5
ENDMDL
MODEL 2
REMARK VINA RESULT:      -7.9      3.304      9.218
REMARK  5 active torsions:
REMARK  status: ('A' for Active; 'I' for Inactive)
REMARK    1  A    between atoms: O1_2  and  C2_3 
REMARK    2  A    between atoms: C14_18  and  N3_19 
REMARK       I    between atoms: N3_19  and  C15_20 
REMARK    3  A    between atoms: C15_20  and  C16_22 
REMARK    4  A    between atoms: C17_23  and  C18_24 
REMARK    5  A    between atoms: C18_24  and  N4_26 
ROOT
HETATM    1  C2  UNL     1      28.566   7.694  46.846  1.00  0.00     0.179 C 
HETATM    2  C3  UNL     1      27.981   7.237  48.139  1.00  0.00    -0.021 C 
HETATM    3  C4  UNL     1      27.553   8.511  48.310  1.00  0.00     0.053 C 
HETATM    4  C5  UNL     1      27.430   9.349  49.475  1.00  0.00     0.097 C 
HETATM    5  N1  UNL     1      27.339  10.008  50.422  1.00  0.00    -0.192 NA
HETATM    6  C6  UNL     1      27.323   8.538  46.863  1.00  0.00     0.158 C 
HETATM    7  N2  UNL     1      26.194   7.698  46.516  1.00  0.00    -0.387 N 
HETATM    8  C7  UNL     1      24.873   8.162  46.203  1.00  0.00     0.083 C 
HETATM    9  C8  UNL     1      23.930   7.590  46.986  1.00  0.00     0.017 C 
HETATM   10  C9  UNL     1      23.593   6.671  48.058  1.00  0.00     0.006 C 
HETATM   11  C10 UNL     1      23.098   5.896  48.998  1.00  0.00    -0.062 C 
HETATM   12  C11 UNL     1      21.636   5.939  49.196  1.00  0.00     0.045 C 
HETATM   13  C12 UNL     1      23.881   4.988  49.913  1.00  0.00     0.135 C 
HETATM   14 CL1  UNL     1      23.757   5.568  51.589  1.00  0.00    -0.116 Cl
HETATM   15  C13 UNL     1      25.313   4.958  49.556  1.00  0.00     0.027 C 
HETATM   16  C14 UNL     1      26.310   4.098  49.391  1.00  0.00     0.029 C 
HETATM   17  C22 UNL     1      27.520   4.759  48.841  1.00  0.00     0.012 C 
HETATM   18  C23 UNL     1      28.226   5.788  48.380  1.00  0.00     0.055 C 
HETATM   19  H6  UNL     1      26.300   6.641  46.474  1.00  0.00     0.159 HD
ENDROOT
BRANCH   1  20
HETATM   20  O1  UNL     1      29.763   8.321  46.906  1.00  0.00    -0.384 OA
HETATM   21  C1  UNL     1      30.874   7.658  46.477  1.00  0.00     0.202 C 
ENDBRANCH   1  20
BRANCH  16  22
HETATM   22  N3  UNL     1      26.377   2.710  49.523  1.00  0.00    -0.324 N 
HETATM   23  C15 UNL     1      26.464   2.308  50.883  1.00  0.00     0.245 C 
HETATM   24  O2  UNL     1      26.464   3.269  51.692  1.00  0.00    -0.268 OA
HETATM   25  H15 UNL     1      26.373   1.959  48.784  1.00  0.00     0.169 HD
BRANCH  23  26
HETATM   26  C16 UNL     1      26.547   0.931  51.343  1.00  0.00     0.072 C 
HETATM   27  C17 UNL     1      27.322   0.580  52.352  1.00  0.00     0.013 C 
BRANCH  27  28
HETATM   28  C18 UNL     1      27.433  -0.806  52.845  1.00  0.00     0.241 C 
HETATM   29  C19 UNL     1      26.076  -1.269  53.306  1.00  0.00     0.047 C 
BRANCH  28  30
HETATM   30  N4  UNL     1      28.408  -0.841  53.921  1.00  0.00     0.087 N 
HETATM   31  C20 UNL     1      29.759  -0.823  53.386  1.00  0.00     0.310 C 
HETATM   32  C21 UNL     1      28.267   0.320  54.780  1.00  0.00     0.310 C 
ENDBRANCH  28  30
ENDBRANCH  27  28
ENDBRANCH  23  26
ENDBRANCH  16  22
TORSDOF 5
ENDMDL
MODEL 3
REMARK VINA RESULT:      -7.7      3.380      9.162
REMARK  5 active torsions:
REMARK  status: ('A' for Active; 'I' for Inactive)
REMARK    1  A    between atoms: O1_2  and  C2_3 
REMARK    2  A    between atoms: C14_18  and  N3_19 
REMARK       I    between atoms: N3_19  and  C15_20 
REMARK    3  A    between atoms: C15_20  and  C16_22 
REMARK    4  A    between atoms: C17_23  and  C18_24 
REMARK    5  A    between atoms: C18_24  and  N4_26 
ROOT
HETATM    1  C2  UNL     1      19.911   5.103  48.444  1.00  0.00     0.179 C 
HETATM    2  C3  UNL     1      21.373   4.940  48.199  1.00  0.00    -0.021 C 
HETATM    3  C4  UNL     1      21.219   5.796  47.161  1.00  0.00     0.053 C 
HETATM    4  C5  UNL     1      21.825   5.864  45.856  1.00  0.00     0.097 C 
HETATM    5  N1  UNL     1      22.322   5.902  44.811  1.00  0.00    -0.192 NA
HETATM    6  C6  UNL     1      20.240   6.499  47.995  1.00  0.00     0.158 C 
HETATM    7  N2  UNL     1      20.907   7.185  49.085  1.00  0.00    -0.387 N 
HETATM    8  C7  UNL     1      21.181   8.592  49.142  1.00  0.00     0.083 C 
HETATM    9  C8  UNL     1      22.493   8.851  49.344  1.00  0.00     0.017 C 
HETATM   10  C9  UNL     1      23.842   8.355  49.548  1.00  0.00     0.006 C 
HETATM   11  C10 UNL     1      25.118   8.100  49.739  1.00  0.00    -0.062 C 
HETATM   12  C11 UNL     1      26.018   9.262  49.875  1.00  0.00     0.045 C 
HETATM   13  C12 UNL     1      25.757   6.735  49.805  1.00  0.00     0.135 C 
HETATM   14 CL1  UNL     1      26.851   6.514  48.421  1.00  0.00    -0.116 Cl
HETATM   15  C13 UNL     1      24.748   5.658  49.752  1.00  0.00     0.027 C 
HETATM   16  C14 UNL     1      24.443   4.511  50.345  1.00  0.00     0.029 C 
HETATM   17  C22 UNL     1      23.131   3.988  49.888  1.00  0.00     0.012 C 
HETATM   18  C23 UNL     1      22.003   4.015  49.183  1.00  0.00     0.055 C 
HETATM   19  H6  UNL     1      21.241   6.646  49.938  1.00  0.00     0.159 HD
ENDROOT
BRANCH   1  20
HETATM   20  O1  UNL     1      19.078   4.367  47.675  1.00  0.00    -0.384 OA
HETATM   21  C1  UNL     1      18.462   3.282  48.226  1.00  0.00     0.202 C 
ENDBRANCH   1  20
BRANCH  16  22
HETATM   22  N3  UNL     1      25.060   3.799  51.374  1.00  0.00    -0.324 N 
HETATM   23  C15 UNL     1      26.095   2.953  50.891  1.00  0.00     0.245 C 
HETATM   24  O2  UNL     1      26.250   3.009  49.646  1.00  0.00    -0.268 OA
HETATM   25  H15 UNL     1      24.870   3.805  52.410  1.00  0.00     0.169 HD
BRANCH  23  26
HETATM   26  C16 UNL     1      26.920   2.088  51.719  1.00  0.00     0.072 C 
HETATM   27  C17 UNL     1      26.603   0.825  51.939  1.00  0.00     0.013 C 
BRANCH  27  28
HETATM   28  C18 UNL     1      27.413  -0.082  52.772  1.00  0.00     0.241 C 
HETATM   29  C19 UNL     1      26.768  -1.442  52.780  1.00  0.00     0.047 C 
BRANCH  28  30
HETATM   30  N4  UNL     1      27.513   0.476  54.109  1.00  0.00     0.087 N 
HETATM   31  C20 UNL     1      26.377   0.068  54.919  1.00  0.00     0.310 C 
HETATM   32  C21 UNL     1      28.712   0.000  54.775  1.00  0.00     0.310 C 
ENDBRANCH  28  30
ENDBRANCH  27  28
ENDBRANCH  23  26
ENDBRANCH  16  22
TORSDOF 5
ENDMDL
MODEL 4
REMARK VINA RESULT:      -7.6      3.623      6.441
REMARK  5 active torsions:
REMARK  status: ('A' for Active; 'I' for Inactive)
REMARK    1  A    between atoms: O1_2  and  C2_3 
REMARK    2  A    between atoms: C14_18  and  N3_19 
REMARK       I    between atoms: N3_19  and  C15_20 
REMARK    3  A    between atoms: C15_20  and  C16_22 
REMARK    4  A    between atoms: C17_23  and  C18_24 
REMARK    5  A    between atoms: C18_24  and  N4_26 
ROOT
HETATM    1  C2  UNL     1      24.755   2.636  51.450  1.00  0.00     0.179 C 
HETATM    2  C3  UNL     1      24.731   3.260  50.096  1.00  0.00    -0.021 C 
HETATM    3  C4  UNL     1      23.469   2.783  49.979  1.00  0.00     0.053 C 
HETATM    4  C5  UNL     1      22.727   2.252  48.864  1.00  0.00     0.097 C 
HETATM    5  N1  UNL     1      22.147   1.828  47.957  1.00  0.00    -0.192 NA
HETATM    6  C6  UNL     1      23.318   3.072  51.408  1.00  0.00     0.158 C 
HETATM    7  N2  UNL     1      23.267   4.504  51.630  1.00  0.00    -0.387 N 
HETATM    8  C7  UNL     1      22.081   5.268  51.888  1.00  0.00     0.083 C 
HETATM    9  C8  UNL     1      21.928   6.288  51.013  1.00  0.00     0.017 C 
HETATM   10  C9  UNL     1      22.422   7.028  49.867  1.00  0.00     0.006 C 
HETATM   11  C10 UNL     1      22.706   7.813  48.851  1.00  0.00    -0.062 C 
HETATM   12  C11 UNL     1      21.754   8.904  48.564  1.00  0.00     0.045 C 
HETATM   13  C12 UNL     1      23.894   7.691  47.930  1.00  0.00     0.135 C 
HETATM   14 CL1  UNL     1      23.348   7.277  46.290  1.00  0.00    -0.116 Cl
HETATM   15  C13 UNL     1      24.819   6.629  48.374  1.00  0.00     0.027 C 
HETATM   16  C14 UNL     1      26.116   6.406  48.546  1.00  0.00     0.029 C 
HETATM   17  C22 UNL     1      26.366   5.103  49.211  1.00  0.00     0.012 C 
HETATM   18  C23 UNL     1      26.012   3.953  49.780  1.00  0.00     0.055 C 
HETATM   19  H6  UNL     1      24.158   5.085  51.612  1.00  0.00     0.159 HD
ENDROOT
BRANCH   1  20
HETATM   20  O1  UNL     1      25.016   1.310  51.504  1.00  0.00    -0.384 OA
HETATM   21  C1  UNL     1      26.248   0.900  51.921  1.00  0.00     0.202 C 
ENDBRANCH   1  20
BRANCH  16  22
HETATM   22  N3  UNL     1      27.238   7.208  48.331  1.00  0.00    -0.324 N 
HETATM   23  C15 UNL     1      27.411   8.169  49.364  1.00  0.00     0.245 C 
HETATM   24  O2  UNL     1      26.529   8.111  50.257  1.00  0.00    -0.268 OA
HETATM   25  H15 UNL     1      27.939   7.195  47.545  1.00  0.00     0.169 HD
BRANCH  23  26
HETATM   26  C16 UNL     1      28.486   9.146  49.423  1.00  0.00     0.072 C 
HETATM   27  C17 UNL     1      29.712   8.856  49.028  1.00  0.00     0.013 C 
BRANCH  27  28
HETATM   28  C18 UNL     1      30.828   9.818  49.074  1.00  0.00     0.241 C 
HETATM   29  C19 UNL     1      30.301  11.192  48.755  1.00  0.00     0.047 C 
BRANCH  28  30
HETATM   30  N4  UNL     1      31.846   9.398  48.126  1.00  0.00     0.087 N 
HETATM   31  C20 UNL     1      32.516   8.198  48.595  1.00  0.00     0.310 C 
HETATM   32  C21 UNL     1      31.250   9.087  46.839  1.00  0.00     0.310 C 
ENDBRANCH  28  30
ENDBRANCH  27  28
ENDBRANCH  23  26
ENDBRANCH  16  22
TORSDOF 5
ENDMDL
MODEL 5
REMARK VINA RESULT:      -7.3      2.810      9.041
REMARK  5 active torsions:
REMARK  status: ('A' for Active; 'I' for Inactive)
REMARK    1  A    between atoms: O1_2  and  C2_3 
REMARK    2  A    between atoms: C14_18  and  N3_19 
REMARK       I    between atoms: N3_19  and  C15_20 
REMARK    3  A    between atoms: C15_20  and  C16_22 
REMARK    4  A    between atoms: C17_23  and  C18_24 
REMARK    5  A    between atoms: C18_24  and  N4_26 
ROOT
HETATM    1  C2  UNL     1      28.294   6.806  47.670  1.00  0.00     0.179 C 
HETATM    2  C3  UNL     1      27.239   6.723  48.720  1.00  0.00    -0.021 C 
HETATM    3  C4  UNL     1      27.365   8.066  48.848  1.00  0.00     0.053 C 
HETATM    4  C5  UNL     1      27.295   8.947  49.985  1.00  0.00     0.097 C 
HETATM    5  N1  UNL     1      27.237   9.640  50.910  1.00  0.00    -0.192 NA
HETATM    6  C6  UNL     1      27.578   8.098  47.398  1.00  0.00     0.158 C 
HETATM    7  N2  UNL     1      26.343   7.800  46.700  1.00  0.00    -0.387 N 
HETATM    8  C7  UNL     1      25.488   8.762  46.066  1.00  0.00     0.083 C 
HETATM    9  C8  UNL     1      24.216   8.696  46.521  1.00  0.00     0.017 C 
HETATM   10  C9  UNL     1      23.239   8.077  47.398  1.00  0.00     0.006 C 
HETATM   11  C10 UNL     1      22.223   7.647  48.113  1.00  0.00    -0.062 C 
HETATM   12  C11 UNL     1      20.927   8.321  47.904  1.00  0.00     0.045 C 
HETATM   13  C12 UNL     1      22.258   6.551  49.149  1.00  0.00     0.135 C 
HETATM   14 CL1  UNL     1      21.937   7.232  50.759  1.00  0.00    -0.116 Cl
HETATM   15  C13 UNL     1      23.578   5.892  49.199  1.00  0.00     0.027 C 
HETATM   16  C14 UNL     1      24.117   4.680  49.260  1.00  0.00     0.029 C 
HETATM   17  C22 UNL     1      25.592   4.727  49.109  1.00  0.00     0.012 C 
HETATM   18  C23 UNL     1      26.766   5.325  48.926  1.00  0.00     0.055 C 
HETATM   19  H6  UNL     1      25.996   6.798  46.622  1.00  0.00     0.159 HD
ENDROOT
BRANCH   1  20
HETATM   20  O1  UNL     1      29.576   6.865  48.097  1.00  0.00    -0.384 OA
HETATM   21  C1  UNL     1      30.535   7.310  47.236  1.00  0.00     0.202 C 
ENDBRANCH   1  20
BRANCH  16  22
HETATM   22  N3  UNL     1      23.547   3.407  49.317  1.00  0.00    -0.324 N 
HETATM   23  C15 UNL     1      23.116   3.074  50.630  1.00  0.00     0.245 C 
HETATM   24  O2  UNL     1      23.330   3.980  51.474  1.00  0.00    -0.268 OA
HETATM   25  H15 UNL     1      23.402   2.696  48.553  1.00  0.00     0.169 HD
BRANCH  23  26
HETATM   26  C16 UNL     1      22.484   1.820  51.007  1.00  0.00     0.072 C 
HETATM   27  C17 UNL     1      22.828   1.171  52.104  1.00  0.00     0.013 C 
BRANCH  27  28
HETATM   28  C18 UNL     1      22.211  -0.102  52.520  1.00  0.00     0.241 C 
HETATM   29  C19 UNL     1      20.930   0.194  53.254  1.00  0.00     0.047 C 
BRANCH  28  30
HETATM   30  N4  UNL     1      23.154  -0.828  53.353  1.00  0.00     0.087 N 
HETATM   31  C20 UNL     1      24.398  -0.089  53.479  1.00  0.00     0.310 C 
HETATM   32  C21 UNL     1      22.622  -1.011  54.691  1.00  0.00     0.310 C 
ENDBRANCH  28  30
ENDBRANCH  27  28
ENDBRANCH  23  26
ENDBRANCH  16  22
TORSDOF 5
ENDMDL
MODEL 6
REMARK VINA RESULT:      -7.3      4.518     11.657
REMARK  5 active torsions:
REMARK  status: ('A' for Active; 'I' for Inactive)
REMARK    1  A    between atoms: O1_2  and  C2_3 
REMARK    2  A    between atoms: C14_18  and  N3_19 
REMARK       I    between atoms: N3_19  and  C15_20 
REMARK    3  A    between atoms: C15_20  and  C16_22 
REMARK    4  A    between atoms: C17_23  and  C18_24 
REMARK    5  A    between atoms: C18_24  and  N4_26 
ROOT
HETATM    1  C2  UNL     1      26.787  13.307  48.199  1.00  0.00     0.179 C 
HETATM    2  C3  UNL     1      26.957  11.892  47.759  1.00  0.00    -0.021 C 
HETATM    3  C4  UNL     1      27.833  12.362  46.839  1.00  0.00     0.053 C 
HETATM    4  C5  UNL     1      28.123  11.974  45.482  1.00  0.00     0.097 C 
HETATM    5  N1  UNL     1      28.341  11.648  44.394  1.00  0.00    -0.192 NA
HETATM    6  C6  UNL     1      28.249  13.333  47.855  1.00  0.00     0.158 C 
HETATM    7  N2  UNL     1      28.982  12.671  48.916  1.00  0.00    -0.387 N 
HETATM    8  C7  UNL     1      30.407  12.681  49.080  1.00  0.00     0.083 C 
HETATM    9  C8  UNL     1      30.924  11.433  49.143  1.00  0.00     0.017 C 
HETATM   10  C9  UNL     1      30.715   9.997  49.126  1.00  0.00     0.006 C 
HETATM   11  C10 UNL     1      30.724   8.682  49.132  1.00  0.00    -0.062 C 
HETATM   12  C11 UNL     1      32.038   8.024  49.271  1.00  0.00     0.045 C 
HETATM   13  C12 UNL     1      29.526   7.777  48.980  1.00  0.00     0.135 C 
HETATM   14 CL1  UNL     1      29.643   6.870  47.457  1.00  0.00    -0.116 Cl
HETATM   15  C13 UNL     1      28.265   8.546  48.946  1.00  0.00     0.027 C 
HETATM   16  C14 UNL     1      27.039   8.525  49.454  1.00  0.00     0.029 C 
HETATM   17  C22 UNL     1      26.284   9.756  49.113  1.00  0.00     0.012 C 
HETATM   18  C23 UNL     1      26.120  10.955  48.560  1.00  0.00     0.055 C 
HETATM   19  H6  UNL     1      28.466  12.117  49.663  1.00  0.00     0.159 HD
ENDROOT
BRANCH   1  20
HETATM   20  O1  UNL     1      25.947  14.075  47.469  1.00  0.00    -0.384 OA
HETATM   21  C1  UNL     1      24.987  14.796  48.116  1.00  0.00     0.202 C 
ENDBRANCH   1  20
BRANCH  16  22
HETATM   22  N3  UNL     1      26.403   7.638  50.323  1.00  0.00    -0.324 N 
HETATM   23  C15 UNL     1      25.798   6.555  49.628  1.00  0.00     0.245 C 
HETATM   24  O2  UNL     1      25.951   6.608  48.383  1.00  0.00    -0.268 OA
HETATM   25  H15 UNL     1      26.316   7.662  51.372  1.00  0.00     0.169 HD
BRANCH  23  26
HETATM   26  C16 UNL     1      25.063   5.468  50.255  1.00  0.00     0.072 C 
HETATM   27  C17 UNL     1      25.399   4.205  50.074  1.00  0.00     0.013 C 
BRANCH  27  28
HETATM   28  C18 UNL     1      24.678   3.076  50.692  1.00  0.00     0.241 C 
HETATM   29  C19 UNL     1      23.481   2.741  49.843  1.00  0.00     0.047 C 
BRANCH  28  30
HETATM   30  N4  UNL     1      24.294   3.450  52.042  1.00  0.00     0.087 N 
HETATM   31  C20 UNL     1      22.852   3.384  52.200  1.00  0.00     0.310 C 
HETATM   32  C21 UNL     1      24.878   2.541  53.011  1.00  0.00     0.310 C 
ENDBRANCH  28  30
ENDBRANCH  27  28
ENDBRANCH  23  26
ENDBRANCH  16  22
TORSDOF 5
ENDMDL
MODEL 7
REMARK VINA RESULT:      -7.3      4.488      7.270
REMARK  5 active torsions:
REMARK  status: ('A' for Active; 'I' for Inactive)
REMARK    1  A    between atoms: O1_2  and  C2_3 
REMARK    2  A    between atoms: C14_18  and  N3_19 
REMARK       I    between atoms: N3_19  and  C15_20 
REMARK    3  A    between atoms: C15_20  and  C16_22 
REMARK    4  A    between atoms: C17_23  and  C18_24 
REMARK    5  A    between atoms: C18_24  and  N4_26 
ROOT
HETATM    1  C2  UNL     1      24.230   2.549  51.503  1.00  0.00     0.179 C 
HETATM    2  C3  UNL     1      24.523   3.183  50.187  1.00  0.00    -0.021 C 
HETATM    3  C4  UNL     1      23.230   2.941  49.865  1.00  0.00     0.053 C 
HETATM    4  C5  UNL     1      22.587   2.564  48.632  1.00  0.00     0.097 C 
HETATM    5  N1  UNL     1      22.088   2.261  47.633  1.00  0.00    -0.192 NA
HETATM    6  C6  UNL     1      22.915   3.236  51.266  1.00  0.00     0.158 C 
HETATM    7  N2  UNL     1      23.082   4.651  51.533  1.00  0.00    -0.387 N 
HETATM    8  C7  UNL     1      22.022   5.611  51.642  1.00  0.00     0.083 C 
HETATM    9  C8  UNL     1      22.186   6.652  50.793  1.00  0.00     0.017 C 
HETATM   10  C9  UNL     1      22.971   7.306  49.763  1.00  0.00     0.006 C 
HETATM   11  C10 UNL     1      23.540   8.039  48.831  1.00  0.00    -0.062 C 
HETATM   12  C11 UNL     1      22.849   9.286  48.449  1.00  0.00     0.045 C 
HETATM   13  C12 UNL     1      24.816   7.717  48.094  1.00  0.00     0.135 C 
HETATM   14 CL1  UNL     1      24.464   7.427  46.376  1.00  0.00    -0.116 Cl
HETATM   15  C13 UNL     1      25.462   6.502  48.628  1.00  0.00     0.027 C 
HETATM   16  C14 UNL     1      26.658   6.049  48.983  1.00  0.00     0.029 C 
HETATM   17  C22 UNL     1      26.571   4.714  49.626  1.00  0.00     0.012 C 
HETATM   18  C23 UNL     1      25.938   3.640  50.092  1.00  0.00     0.055 C 
HETATM   19  H6  UNL     1      24.053   5.063  51.670  1.00  0.00     0.159 HD
ENDROOT
BRANCH   1  20
HETATM   20  O1  UNL     1      24.244   1.197  51.544  1.00  0.00    -0.384 OA
HETATM   21  C1  UNL     1      24.264   0.577  52.759  1.00  0.00     0.202 C 
ENDBRANCH   1  20
BRANCH  16  22
HETATM   22  N3  UNL     1      27.922   6.640  48.969  1.00  0.00    -0.324 N 
HETATM   23  C15 UNL     1      28.911   5.769  48.436  1.00  0.00     0.245 C 
HETATM   24  O2  UNL     1      28.460   4.649  48.087  1.00  0.00    -0.268 OA
HETATM   25  H15 UNL     1      28.225   7.598  49.284  1.00  0.00     0.169 HD
BRANCH  23  26
HETATM   26  C16 UNL     1      30.321   6.096  48.290  1.00  0.00     0.072 C 
HETATM   27  C17 UNL     1      31.159   5.295  47.661  1.00  0.00     0.013 C 
BRANCH  27  28
HETATM   28  C18 UNL     1      32.594   5.592  47.493  1.00  0.00     0.241 C 
HETATM   29  C19 UNL     1      32.754   6.621  46.406  1.00  0.00     0.047 C 
BRANCH  28  30
HETATM   30  N4  UNL     1      33.293   4.359  47.175  1.00  0.00     0.087 N 
HETATM   31  C20 UNL     1      32.349   3.321  46.797  1.00  0.00     0.310 C 
HETATM   32  C21 UNL     1      34.194   4.554  46.054  1.00  0.00     0.310 C 
ENDBRANCH  28  30
ENDBRANCH  27  28
ENDBRANCH  23  26
ENDBRANCH  16  22
TORSDOF 5
ENDMDL
MODEL 8
REMARK VINA RESULT:      -7.3      4.614      8.958
REMARK  5 active torsions:
REMARK  status: ('A' for Active; 'I' for Inactive)
REMARK    1  A    between atoms: O1_2  and  C2_3 
REMARK    2  A    between atoms: C14_18  and  N3_19 
REMARK       I    between atoms: N3_19  and  C15_20 
REMARK    3  A    between atoms: C15_20  and  C16_22 
REMARK    4  A    between atoms: C17_23  and  C18_24 
REMARK    5  A    between atoms: C18_24  and  N4_26 
ROOT
HETATM    1  C2  UNL     1      15.111  -1.066  52.699  1.00  0.00     0.179 C 
HETATM    2  C3  UNL     1      16.432  -0.965  52.016  1.00  0.00    -0.021 C 
HETATM    3  C4  UNL     1      15.747  -0.611  50.903  1.00  0.00     0.053 C 
HETATM    4  C5  UNL     1      15.949  -0.889  49.504  1.00  0.00     0.097 C 
HETATM    5  N1  UNL     1      16.127  -1.124  48.385  1.00  0.00    -0.192 NA
HETATM    6  C6  UNL     1      14.831   0.103  51.797  1.00  0.00     0.158 C 
HETATM    7  N2  UNL     1      15.478   1.275  52.352  1.00  0.00    -0.387 N 
HETATM    8  C7  UNL     1      15.270   2.627  51.919  1.00  0.00     0.083 C 
HETATM    9  C8  UNL     1      16.427   3.238  51.573  1.00  0.00     0.017 C 
HETATM   10  C9  UNL     1      17.869   3.178  51.423  1.00  0.00     0.006 C 
HETATM   11  C10 UNL     1      19.161   3.313  51.221  1.00  0.00    -0.062 C 
HETATM   12  C11 UNL     1      19.624   4.617  50.709  1.00  0.00     0.045 C 
HETATM   13  C12 UNL     1      20.216   2.255  51.434  1.00  0.00     0.135 C 
HETATM   14 CL1  UNL     1      20.938   1.800  49.876  1.00  0.00    -0.116 Cl
HETATM   15  C13 UNL     1      19.646   1.033  52.036  1.00  0.00     0.027 C 
HETATM   16  C14 UNL     1      19.901   0.146  52.989  1.00  0.00     0.029 C 
HETATM   17  C22 UNL     1      18.770  -0.796  53.181  1.00  0.00     0.012 C 
HETATM   18  C23 UNL     1      17.560  -1.291  52.934  1.00  0.00     0.055 C 
HETATM   19  H6  UNL     1      16.175   1.180  53.149  1.00  0.00     0.159 HD
ENDROOT
BRANCH   1  20
HETATM   20  O1  UNL     1      14.409  -2.205  52.503  1.00  0.00    -0.384 OA
HETATM   21  C1  UNL     1      13.112  -2.257  52.922  1.00  0.00     0.202 C 
ENDBRANCH   1  20
BRANCH  16  22
HETATM   22  N3  UNL     1      20.957   0.025  53.894  1.00  0.00    -0.324 N 
HETATM   23  C15 UNL     1      22.141  -0.452  53.270  1.00  0.00     0.245 C 
HETATM   24  O2  UNL     1      22.008  -0.671  52.040  1.00  0.00    -0.268 OA
HETATM   25  H15 UNL     1      20.991   0.231  54.927  1.00  0.00     0.169 HD
BRANCH  23  26
HETATM   26  C16 UNL     1      23.408  -0.681  53.947  1.00  0.00     0.072 C 
HETATM   27  C17 UNL     1      24.565  -0.506  53.337  1.00  0.00     0.013 C 
BRANCH  27  28
HETATM   28  C18 UNL     1      25.868  -0.729  53.989  1.00  0.00     0.241 C 
HETATM   29  C19 UNL     1      26.183   0.455  54.865  1.00  0.00     0.047 C 
BRANCH  28  30
HETATM   30  N4  UNL     1      26.878  -0.923  52.963  1.00  0.00     0.087 N 
HETATM   31  C20 UNL     1      26.672   0.003  51.863  1.00  0.00     0.310 C 
HETATM   32  C21 UNL     1      28.205  -0.675  53.496  1.00  0.00     0.310 C 
ENDBRANCH  28  30
ENDBRANCH  27  28
ENDBRANCH  23  26
ENDBRANCH  16  22
TORSDOF 5
ENDMDL
MODEL 9
REMARK VINA RESULT:      -7.1      4.343      7.847
REMARK  5 active torsions:
REMARK  status: ('A' for Active; 'I' for Inactive)
REMARK    1  A    between atoms: O1_2  and  C2_3 
REMARK    2  A    between atoms: C14_18  and  N3_19 
REMARK       I    between atoms: N3_19  and  C15_20 
REMARK    3  A    between atoms: C15_20  and  C16_22 
REMARK    4  A    between atoms: C17_23  and  C18_24 
REMARK    5  A    between atoms: C18_24  and  N4_26 
ROOT
HETATM    1  C2  UNL     1      23.671   3.277  50.881  1.00  0.00     0.179 C 
HETATM    2  C3  UNL     1      24.224   3.867  49.628  1.00  0.00    -0.021 C 
HETATM    3  C4  UNL     1      22.960   3.832  49.141  1.00  0.00     0.053 C 
HETATM    4  C5  UNL     1      22.429   3.568  47.829  1.00  0.00     0.097 C 
HETATM    5  N1  UNL     1      22.020   3.354  46.768  1.00  0.00    -0.192 NA
HETATM    6  C6  UNL     1      22.519   4.162  50.499  1.00  0.00     0.158 C 
HETATM    7  N2  UNL     1      22.866   5.532  50.823  1.00  0.00    -0.387 N 
HETATM    8  C7  UNL     1      21.961   6.645  50.824  1.00  0.00     0.083 C 
HETATM    9  C8  UNL     1      22.389   7.654  50.030  1.00  0.00     0.017 C 
HETATM   10  C9  UNL     1      23.391   8.184  49.123  1.00  0.00     0.006 C 
HETATM   11  C10 UNL     1      24.179   8.826  48.290  1.00  0.00    -0.062 C 
HETATM   12  C11 UNL     1      23.742  10.168  47.857  1.00  0.00     0.045 C 
HETATM   13  C12 UNL     1      25.474   8.314  47.709  1.00  0.00     0.135 C 
HETATM   14 CL1  UNL     1      25.303   8.094  45.953  1.00  0.00    -0.116 Cl
HETATM   15  C13 UNL     1      25.852   7.009  48.287  1.00  0.00     0.027 C 
HETATM   16  C14 UNL     1      26.909   6.373  48.776  1.00  0.00     0.029 C 
HETATM   17  C22 UNL     1      26.537   5.064  49.368  1.00  0.00     0.012 C 
HETATM   18  C23 UNL     1      25.693   4.098  49.722  1.00  0.00     0.055 C 
HETATM   19  H6  UNL     1      23.863   5.787  51.091  1.00  0.00     0.159 HD
ENDROOT
BRANCH   1  20
HETATM   20  O1  UNL     1      23.472   1.939  50.887  1.00  0.00    -0.384 OA
HETATM   21  C1  UNL     1      23.750   1.240  52.024  1.00  0.00     0.202 C 
ENDBRANCH   1  20
BRANCH  16  22
HETATM   22  N3  UNL     1      28.241   6.760  48.935  1.00  0.00    -0.324 N 
HETATM   23  C15 UNL     1      29.143   5.760  48.483  1.00  0.00     0.245 C 
HETATM   24  O2  UNL     1      28.574   4.734  48.035  1.00  0.00    -0.268 OA
HETATM   25  H15 UNL     1      28.645   7.650  49.326  1.00  0.00     0.169 HD
BRANCH  23  26
HETATM   26  C16 UNL     1      30.593   5.867  48.517  1.00  0.00     0.072 C 
HETATM   27  C17 UNL     1      31.203   7.037  48.552  1.00  0.00     0.013 C 
BRANCH  27  28
HETATM   28  C18 UNL     1      32.670   7.187  48.586  1.00  0.00     0.241 C 
HETATM   29  C19 UNL     1      33.036   8.529  48.011  1.00  0.00     0.047 C 
BRANCH  28  30
HETATM   30  N4  UNL     1      33.268   6.097  47.834  1.00  0.00     0.087 N 
HETATM   31  C20 UNL     1      33.670   6.548  46.513  1.00  0.00     0.310 C 
HETATM   32  C21 UNL     1      34.459   5.606  48.504  1.00  0.00     0.310 C 
ENDBRANCH  28  30
ENDBRANCH  27  28
ENDBRANCH  23  26
ENDBRANCH  16  22
TORSDOF 5
ENDMDL
