MODEL 1
REMARK VINA RESULT:      -7.6      0.000      0.000
REMARK  2 active torsions:
REMARK  status: ('A' for Active; 'I' for Inactive)
REMARK    1  A    between atoms: C3_3  and  C5_5 
REMARK    2  A    between atoms: C19_24  and  O1_25 
ROOT
HETATM    1  C5  UNL     1      24.059   2.443  51.879  1.00  0.00    -0.024 C 
HETATM    2  C6  UNL     1      23.651   3.694  51.968  1.00  0.00    -0.014 C 
HETATM    3  C7  UNL     1      23.475   5.138  51.953  1.00  0.00     0.052 C 
HETATM    4  C8  UNL     1      22.098   5.549  51.435  1.00  0.00     0.078 C 
HETATM    5  C9  UNL     1      22.022   7.053  51.273  1.00  0.00     0.032 C 
HETATM    6  N1  UNL     1      21.505   4.772  50.458  1.00  0.00    -0.392 N 
HETATM    7  C10 UNL     1      20.888   3.977  49.452  1.00  0.00     0.149 A 
HETATM    8  N2  UNL     1      21.157   3.944  48.142  1.00  0.00    -0.206 NA
HETATM    9  C11 UNL     1      20.587   2.956  47.368  1.00  0.00     0.119 A 
HETATM   10  N3  UNL     1      20.327   3.019  48.722  1.00  0.00     0.000 N 
HETATM   11  C12 UNL     1      19.518   2.101  49.264  1.00  0.00     0.098 A 
HETATM   12  C13 UNL     1      20.044   3.080  50.140  1.00  0.00     0.044 A 
HETATM   13  C14 UNL     1      19.704   3.261  51.599  1.00  0.00     0.023 C 
HETATM   14  N4  UNL     1      18.748   1.294  50.102  1.00  0.00    -0.385 N 
HETATM   15  P1  UNL     1      19.729   0.360  51.268  1.00  0.00    -0.030 P 
HETATM   16  C15 UNL     1      21.512   0.640  51.081  1.00  0.00     0.089 C 
HETATM   17  C16 UNL     1      22.283   0.727  52.387  1.00  0.00    -0.046 C 
HETATM   18  C17 UNL     1      21.878   0.605  53.665  1.00  0.00    -0.025 C 
HETATM   19  C18 UNL     1      20.719   0.370  54.519  1.00  0.00     0.036 C 
HETATM   20  C19 UNL     1      23.710   1.060  52.131  1.00  0.00     0.180 C 
HETATM   21  H15 UNL     1      22.336   4.100  50.385  1.00  0.00     0.155 HD
HETATM   22  H20 UNL     1      17.922   1.662  49.598  1.00  0.00     0.159 HD
HETATM   23  H21 UNL     1      19.319  -0.998  51.435  1.00  0.00     0.080 HD
ENDROOT
BRANCH   1  24
HETATM   24  C3  UNL     1      25.407   2.618  51.351  1.00  0.00    -0.057 C 
HETATM   25  C2  UNL     1      25.597   3.243  50.180  1.00  0.00    -0.024 C 
HETATM   26  C1  UNL     1      26.699   3.630  49.308  1.00  0.00     0.036 C 
HETATM   27  C4  UNL     1      26.731   2.206  51.893  1.00  0.00     0.048 C 
ENDBRANCH   1  24
BRANCH  20  28
HETATM   28  O1  UNL     1      24.519   0.570  53.188  1.00  0.00    -0.386 OA
HETATM   29  H29 UNL     1      24.237  -0.318  53.456  1.00  0.00     0.210 HD
ENDBRANCH  20  28
TORSDOF 2
ENDMDL
MODEL 2
REMARK VINA RESULT:      -7.3      2.977      5.737
REMARK  2 active torsions:
REMARK  status: ('A' for Active; 'I' for Inactive)
REMARK    1  A    between atoms: C3_3  and  C5_5 
REMARK    2  A    between atoms: C19_24  and  O1_25 
ROOT
HETATM    1  C5  UNL     1      23.727   2.958  49.854  1.00  0.00    -0.024 C 
HETATM    2  C6  UNL     1      23.069   3.051  48.715  1.00  0.00    -0.014 C 
HETATM    3  C7  UNL     1      22.156   2.952  47.587  1.00  0.00     0.052 C 
HETATM    4  C8  UNL     1      21.840   4.315  46.976  1.00  0.00     0.078 C 
HETATM    5  C9  UNL     1      20.758   4.185  45.923  1.00  0.00     0.032 C 
HETATM    6  N1  UNL     1      21.785   5.414  47.812  1.00  0.00    -0.392 N 
HETATM    7  C10 UNL     1      21.727   6.549  48.668  1.00  0.00     0.149 A 
HETATM    8  N2  UNL     1      20.743   6.910  49.501  1.00  0.00    -0.206 NA
HETATM    9  C11 UNL     1      20.967   7.934  50.395  1.00  0.00     0.119 A 
HETATM   10  N3  UNL     1      21.961   7.541  49.522  1.00  0.00     0.000 N 
HETATM   11  C12 UNL     1      23.142   8.169  49.567  1.00  0.00     0.098 A 
HETATM   12  C13 UNL     1      23.007   7.139  48.607  1.00  0.00     0.044 A 
HETATM   13  C14 UNL     1      24.018   6.747  47.557  1.00  0.00     0.023 C 
HETATM   14  N4  UNL     1      24.453   8.610  49.391  1.00  0.00    -0.385 N 
HETATM   15  P1  UNL     1      25.671   7.395  49.876  1.00  0.00    -0.030 P 
HETATM   16  C15 UNL     1      24.933   5.869  50.523  1.00  0.00     0.089 C 
HETATM   17  C16 UNL     1      25.633   4.591  50.094  1.00  0.00    -0.046 C 
HETATM   18  C17 UNL     1      26.727   4.392  49.336  1.00  0.00    -0.025 C 
HETATM   19  C18 UNL     1      27.769   5.064  48.566  1.00  0.00     0.036 C 
HETATM   20  C19 UNL     1      24.894   3.399  50.589  1.00  0.00     0.180 C 
HETATM   21  H15 UNL     1      21.975   4.840  48.697  1.00  0.00     0.155 HD
HETATM   22  H20 UNL     1      24.045   9.493  49.037  1.00  0.00     0.159 HD
HETATM   23  H21 UNL     1      26.775   7.922  50.612  1.00  0.00     0.080 HD
ENDROOT
BRANCH   1  24
HETATM   24  C3  UNL     1      22.915   1.986  50.576  1.00  0.00    -0.057 C 
HETATM   25  C2  UNL     1      23.031   1.866  51.906  1.00  0.00    -0.024 C 
HETATM   26  C1  UNL     1      22.457   1.079  52.991  1.00  0.00     0.036 C 
HETATM   27  C4  UNL     1      21.895   1.013  50.094  1.00  0.00     0.048 C 
ENDBRANCH   1  24
BRANCH  20  28
HETATM   28  O1  UNL     1      25.784   2.303  50.732  1.00  0.00    -0.386 OA
HETATM   29  H29 UNL     1      25.302   1.462  50.714  1.00  0.00     0.210 HD
ENDBRANCH  20  28
TORSDOF 2
ENDMDL
MODEL 3
REMARK VINA RESULT:      -7.2      2.008      2.809
REMARK  2 active torsions:
REMARK  status: ('A' for Active; 'I' for Inactive)
REMARK    1  A    between atoms: C3_3  and  C5_5 
REMARK    2  A    between atoms: C19_24  and  O1_25 
ROOT
HETATM    1  C5  UNL     1      24.369   5.166  50.368  1.00  0.00    -0.024 C 
HETATM    2  C6  UNL     1      23.432   6.080  50.530  1.00  0.00    -0.014 C 
HETATM    3  C7  UNL     1      22.614   7.279  50.613  1.00  0.00     0.052 C 
HETATM    4  C8  UNL     1      21.204   7.058  50.068  1.00  0.00     0.078 C 
HETATM    5  C9  UNL     1      20.447   8.369  50.014  1.00  0.00     0.032 C 
HETATM    6  N1  UNL     1      21.038   6.182  49.012  1.00  0.00    -0.392 N 
HETATM    7  C10 UNL     1      20.859   5.282  47.925  1.00  0.00     0.149 A 
HETATM    8  N2  UNL     1      21.120   5.487  46.628  1.00  0.00    -0.206 NA
HETATM    9  C11 UNL     1      21.070   4.418  45.760  1.00  0.00     0.119 A 
HETATM   10  N3  UNL     1      20.804   4.239  47.102  1.00  0.00     0.000 N 
HETATM   11  C12 UNL     1      20.504   3.010  47.540  1.00  0.00     0.098 A 
HETATM   12  C13 UNL     1      20.518   4.043  48.508  1.00  0.00     0.044 A 
HETATM   13  C14 UNL     1      20.126   3.925  49.960  1.00  0.00     0.023 C 
HETATM   14  N4  UNL     1      20.186   1.873  48.283  1.00  0.00    -0.385 N 
HETATM   15  P1  UNL     1      21.481   1.395  49.418  1.00  0.00    -0.030 P 
HETATM   16  C15 UNL     1      22.938   2.474  49.330  1.00  0.00     0.089 C 
HETATM   17  C16 UNL     1      23.576   2.792  50.671  1.00  0.00    -0.046 C 
HETATM   18  C17 UNL     1      23.266   2.391  51.918  1.00  0.00    -0.025 C 
HETATM   19  C18 UNL     1      22.340   1.580  52.702  1.00  0.00     0.036 C 
HETATM   20  C19 UNL     1      24.692   3.761  50.502  1.00  0.00     0.180 C 
HETATM   21  H15 UNL     1      22.085   5.974  48.926  1.00  0.00     0.155 HD
HETATM   22  H20 UNL     1      19.286   1.865  47.772  1.00  0.00     0.159 HD
HETATM   23  H21 UNL     1      21.739  -0.009  49.467  1.00  0.00     0.080 HD
ENDROOT
BRANCH   1  24
HETATM   24  C3  UNL     1      25.489   5.982  49.912  1.00  0.00    -0.057 C 
HETATM   25  C2  UNL     1      26.372   5.485  49.034  1.00  0.00    -0.024 C 
HETATM   26  C1  UNL     1      27.578   5.907  48.332  1.00  0.00     0.036 C 
HETATM   27  C4  UNL     1      25.888   7.375  50.255  1.00  0.00     0.048 C 
ENDBRANCH   1  24
BRANCH  20  28
HETATM   28  O1  UNL     1      25.631   3.606  51.555  1.00  0.00    -0.386 OA
HETATM   29  H29 UNL     1      25.204   3.248  52.348  1.00  0.00     0.210 HD
ENDBRANCH  20  28
TORSDOF 2
ENDMDL
MODEL 4
REMARK VINA RESULT:      -7.2      8.958     12.001
REMARK  2 active torsions:
REMARK  status: ('A' for Active; 'I' for Inactive)
REMARK    1  A    between atoms: C3_3  and  C5_5 
REMARK    2  A    between atoms: C19_24  and  O1_25 
ROOT
HETATM    1  C5  UNL     1      29.168   7.187  47.728  1.00  0.00    -0.024 C 
HETATM    2  C6  UNL     1      28.940   7.683  46.528  1.00  0.00    -0.014 C 
HETATM    3  C7  UNL     1      28.451   8.362  45.338  1.00  0.00     0.052 C 
HETATM    4  C8  UNL     1      29.578   9.003  44.531  1.00  0.00     0.078 C 
HETATM    5  C9  UNL     1      29.011   9.840  43.403  1.00  0.00     0.032 C 
HETATM    6  N1  UNL     1      30.669   9.509  45.213  1.00  0.00    -0.392 N 
HETATM    7  C10 UNL     1      31.795  10.031  45.908  1.00  0.00     0.149 A 
HETATM    8  N2  UNL     1      31.889  11.180  46.589  1.00  0.00    -0.206 NA
HETATM    9  C11 UNL     1      33.006  11.408  47.363  1.00  0.00     0.119 A 
HETATM   10  N3  UNL     1      32.880  10.234  46.648  1.00  0.00     0.000 N 
HETATM   11  C12 UNL     1      33.860   9.325  46.729  1.00  0.00     0.098 A 
HETATM   12  C13 UNL     1      32.760   9.002  45.898  1.00  0.00     0.044 A 
HETATM   13  C14 UNL     1      32.626   7.790  45.010  1.00  0.00     0.023 C 
HETATM   14  N4  UNL     1      34.685   8.205  46.627  1.00  0.00    -0.385 N 
HETATM   15  P1  UNL     1      33.979   6.745  47.378  1.00  0.00    -0.030 P 
HETATM   16  C15 UNL     1      32.359   7.050  48.138  1.00  0.00     0.089 C 
HETATM   17  C16 UNL     1      31.345   5.936  47.945  1.00  0.00    -0.046 C 
HETATM   18  C17 UNL     1      31.446   4.743  47.328  1.00  0.00    -0.025 C 
HETATM   19  C18 UNL     1      32.348   3.870  46.585  1.00  0.00     0.036 C 
HETATM   20  C19 UNL     1      30.027   6.324  48.512  1.00  0.00     0.180 C 
HETATM   21  H15 UNL     1      30.269   9.268  46.177  1.00  0.00     0.155 HD
HETATM   22  H20 UNL     1      35.353   8.817  46.125  1.00  0.00     0.159 HD
HETATM   23  H21 UNL     1      34.899   5.968  48.146  1.00  0.00     0.080 HD
ENDROOT
BRANCH   1  24
HETATM   24  C3  UNL     1      28.052   7.744  48.485  1.00  0.00    -0.057 C 
HETATM   25  C2  UNL     1      28.259   8.747  49.351  1.00  0.00    -0.024 C 
HETATM   26  C1  UNL     1      27.492   9.575  50.274  1.00  0.00     0.036 C 
HETATM   27  C4  UNL     1      26.605   7.395  48.493  1.00  0.00     0.048 C 
ENDBRANCH   1  24
BRANCH  20  28
HETATM   28  O1  UNL     1      29.296   5.164  48.879  1.00  0.00    -0.386 OA
HETATM   29  H29 UNL     1      28.442   5.135  48.422  1.00  0.00     0.210 HD
ENDBRANCH  20  28
TORSDOF 2
ENDMDL
MODEL 5
REMARK VINA RESULT:      -7.0      9.502     12.402
REMARK  2 active torsions:
REMARK  status: ('A' for Active; 'I' for Inactive)
REMARK    1  A    between atoms: C3_3  and  C5_5 
REMARK    2  A    between atoms: C19_24  and  O1_25 
ROOT
HETATM    1  C5  UNL     1      33.114   9.553  45.746  1.00  0.00    -0.024 C 
HETATM    2  C6  UNL     1      32.735  10.465  46.619  1.00  0.00    -0.014 C 
HETATM    3  C7  UNL     1      32.282  11.646  47.336  1.00  0.00     0.052 C 
HETATM    4  C8  UNL     1      31.274  11.307  48.434  1.00  0.00     0.078 C 
HETATM    5  C9  UNL     1      30.701  12.573  49.035  1.00  0.00     0.032 C 
HETATM    6  N1  UNL     1      30.407  10.251  48.226  1.00  0.00    -0.392 N 
HETATM    7  C10 UNL     1      29.510   9.166  48.018  1.00  0.00     0.149 A 
HETATM    8  N2  UNL     1      28.406   9.136  47.263  1.00  0.00    -0.206 NA
HETATM    9  C11 UNL     1      27.788   7.926  47.032  1.00  0.00     0.119 A 
HETATM   10  N3  UNL     1      28.927   7.990  47.808  1.00  0.00     0.000 N 
HETATM   11  C12 UNL     1      29.418   6.856  48.324  1.00  0.00     0.098 A 
HETATM   12  C13 UNL     1      30.118   8.048  48.628  1.00  0.00     0.044 A 
HETATM   13  C14 UNL     1      31.297   8.189  49.560  1.00  0.00     0.023 C 
HETATM   14  N4  UNL     1      30.161   5.868  48.968  1.00  0.00    -0.385 N 
HETATM   15  P1  UNL     1      31.778   5.625  48.245  1.00  0.00    -0.030 P 
HETATM   16  C15 UNL     1      32.082   6.694  46.811  1.00  0.00     0.089 C 
HETATM   17  C16 UNL     1      33.489   7.261  46.726  1.00  0.00    -0.046 C 
HETATM   18  C17 UNL     1      34.564   7.087  47.519  1.00  0.00    -0.025 C 
HETATM   19  C18 UNL     1      35.049   6.417  48.720  1.00  0.00     0.036 C 
HETATM   20  C19 UNL     1      33.606   8.201  45.580  1.00  0.00     0.180 C 
HETATM   21  H15 UNL     1      30.776  10.047  47.240  1.00  0.00     0.155 HD
HETATM   22  H20 UNL     1      29.348   5.752  49.599  1.00  0.00     0.159 HD
HETATM   23  H21 UNL     1      32.167   4.258  48.106  1.00  0.00     0.080 HD
ENDROOT
BRANCH   1  24
HETATM   24  C3  UNL     1      33.001  10.291  44.492  1.00  0.00    -0.057 C 
HETATM   25  C2  UNL     1      32.014  10.007  43.630  1.00  0.00    -0.024 C 
HETATM   26  C1  UNL     1      31.529  10.457  42.331  1.00  0.00     0.036 C 
HETATM   27  C4  UNL     1      33.831  11.389  43.926  1.00  0.00     0.048 C 
ENDBRANCH   1  24
BRANCH  20  28
HETATM   28  O1  UNL     1      34.952   8.256  45.134  1.00  0.00    -0.386 OA
HETATM   29  H29 UNL     1      35.534   7.762  45.732  1.00  0.00     0.210 HD
ENDBRANCH  20  28
TORSDOF 2
ENDMDL
MODEL 6
REMARK VINA RESULT:      -7.0      7.392      9.665
REMARK  2 active torsions:
REMARK  status: ('A' for Active; 'I' for Inactive)
REMARK    1  A    between atoms: C3_3  and  C5_5 
REMARK    2  A    between atoms: C19_24  and  O1_25 
ROOT
HETATM    1  C5  UNL     1      29.642   7.468  48.430  1.00  0.00    -0.024 C 
HETATM    2  C6  UNL     1      29.989   8.654  48.891  1.00  0.00    -0.014 C 
HETATM    3  C7  UNL     1      30.653   9.874  49.322  1.00  0.00     0.052 C 
HETATM    4  C8  UNL     1      29.883  11.128  48.912  1.00  0.00     0.078 C 
HETATM    5  C9  UNL     1      30.691  12.371  49.225  1.00  0.00     0.032 C 
HETATM    6  N1  UNL     1      29.181  11.109  47.722  1.00  0.00    -0.392 N 
HETATM    7  C10 UNL     1      28.456  11.096  46.497  1.00  0.00     0.149 A 
HETATM    8  N2  UNL     1      28.931  11.215  45.252  1.00  0.00    -0.206 NA
HETATM    9  C11 UNL     1      28.088  10.972  44.189  1.00  0.00     0.119 A 
HETATM   10  N3  UNL     1      27.627  10.860  45.486  1.00  0.00     0.000 N 
HETATM   11  C12 UNL     1      26.352  10.506  45.686  1.00  0.00     0.098 A 
HETATM   12  C13 UNL     1      27.133  10.745  46.841  1.00  0.00     0.044 A 
HETATM   13  C14 UNL     1      26.653  10.747  48.272  1.00  0.00     0.023 C 
HETATM   14  N4  UNL     1      25.108  10.146  46.204  1.00  0.00    -0.385 N 
HETATM   15  P1  UNL     1      25.131   8.573  47.052  1.00  0.00    -0.030 P 
HETATM   16  C15 UNL     1      26.761   7.775  47.023  1.00  0.00     0.089 C 
HETATM   17  C16 UNL     1      27.153   7.081  48.316  1.00  0.00    -0.046 C 
HETATM   18  C17 UNL     1      26.489   6.930  49.478  1.00  0.00    -0.025 C 
HETATM   19  C18 UNL     1      25.246   7.238  50.176  1.00  0.00     0.036 C 
HETATM   20  C19 UNL     1      28.540   6.551  48.225  1.00  0.00     0.180 C 
HETATM   21  H15 UNL     1      29.492  10.115  47.470  1.00  0.00     0.155 HD
HETATM   22  H20 UNL     1      24.754  11.037  45.813  1.00  0.00     0.159 HD
HETATM   23  H21 UNL     1      24.012   7.731  46.773  1.00  0.00     0.080 HD
ENDROOT
BRANCH   1  24
HETATM   24  C3  UNL     1      30.935   6.926  48.028  1.00  0.00    -0.057 C 
HETATM   25  C2  UNL     1      31.261   6.852  46.730  1.00  0.00    -0.024 C 
HETATM   26  C1  UNL     1      32.378   6.412  45.902  1.00  0.00     0.036 C 
HETATM   27  C4  UNL     1      32.064   6.390  48.837  1.00  0.00     0.048 C 
ENDBRANCH   1  24
BRANCH  20  28
HETATM   28  O1  UNL     1      28.695   5.447  49.103  1.00  0.00    -0.386 OA
HETATM   29  H29 UNL     1      29.360   5.638  49.783  1.00  0.00     0.210 HD
ENDBRANCH  20  28
TORSDOF 2
ENDMDL
MODEL 7
REMARK VINA RESULT:      -6.9     10.431     12.910
REMARK  2 active torsions:
REMARK  status: ('A' for Active; 'I' for Inactive)
REMARK    1  A    between atoms: C3_3  and  C5_5 
REMARK    2  A    between atoms: C19_24  and  O1_25 
ROOT
HETATM    1  C5  UNL     1      34.185   6.217  44.667  1.00  0.00    -0.024 C 
HETATM    2  C6  UNL     1      34.287   7.531  44.621  1.00  0.00    -0.014 C 
HETATM    3  C7  UNL     1      34.394   8.938  44.269  1.00  0.00     0.052 C 
HETATM    4  C8  UNL     1      33.503   9.822  45.139  1.00  0.00     0.078 C 
HETATM    5  C9  UNL     1      33.512  11.248  44.628  1.00  0.00     0.032 C 
HETATM    6  N1  UNL     1      32.296   9.311  45.576  1.00  0.00    -0.392 N 
HETATM    7  C10 UNL     1      31.051   8.791  46.030  1.00  0.00     0.149 A 
HETATM    8  N2  UNL     1      29.912   8.650  45.342  1.00  0.00    -0.206 NA
HETATM    9  C11 UNL     1      28.876   7.936  45.904  1.00  0.00     0.119 A 
HETATM   10  N3  UNL     1      30.063   8.099  46.589  1.00  0.00     0.000 N 
HETATM   11  C12 UNL     1      30.187   7.547  47.802  1.00  0.00     0.098 A 
HETATM   12  C13 UNL     1      31.302   8.270  47.317  1.00  0.00     0.044 A 
HETATM   13  C14 UNL     1      32.575   8.575  48.068  1.00  0.00     0.023 C 
HETATM   14  N4  UNL     1      30.614   7.085  49.047  1.00  0.00    -0.385 N 
HETATM   15  P1  UNL     1      31.915   5.864  48.932  1.00  0.00    -0.030 P 
HETATM   16  C15 UNL     1      32.368   5.469  47.219  1.00  0.00     0.089 C 
HETATM   17  C16 UNL     1      33.857   5.277  46.983  1.00  0.00    -0.046 C 
HETATM   18  C17 UNL     1      34.902   5.321  47.831  1.00  0.00    -0.025 C 
HETATM   19  C18 UNL     1      35.285   5.534  49.223  1.00  0.00     0.036 C 
HETATM   20  C19 UNL     1      34.133   5.061  45.538  1.00  0.00     0.180 C 
HETATM   21  H15 UNL     1      32.420   8.380  45.060  1.00  0.00     0.155 HD
HETATM   22  H20 UNL     1      29.914   7.727  49.458  1.00  0.00     0.159 HD
HETATM   23  H21 UNL     1      31.766   4.753  49.817  1.00  0.00     0.080 HD
ENDROOT
BRANCH   1  24
HETATM   24  C3  UNL     1      34.161   5.880  43.248  1.00  0.00    -0.057 C 
HETATM   25  C2  UNL     1      33.166   5.133  42.749  1.00  0.00    -0.024 C 
HETATM   26  C1  UNL     1      32.747   4.579  41.468  1.00  0.00     0.036 C 
HETATM   27  C4  UNL     1      35.100   6.227  42.145  1.00  0.00     0.048 C 
ENDBRANCH   1  24
BRANCH  20  28
HETATM   28  O1  UNL     1      35.330   4.315  45.380  1.00  0.00    -0.386 OA
HETATM   29  H29 UNL     1      35.812   4.255  46.219  1.00  0.00     0.210 HD
ENDBRANCH  20  28
TORSDOF 2
ENDMDL
MODEL 8
REMARK VINA RESULT:      -6.8      3.226      5.545
REMARK  2 active torsions:
REMARK  status: ('A' for Active; 'I' for Inactive)
REMARK    1  A    between atoms: C3_3  and  C5_5 
REMARK    2  A    between atoms: C19_24  and  O1_25 
ROOT
HETATM    1  C5  UNL     1      23.479   6.300  48.516  1.00  0.00    -0.024 C 
HETATM    2  C6  UNL     1      24.428   5.437  48.820  1.00  0.00    -0.014 C 
HETATM    3  C7  UNL     1      25.583   4.712  49.325  1.00  0.00     0.052 C 
HETATM    4  C8  UNL     1      25.237   3.281  49.732  1.00  0.00     0.078 C 
HETATM    5  C9  UNL     1      26.421   2.622  50.410  1.00  0.00     0.032 C 
HETATM    6  N1  UNL     1      23.983   3.032  50.259  1.00  0.00    -0.392 N 
HETATM    7  C10 UNL     1      22.695   2.769  50.802  1.00  0.00     0.149 A 
HETATM    8  N2  UNL     1      22.248   3.024  52.037  1.00  0.00    -0.206 NA
HETATM    9  C11 UNL     1      20.904   2.881  52.305  1.00  0.00     0.119 A 
HETATM   10  N3  UNL     1      21.395   2.624  51.041  1.00  0.00     0.000 N 
HETATM   11  C12 UNL     1      20.540   2.240  50.085  1.00  0.00     0.098 A 
HETATM   12  C13 UNL     1      21.902   2.347  49.714  1.00  0.00     0.044 A 
HETATM   13  C14 UNL     1      22.507   1.970  48.383  1.00  0.00     0.023 C 
HETATM   14  N4  UNL     1      19.910   1.851  48.903  1.00  0.00    -0.385 N 
HETATM   15  P1  UNL     1      19.926   3.124  47.649  1.00  0.00    -0.030 P 
HETATM   16  C15 UNL     1      20.728   4.656  48.202  1.00  0.00     0.089 C 
HETATM   17  C16 UNL     1      21.589   5.338  47.154  1.00  0.00    -0.046 C 
HETATM   18  C17 UNL     1      21.842   5.019  45.870  1.00  0.00    -0.025 C 
HETATM   19  C18 UNL     1      21.563   4.048  44.817  1.00  0.00     0.036 C 
HETATM   20  C19 UNL     1      22.280   6.520  47.734  1.00  0.00     0.180 C 
HETATM   21  H15 UNL     1      23.682   4.060  50.216  1.00  0.00     0.155 HD
HETATM   22  H20 UNL     1      19.730   0.943  49.369  1.00  0.00     0.159 HD
HETATM   23  H21 UNL     1      18.694   3.277  46.943  1.00  0.00     0.080 HD
ENDROOT
BRANCH   1  24
HETATM   24  C3  UNL     1      23.901   7.471  49.278  1.00  0.00    -0.057 C 
HETATM   25  C2  UNL     1      24.958   8.191  48.876  1.00  0.00    -0.024 C 
HETATM   26  C1  UNL     1      25.703   9.373  49.292  1.00  0.00     0.036 C 
HETATM   27  C4  UNL     1      23.350   8.080  50.520  1.00  0.00     0.048 C 
ENDBRANCH   1  24
BRANCH  20  28
HETATM   28  O1  UNL     1      22.569   7.462  46.712  1.00  0.00    -0.386 OA
HETATM   29  H29 UNL     1      21.756   7.745  46.264  1.00  0.00     0.210 HD
ENDBRANCH  20  28
TORSDOF 2
ENDMDL
MODEL 9
REMARK VINA RESULT:      -6.6      2.515      5.469
REMARK  2 active torsions:
REMARK  status: ('A' for Active; 'I' for Inactive)
REMARK    1  A    between atoms: C3_3  and  C5_5 
REMARK    2  A    between atoms: C19_24  and  O1_25 
ROOT
HETATM    1  C5  UNL     1      19.865   2.450  50.481  1.00  0.00    -0.024 C 
HETATM    2  C6  UNL     1      20.337   2.500  49.251  1.00  0.00    -0.014 C 
HETATM    3  C7  UNL     1      20.566   2.557  47.816  1.00  0.00     0.052 C 
HETATM    4  C8  UNL     1      21.672   3.542  47.443  1.00  0.00     0.078 C 
HETATM    5  C9  UNL     1      21.757   3.698  45.939  1.00  0.00     0.032 C 
HETATM    6  N1  UNL     1      21.823   4.681  48.211  1.00  0.00    -0.392 N 
HETATM    7  C10 UNL     1      21.985   5.857  48.997  1.00  0.00     0.149 A 
HETATM    8  N2  UNL     1      21.249   6.974  48.978  1.00  0.00    -0.206 NA
HETATM    9  C11 UNL     1      21.443   7.919  49.962  1.00  0.00     0.119 A 
HETATM   10  N3  UNL     1      22.188   6.757  49.953  1.00  0.00     0.000 N 
HETATM   11  C12 UNL     1      23.094   6.568  50.920  1.00  0.00     0.098 A 
HETATM   12  C13 UNL     1      22.978   5.544  49.950  1.00  0.00     0.044 A 
HETATM   13  C14 UNL     1      23.842   4.313  49.829  1.00  0.00     0.023 C 
HETATM   14  N4  UNL     1      24.078   6.087  51.784  1.00  0.00    -0.385 N 
HETATM   15  P1  UNL     1      23.553   4.655  52.715  1.00  0.00    -0.030 P 
HETATM   16  C15 UNL     1      21.844   4.163  52.358  1.00  0.00     0.089 C 
HETATM   17  C16 UNL     1      21.616   2.663  52.282  1.00  0.00    -0.046 C 
HETATM   18  C17 UNL     1      22.458   1.628  52.461  1.00  0.00    -0.025 C 
HETATM   19  C18 UNL     1      23.838   1.268  52.770  1.00  0.00     0.036 C 
HETATM   20  C19 UNL     1      20.214   2.367  51.884  1.00  0.00     0.180 C 
HETATM   21  H15 UNL     1      20.992   4.451  48.846  1.00  0.00     0.155 HD
HETATM   22  H20 UNL     1      24.677   6.856  51.433  1.00  0.00     0.159 HD
HETATM   23  H21 UNL     1      23.929   4.673  54.093  1.00  0.00     0.080 HD
ENDROOT
BRANCH   1  24
HETATM   24  C3  UNL     1      18.427   2.438  50.235  1.00  0.00    -0.057 C 
HETATM   25  C2  UNL     1      17.685   3.518  50.519  1.00  0.00    -0.024 C 
HETATM   26  C1  UNL     1      16.293   3.945  50.443  1.00  0.00     0.036 C 
HETATM   27  C4  UNL     1      17.537   1.377  49.687  1.00  0.00     0.048 C 
ENDBRANCH   1  24
BRANCH  20  28
HETATM   28  O1  UNL     1      19.830   1.092  52.375  1.00  0.00    -0.386 OA
HETATM   29  H29 UNL     1      19.052   0.759  51.901  1.00  0.00     0.210 HD
ENDBRANCH  20  28
TORSDOF 2
ENDMDL
