MODEL 1
REMARK VINA RESULT:      -9.1      0.000      0.000
REMARK  3 active torsions:
REMARK  status: ('A' for Active; 'I' for Inactive)
REMARK    1  A    between atoms: C2_2  and  C3_3 
REMARK    2  A    between atoms: C9_10  and  N2_11 
REMARK    3  A    between atoms: C17_21  and  N4_22 
ROOT
HETATM    1  C1  UNL     1      19.303   2.677  52.296  1.00  0.00     0.026 C 
HETATM    2  C2  UNL     1      20.563   2.397  51.424  1.00  0.00     0.033 C 
HETATM    3  C14 UNL     1      21.106   3.684  51.074  1.00  0.00     0.017 C 
HETATM    4  C15 UNL     1      21.677   4.341  50.081  1.00  0.00     0.041 C 
HETATM    5  N3  UNL     1      21.794   5.512  50.837  1.00  0.00    -0.261 NA
HETATM    6  C16 UNL     1      22.452   6.575  51.118  1.00  0.00     0.166 C 
HETATM    7  C17 UNL     1      23.662   7.000  50.532  1.00  0.00     0.138 C 
HETATM    8  N5  UNL     1      24.579   6.591  49.570  1.00  0.00    -0.243 NA
HETATM    9  C18 UNL     1      24.284   5.342  48.882  1.00  0.00     0.116 C 
HETATM   10  C19 UNL     1      23.549   4.346  48.458  1.00  0.00     0.006 C 
HETATM   11  C20 UNL     1      22.071   4.148  48.695  1.00  0.00     0.096 C 
HETATM   12  C21 UNL     1      21.612   3.004  47.925  1.00  0.00     0.264 A 
HETATM   13  C22 UNL     1      22.706   1.939  47.750  1.00  0.00     0.309 A 
HETATM   14  N6  UNL     1      21.359   1.742  48.240  1.00  0.00     0.098 N 
HETATM   15  C23 UNL     1      21.083   1.043  49.382  1.00  0.00     0.274 C 
HETATM   16  C24 UNL     1      20.001   1.678  50.212  1.00  0.00     0.050 C 
ENDROOT
BRANCH   2  17
HETATM   17  C3  UNL     1      21.363   1.490  52.273  1.00  0.00     0.195 A 
HETATM   18  N1  UNL     1      21.248   0.502  53.102  1.00  0.00     0.157 N 
HETATM   19  C4  UNL     1      22.584   0.058  53.633  1.00  0.00     0.242 A 
HETATM   20  C9  UNL     1      21.455   0.014  53.551  1.00  0.00     0.257 A 
HETATM   21  N2  UNL     1      22.392   0.881  52.903  1.00  0.00     0.000 N 
HETATM   22  C5  UNL     1      23.969  -0.014  53.862  1.00  0.00    -0.001 A 
HETATM   23  C8  UNL     1      21.962  -1.018  54.624  1.00  0.00     0.100 A 
HETATM   24  C6  UNL     1      24.284  -0.974  54.855  1.00  0.00     0.005 A 
HETATM   25  C13 UNL     1      25.460   0.222  53.722  1.00  0.00     0.224 C 
HETATM   26  C7  UNL     1      23.058  -1.616  55.343  1.00  0.00    -0.016 A 
HETATM   27  C12 UNL     1      25.700   0.639  52.274  1.00  0.00     0.010 C 
HETATM   28  F1  UNL     1      25.874   1.228  54.541  1.00  0.00    -0.240 F 
HETATM   29  C11 UNL     1      24.607   1.102  51.642  1.00  0.00    -0.027 C 
HETATM   30  C10 UNL     1      23.399   1.802  52.213  1.00  0.00     0.030 C 
ENDBRANCH   2  17
BRANCH   7  31
HETATM   31  N4  UNL     1      24.042   8.257  51.111  1.00  0.00    -0.383 N 
HETATM   32  H14 UNL     1      24.051   8.700  50.134  1.00  0.00     0.157 HD
HETATM   33  H15 UNL     1      24.076   7.971  52.139  1.00  0.00     0.157 HD
ENDBRANCH   7  31
TORSDOF 3
ENDMDL
MODEL 2
REMARK VINA RESULT:      -8.7      1.923      4.206
REMARK  3 active torsions:
REMARK  status: ('A' for Active; 'I' for Inactive)
REMARK    1  A    between atoms: C2_2  and  C3_3 
REMARK    2  A    between atoms: C9_10  and  N2_11 
REMARK    3  A    between atoms: C17_21  and  N4_22 
ROOT
HETATM    1  C1  UNL     1      25.818   3.296  49.293  1.00  0.00     0.026 C 
HETATM    2  C2  UNL     1      24.456   3.760  49.890  1.00  0.00     0.033 C 
HETATM    3  C14 UNL     1      23.597   4.040  48.770  1.00  0.00     0.017 C 
HETATM    4  C15 UNL     1      22.670   4.882  48.349  1.00  0.00     0.041 C 
HETATM    5  N3  UNL     1      22.523   4.212  47.130  1.00  0.00    -0.261 NA
HETATM    6  C16 UNL     1      21.763   3.839  46.168  1.00  0.00     0.166 C 
HETATM    7  C17 UNL     1      20.383   4.096  46.033  1.00  0.00     0.138 C 
HETATM    8  N5  UNL     1      19.348   4.732  46.709  1.00  0.00    -0.243 NA
HETATM    9  C18 UNL     1      19.697   5.379  47.967  1.00  0.00     0.116 C 
HETATM   10  C19 UNL     1      20.478   5.916  48.868  1.00  0.00     0.006 C 
HETATM   11  C20 UNL     1      21.976   6.085  48.779  1.00  0.00     0.096 C 
HETATM   12  C21 UNL     1      22.438   6.864  49.916  1.00  0.00     0.264 A 
HETATM   13  C22 UNL     1      21.569   6.647  51.166  1.00  0.00     0.309 A 
HETATM   14  N6  UNL     1      23.009   6.538  51.067  1.00  0.00     0.098 N 
HETATM   15  C23 UNL     1      23.704   5.469  51.560  1.00  0.00     0.274 C 
HETATM   16  C24 UNL     1      24.816   5.024  50.650  1.00  0.00     0.050 C 
ENDROOT
BRANCH   2  17
HETATM   17  C3  UNL     1      24.100   2.657  50.807  1.00  0.00     0.195 A 
HETATM   18  N1  UNL     1      23.090   1.964  51.227  1.00  0.00     0.157 N 
HETATM   19  C4  UNL     1      23.499   0.940  52.250  1.00  0.00     0.242 A 
HETATM   20  C9  UNL     1      22.750   1.488  51.600  1.00  0.00     0.257 A 
HETATM   21  N2  UNL     1      24.165   1.664  51.722  1.00  0.00     0.000 N 
HETATM   22  C5  UNL     1      24.287   0.175  53.127  1.00  0.00    -0.001 A 
HETATM   23  C8  UNL     1      22.011   0.456  52.530  1.00  0.00     0.100 A 
HETATM   24  C6  UNL     1      23.495  -0.704  53.907  1.00  0.00     0.005 A 
HETATM   25  C13 UNL     1      25.498  -0.423  53.816  1.00  0.00     0.224 C 
HETATM   26  C7  UNL     1      22.078  -0.554  53.554  1.00  0.00    -0.016 A 
HETATM   27  C12 UNL     1      26.650  -0.341  52.820  1.00  0.00     0.010 C 
HETATM   28  F1  UNL     1      25.829   0.290  54.928  1.00  0.00    -0.240 F 
HETATM   29  C11 UNL     1      26.471   0.562  51.839  1.00  0.00    -0.027 C 
HETATM   30  C10 UNL     1      25.678   1.845  51.856  1.00  0.00     0.030 C 
ENDBRANCH   2  17
BRANCH   7  31
HETATM   31  N4  UNL     1      19.925   3.530  44.796  1.00  0.00    -0.383 N 
HETATM   32  H14 UNL     1      20.910   3.146  44.612  1.00  0.00     0.157 HD
HETATM   33  H15 UNL     1      18.904   3.837  44.832  1.00  0.00     0.157 HD
ENDBRANCH   7  31
TORSDOF 3
ENDMDL
MODEL 3
REMARK VINA RESULT:      -8.6      2.297      4.745
REMARK  3 active torsions:
REMARK  status: ('A' for Active; 'I' for Inactive)
REMARK    1  A    between atoms: C2_2  and  C3_3 
REMARK    2  A    between atoms: C9_10  and  N2_11 
REMARK    3  A    between atoms: C17_21  and  N4_22 
ROOT
HETATM    1  C1  UNL     1      25.876   3.694  49.304  1.00  0.00     0.026 C 
HETATM    2  C2  UNL     1      24.501   4.165  49.863  1.00  0.00     0.033 C 
HETATM    3  C14 UNL     1      23.655   4.391  48.720  1.00  0.00     0.017 C 
HETATM    4  C15 UNL     1      22.725   5.205  48.254  1.00  0.00     0.041 C 
HETATM    5  N3  UNL     1      22.604   4.487  47.059  1.00  0.00    -0.261 NA
HETATM    6  C16 UNL     1      21.862   4.068  46.102  1.00  0.00     0.166 C 
HETATM    7  C17 UNL     1      20.481   4.304  45.937  1.00  0.00     0.138 C 
HETATM    8  N5  UNL     1      19.430   4.953  46.574  1.00  0.00    -0.243 NA
HETATM    9  C18 UNL     1      19.753   5.653  47.809  1.00  0.00     0.116 C 
HETATM   10  C19 UNL     1      20.515   6.234  48.699  1.00  0.00     0.006 C 
HETATM   11  C20 UNL     1      22.012   6.416  48.626  1.00  0.00     0.096 C 
HETATM   12  C21 UNL     1      22.449   7.245  49.737  1.00  0.00     0.264 A 
HETATM   13  C22 UNL     1      21.564   7.067  50.982  1.00  0.00     0.309 A 
HETATM   14  N6  UNL     1      23.006   6.971  50.908  1.00  0.00     0.098 N 
HETATM   15  C23 UNL     1      23.705   5.930  51.453  1.00  0.00     0.274 C 
HETATM   16  C24 UNL     1      24.836   5.462  50.577  1.00  0.00     0.050 C 
ENDROOT
BRANCH   2  17
HETATM   17  C3  UNL     1      24.143   3.095  50.817  1.00  0.00     0.195 A 
HETATM   18  N1  UNL     1      24.668   2.226  51.620  1.00  0.00     0.157 N 
HETATM   19  C4  UNL     1      23.621   1.394  52.309  1.00  0.00     0.242 A 
HETATM   20  C9  UNL     1      24.685   1.704  52.078  1.00  0.00     0.257 A 
HETATM   21  N2  UNL     1      23.448   2.216  51.573  1.00  0.00     0.000 N 
HETATM   22  C5  UNL     1      22.372   0.879  52.696  1.00  0.00    -0.001 A 
HETATM   23  C8  UNL     1      24.678   0.464  53.046  1.00  0.00     0.100 A 
HETATM   24  C6  UNL     1      22.512  -0.236  53.558  1.00  0.00     0.005 A 
HETATM   25  C13 UNL     1      20.872   0.728  52.865  1.00  0.00     0.224 C 
HETATM   26  C7  UNL     1      23.933  -0.513  53.797  1.00  0.00    -0.016 A 
HETATM   27  C12 UNL     1      20.276   2.124  52.726  1.00  0.00     0.010 C 
HETATM   28  F1  UNL     1      20.350  -0.071  51.893  1.00  0.00    -0.240 F 
HETATM   29  C11 UNL     1      21.071   3.007  52.094  1.00  0.00    -0.027 C 
HETATM   30  C10 UNL     1      22.122   2.759  51.039  1.00  0.00     0.030 C 
ENDBRANCH   2  17
BRANCH   7  31
HETATM   31  N4  UNL     1      20.048   3.684  44.718  1.00  0.00    -0.383 N 
HETATM   32  H14 UNL     1      19.690   2.842  45.278  1.00  0.00     0.157 HD
HETATM   33  H15 UNL     1      20.347   4.437  44.024  1.00  0.00     0.157 HD
ENDBRANCH   7  31
TORSDOF 3
ENDMDL
MODEL 4
REMARK VINA RESULT:      -8.4      2.136      3.043
REMARK  3 active torsions:
REMARK  status: ('A' for Active; 'I' for Inactive)
REMARK    1  A    between atoms: C2_2  and  C3_3 
REMARK    2  A    between atoms: C9_10  and  N2_11 
REMARK    3  A    between atoms: C17_21  and  N4_22 
ROOT
HETATM    1  C1  UNL     1      17.707   4.457  50.797  1.00  0.00     0.026 C 
HETATM    2  C2  UNL     1      18.912   3.673  50.198  1.00  0.00     0.033 C 
HETATM    3  C14 UNL     1      20.055   4.541  50.307  1.00  0.00     0.017 C 
HETATM    4  C15 UNL     1      21.144   4.920  49.663  1.00  0.00     0.041 C 
HETATM    5  N3  UNL     1      21.525   5.793  50.688  1.00  0.00    -0.261 NA
HETATM    6  C16 UNL     1      22.460   6.350  51.363  1.00  0.00     0.166 C 
HETATM    7  C17 UNL     1      23.849   6.168  51.193  1.00  0.00     0.138 C 
HETATM    8  N5  UNL     1      24.738   5.453  50.400  1.00  0.00    -0.243 NA
HETATM    9  C18 UNL     1      24.152   4.595  49.380  1.00  0.00     0.116 C 
HETATM   10  C19 UNL     1      23.229   4.149  48.568  1.00  0.00     0.006 C 
HETATM   11  C20 UNL     1      21.831   4.695  48.401  1.00  0.00     0.096 C 
HETATM   12  C21 UNL     1      21.181   4.018  47.292  1.00  0.00     0.264 A 
HETATM   13  C22 UNL     1      21.672   2.571  47.121  1.00  0.00     0.309 A 
HETATM   14  N6  UNL     1      20.302   3.028  47.223  1.00  0.00     0.098 N 
HETATM   15  C23 UNL     1      19.393   2.450  48.065  1.00  0.00     0.274 C 
HETATM   16  C24 UNL     1      18.509   3.456  48.751  1.00  0.00     0.050 C 
ENDROOT
BRANCH   2  17
HETATM   17  C3  UNL     1      18.900   2.407  50.961  1.00  0.00     0.195 A 
HETATM   18  N1  UNL     1      18.168   1.367  51.202  1.00  0.00     0.157 N 
HETATM   19  C4  UNL     1      18.837   0.420  52.161  1.00  0.00     0.242 A 
HETATM   20  C9  UNL     1      17.991   0.760  51.489  1.00  0.00     0.257 A 
HETATM   21  N2  UNL     1      19.245   1.387  51.779  1.00  0.00     0.000 N 
HETATM   22  C5  UNL     1      19.780  -0.139  53.040  1.00  0.00    -0.001 A 
HETATM   23  C8  UNL     1      17.595  -0.570  52.231  1.00  0.00     0.100 A 
HETATM   24  C6  UNL     1      19.293  -1.325  53.643  1.00  0.00     0.005 A 
HETATM   25  C13 UNL     1      21.074  -0.375  53.796  1.00  0.00     0.224 C 
HETATM   26  C7  UNL     1      17.940  -1.619  53.155  1.00  0.00    -0.016 A 
HETATM   27  C12 UNL     1      22.190   0.218  52.942  1.00  0.00     0.010 C 
HETATM   28  F1  UNL     1      21.059   0.261  55.000  1.00  0.00    -0.240 F 
HETATM   29  C11 UNL     1      21.776   1.124  52.038  1.00  0.00    -0.027 C 
HETATM   30  C10 UNL     1      20.586   2.050  52.092  1.00  0.00     0.030 C 
ENDBRANCH   2  17
BRANCH   7  31
HETATM   31  N4  UNL     1      24.544   7.001  52.133  1.00  0.00    -0.383 N 
HETATM   32  H14 UNL     1      24.723   6.144  52.753  1.00  0.00     0.157 HD
HETATM   33  H15 UNL     1      24.452   7.939  51.635  1.00  0.00     0.157 HD
ENDBRANCH   7  31
TORSDOF 3
ENDMDL
MODEL 5
REMARK VINA RESULT:      -8.2      7.688     11.574
REMARK  3 active torsions:
REMARK  status: ('A' for Active; 'I' for Inactive)
REMARK    1  A    between atoms: C2_2  and  C3_3 
REMARK    2  A    between atoms: C9_10  and  N2_11 
REMARK    3  A    between atoms: C17_21  and  N4_22 
ROOT
HETATM    1  C1  UNL     1      31.374   9.702  48.581  1.00  0.00     0.026 C 
HETATM    2  C2  UNL     1      31.205   8.836  47.297  1.00  0.00     0.033 C 
HETATM    3  C14 UNL     1      32.150   7.756  47.410  1.00  0.00     0.017 C 
HETATM    4  C15 UNL     1      32.991   7.025  46.701  1.00  0.00     0.041 C 
HETATM    5  N3  UNL     1      33.375   6.270  47.814  1.00  0.00    -0.261 NA
HETATM    6  C16 UNL     1      33.754   5.146  48.299  1.00  0.00     0.166 C 
HETATM    7  C17 UNL     1      33.958   3.944  47.589  1.00  0.00     0.138 C 
HETATM    8  N5  UNL     1      33.871   3.447  46.294  1.00  0.00    -0.243 NA
HETATM    9  C18 UNL     1      33.455   4.389  45.263  1.00  0.00     0.116 C 
HETATM   10  C19 UNL     1      33.236   5.558  44.719  1.00  0.00     0.006 C 
HETATM   11  C20 UNL     1      33.497   6.908  45.343  1.00  0.00     0.096 C 
HETATM   12  C21 UNL     1      33.266   7.946  44.353  1.00  0.00     0.264 A 
HETATM   13  C22 UNL     1      32.183   7.553  43.335  1.00  0.00     0.309 A 
HETATM   14  N6  UNL     1      32.252   8.767  44.120  1.00  0.00     0.098 N 
HETATM   15  C23 UNL     1      31.187   9.251  44.827  1.00  0.00     0.274 C 
HETATM   16  C24 UNL     1      31.576   9.790  46.177  1.00  0.00     0.050 C 
ENDROOT
BRANCH   2  17
HETATM   17  C3  UNL     1      29.760   8.524  47.291  1.00  0.00     0.195 A 
HETATM   18  N1  UNL     1      28.634   8.918  46.789  1.00  0.00     0.157 N 
HETATM   19  C4  UNL     1      27.482   8.078  47.271  1.00  0.00     0.242 A 
HETATM   20  C9  UNL     1      27.948   8.924  46.679  1.00  0.00     0.257 A 
HETATM   21  N2  UNL     1      28.559   7.957  47.540  1.00  0.00     0.000 N 
HETATM   22  C5  UNL     1      26.745   7.092  47.948  1.00  0.00    -0.001 A 
HETATM   23  C8  UNL     1      26.382   8.954  46.529  1.00  0.00     0.100 A 
HETATM   24  C6  UNL     1      25.353   7.241  47.733  1.00  0.00     0.005 A 
HETATM   25  C13 UNL     1      26.411   5.862  48.771  1.00  0.00     0.224 C 
HETATM   26  C7  UNL     1      25.099   8.387  46.852  1.00  0.00    -0.016 A 
HETATM   27  C12 UNL     1      27.596   4.911  48.632  1.00  0.00     0.010 C 
HETATM   28  F1  UNL     1      26.257   6.181  50.085  1.00  0.00    -0.240 F 
HETATM   29  C11 UNL     1      28.738   5.502  48.237  1.00  0.00    -0.027 C 
HETATM   30  C10 UNL     1      29.205   6.920  48.459  1.00  0.00     0.030 C 
ENDBRANCH   2  17
BRANCH   7  31
HETATM   31  N4  UNL     1      34.410   2.936  48.504  1.00  0.00    -0.383 N 
HETATM   32  H14 UNL     1      35.119   3.629  48.911  1.00  0.00     0.157 HD
HETATM   33  H15 UNL     1      33.765   2.137  48.214  1.00  0.00     0.157 HD
ENDBRANCH   7  31
TORSDOF 3
ENDMDL
MODEL 6
REMARK VINA RESULT:      -7.9      8.262     11.802
REMARK  3 active torsions:
REMARK  status: ('A' for Active; 'I' for Inactive)
REMARK    1  A    between atoms: C2_2  and  C3_3 
REMARK    2  A    between atoms: C9_10  and  N2_11 
REMARK    3  A    between atoms: C17_21  and  N4_22 
ROOT
HETATM    1  C1  UNL     1      32.052   3.971  47.458  1.00  0.00     0.026 C 
HETATM    2  C2  UNL     1      31.938   5.518  47.326  1.00  0.00     0.033 C 
HETATM    3  C14 UNL     1      32.418   5.850  46.010  1.00  0.00     0.017 C 
HETATM    4  C15 UNL     1      33.124   6.751  45.352  1.00  0.00     0.041 C 
HETATM    5  N3  UNL     1      32.948   6.092  44.131  1.00  0.00    -0.261 NA
HETATM    6  C16 UNL     1      32.804   6.159  42.859  1.00  0.00     0.166 C 
HETATM    7  C17 UNL     1      32.776   7.329  42.072  1.00  0.00     0.138 C 
HETATM    8  N5  UNL     1      32.860   8.709  42.215  1.00  0.00    -0.243 NA
HETATM    9  C18 UNL     1      33.047   9.211  43.569  1.00  0.00     0.116 C 
HETATM   10  C19 UNL     1      33.366   9.163  44.837  1.00  0.00     0.006 C 
HETATM   11  C20 UNL     1      33.888   7.965  45.593  1.00  0.00     0.096 C 
HETATM   12  C21 UNL     1      34.265   8.372  46.936  1.00  0.00     0.264 A 
HETATM   13  C22 UNL     1      33.404   9.535  47.457  1.00  0.00     0.309 A 
HETATM   14  N6  UNL     1      33.667   8.273  48.115  1.00  0.00     0.098 N 
HETATM   15  C23 UNL     1      32.677   7.505  48.661  1.00  0.00     0.274 C 
HETATM   16  C24 UNL     1      32.868   6.034  48.408  1.00  0.00     0.050 C 
ENDROOT
BRANCH   2  17
HETATM   17  C3  UNL     1      30.521   5.779  47.657  1.00  0.00     0.195 A 
HETATM   18  N1  UNL     1      29.504   5.261  48.268  1.00  0.00     0.157 N 
HETATM   19  C4  UNL     1      28.289   6.144  48.180  1.00  0.00     0.242 A 
HETATM   20  C9  UNL     1      28.850   5.213  48.498  1.00  0.00     0.257 A 
HETATM   21  N2  UNL     1      29.299   6.348  47.749  1.00  0.00     0.000 N 
HETATM   22  C5  UNL     1      27.446   7.222  47.858  1.00  0.00    -0.001 A 
HETATM   23  C8  UNL     1      27.339   5.107  48.922  1.00  0.00     0.100 A 
HETATM   24  C6  UNL     1      26.116   6.992  48.289  1.00  0.00     0.005 A 
HETATM   25  C13 UNL     1      26.975   8.578  47.370  1.00  0.00     0.224 C 
HETATM   26  C7  UNL     1      26.022   5.688  48.957  1.00  0.00    -0.016 A 
HETATM   27  C12 UNL     1      28.171   9.518  47.476  1.00  0.00     0.010 C 
HETATM   28  F1  UNL     1      26.579   8.518  46.069  1.00  0.00    -0.240 F 
HETATM   29  C11 UNL     1      29.362   8.896  47.531  1.00  0.00    -0.027 C 
HETATM   30  C10 UNL     1      29.770   7.564  46.951  1.00  0.00     0.030 C 
ENDBRANCH   2  17
BRANCH   7  31
HETATM   31  N4  UNL     1      32.629   6.957  40.694  1.00  0.00    -0.383 N 
HETATM   32  H14 UNL     1      33.526   7.494  40.457  1.00  0.00     0.157 HD
HETATM   33  H15 UNL     1      31.731   6.384  40.763  1.00  0.00     0.157 HD
ENDBRANCH   7  31
TORSDOF 3
ENDMDL
MODEL 7
REMARK VINA RESULT:      -7.8      6.720     10.435
REMARK  3 active torsions:
REMARK  status: ('A' for Active; 'I' for Inactive)
REMARK    1  A    between atoms: C2_2  and  C3_3 
REMARK    2  A    between atoms: C9_10  and  N2_11 
REMARK    3  A    between atoms: C17_21  and  N4_22 
ROOT
HETATM    1  C1  UNL     1      31.358   6.137  46.911  1.00  0.00     0.026 C 
HETATM    2  C2  UNL     1      30.518   7.362  47.381  1.00  0.00     0.033 C 
HETATM    3  C14 UNL     1      30.472   8.273  46.267  1.00  0.00     0.017 C 
HETATM    4  C15 UNL     1      30.511   9.558  45.967  1.00  0.00     0.041 C 
HETATM    5  N3  UNL     1      30.380   9.309  44.597  1.00  0.00    -0.261 NA
HETATM    6  C16 UNL     1      29.931   9.674  43.453  1.00  0.00     0.166 C 
HETATM    7  C17 UNL     1      29.187  10.838  43.170  1.00  0.00     0.138 C 
HETATM    8  N5  UNL     1      28.657  11.947  43.821  1.00  0.00    -0.243 NA
HETATM    9  C18 UNL     1      28.901  12.035  45.254  1.00  0.00     0.116 C 
HETATM   10  C19 UNL     1      29.490  11.776  46.393  1.00  0.00     0.006 C 
HETATM   11  C20 UNL     1      30.664  10.852  46.613  1.00  0.00     0.096 C 
HETATM   12  C21 UNL     1      31.111  10.965  47.991  1.00  0.00     0.264 A 
HETATM   13  C22 UNL     1      29.960  11.300  48.954  1.00  0.00     0.309 A 
HETATM   14  N6  UNL     1      30.918  10.222  49.071  1.00  0.00     0.098 N 
HETATM   15  C23 UNL     1      30.548   8.932  49.333  1.00  0.00     0.274 C 
HETATM   16  C24 UNL     1      31.330   7.925  48.533  1.00  0.00     0.050 C 
ENDROOT
BRANCH   2  17
HETATM   17  C3  UNL     1      29.261   6.744  47.852  1.00  0.00     0.195 A 
HETATM   18  N1  UNL     1      28.784   5.644  48.341  1.00  0.00     0.157 N 
HETATM   19  C4  UNL     1      27.302   5.734  48.583  1.00  0.00     0.242 A 
HETATM   20  C9  UNL     1      28.303   5.205  48.583  1.00  0.00     0.257 A 
HETATM   21  N2  UNL     1      27.965   6.535  48.174  1.00  0.00     0.000 N 
HETATM   22  C5  UNL     1      25.989   6.234  48.636  1.00  0.00    -0.001 A 
HETATM   23  C8  UNL     1      27.167   4.218  49.041  1.00  0.00     0.100 A 
HETATM   24  C6  UNL     1      25.070   5.241  49.055  1.00  0.00     0.005 A 
HETATM   25  C13 UNL     1      24.817   7.196  48.593  1.00  0.00     0.224 C 
HETATM   26  C7  UNL     1      25.775   3.980  49.317  1.00  0.00    -0.016 A 
HETATM   27  C12 UNL     1      25.379   8.579  48.902  1.00  0.00     0.010 C 
HETATM   28  F1  UNL     1      24.251   7.219  47.355  1.00  0.00    -0.240 F 
HETATM   29  C11 UNL     1      26.704   8.697  48.707  1.00  0.00    -0.027 C 
HETATM   30  C10 UNL     1      27.595   7.954  47.741  1.00  0.00     0.030 C 
ENDBRANCH   2  17
BRANCH   7  31
HETATM   31  N4  UNL     1      28.912  10.882  41.762  1.00  0.00    -0.383 N 
HETATM   32  H14 UNL     1      27.868  10.739  41.966  1.00  0.00     0.157 HD
HETATM   33  H15 UNL     1      29.903  11.028  41.396  1.00  0.00     0.157 HD
ENDBRANCH   7  31
TORSDOF 3
ENDMDL
MODEL 8
REMARK VINA RESULT:      -7.8      2.484      4.601
REMARK  3 active torsions:
REMARK  status: ('A' for Active; 'I' for Inactive)
REMARK    1  A    between atoms: C2_2  and  C3_3 
REMARK    2  A    between atoms: C9_10  and  N2_11 
REMARK    3  A    between atoms: C17_21  and  N4_22 
ROOT
HETATM    1  C1  UNL     1      24.119   2.521  50.011  1.00  0.00     0.026 C 
HETATM    2  C2  UNL     1      22.761   3.282  50.044  1.00  0.00     0.033 C 
HETATM    3  C14 UNL     1      22.490   3.685  48.689  1.00  0.00     0.017 C 
HETATM    4  C15 UNL     1      21.999   4.682  47.974  1.00  0.00     0.041 C 
HETATM    5  N3  UNL     1      22.209   4.005  46.768  1.00  0.00    -0.261 NA
HETATM    6  C16 UNL     1      21.829   3.756  45.569  1.00  0.00     0.166 C 
HETATM    7  C17 UNL     1      20.699   4.288  44.913  1.00  0.00     0.138 C 
HETATM    8  N5  UNL     1      19.638   5.153  45.155  1.00  0.00    -0.243 NA
HETATM    9  C18 UNL     1      19.589   5.767  46.474  1.00  0.00     0.116 C 
HETATM   10  C19 UNL     1      20.046   6.169  47.632  1.00  0.00     0.006 C 
HETATM   11  C20 UNL     1      21.458   6.020  48.147  1.00  0.00     0.096 C 
HETATM   12  C21 UNL     1      21.586   6.735  49.406  1.00  0.00     0.264 A 
HETATM   13  C22 UNL     1      20.272   6.757  50.203  1.00  0.00     0.309 A 
HETATM   14  N6  UNL     1      21.577   6.348  50.674  1.00  0.00     0.098 N 
HETATM   15  C23 UNL     1      21.784   5.180  51.354  1.00  0.00     0.274 C 
HETATM   16  C24 UNL     1      23.046   4.475  50.937  1.00  0.00     0.050 C 
ENDROOT
BRANCH   2  17
HETATM   17  C3  UNL     1      21.852   2.317  50.698  1.00  0.00     0.195 A 
HETATM   18  N1  UNL     1      20.725   1.702  50.532  1.00  0.00     0.157 N 
HETATM   19  C4  UNL     1      20.391   0.819  51.704  1.00  0.00     0.242 A 
HETATM   20  C9  UNL     1      20.193   1.285  50.691  1.00  0.00     0.257 A 
HETATM   21  N2  UNL     1      21.301   1.455  51.581  1.00  0.00     0.000 N 
HETATM   22  C5  UNL     1      20.473   0.166  52.946  1.00  0.00    -0.001 A 
HETATM   23  C8  UNL     1      18.970   0.398  51.129  1.00  0.00     0.100 A 
HETATM   24  C6  UNL     1      19.305  -0.587  53.218  1.00  0.00     0.005 A 
HETATM   25  C13 UNL     1      21.024  -0.351  54.261  1.00  0.00     0.224 C 
HETATM   26  C7  UNL     1      18.356  -0.465  52.104  1.00  0.00    -0.016 A 
HETATM   27  C12 UNL     1      22.539  -0.420  54.100  1.00  0.00     0.010 C 
HETATM   28  F1  UNL     1      20.730   0.500  55.282  1.00  0.00    -0.240 F 
HETATM   29  C11 UNL     1      23.028   0.345  53.108  1.00  0.00    -0.027 C 
HETATM   30  C10 UNL     1      22.481   1.631  52.537  1.00  0.00     0.030 C 
ENDBRANCH   2  17
BRANCH   7  31
HETATM   31  N4  UNL     1      20.658   3.776  43.573  1.00  0.00    -0.383 N 
HETATM   32  H14 UNL     1      21.665   4.109  43.419  1.00  0.00     0.157 HD
HETATM   33  H15 UNL     1      19.664   3.386  43.567  1.00  0.00     0.157 HD
ENDBRANCH   7  31
TORSDOF 3
ENDMDL
MODEL 9
REMARK VINA RESULT:      -7.4      2.185      3.045
REMARK  3 active torsions:
REMARK  status: ('A' for Active; 'I' for Inactive)
REMARK    1  A    between atoms: C2_2  and  C3_3 
REMARK    2  A    between atoms: C9_10  and  N2_11 
REMARK    3  A    between atoms: C17_21  and  N4_22 
ROOT
HETATM    1  C1  UNL     1      18.782   3.407  51.573  1.00  0.00     0.026 C 
HETATM    2  C2  UNL     1      19.917   3.496  50.511  1.00  0.00     0.033 C 
HETATM    3  C14 UNL     1      19.902   4.847  50.014  1.00  0.00     0.017 C 
HETATM    4  C15 UNL     1      20.046   5.554  48.908  1.00  0.00     0.041 C 
HETATM    5  N3  UNL     1      19.840   6.764  49.578  1.00  0.00    -0.261 NA
HETATM    6  C16 UNL     1      20.103   8.013  49.692  1.00  0.00     0.166 C 
HETATM    7  C17 UNL     1      20.979   8.770  48.886  1.00  0.00     0.138 C 
HETATM    8  N5  UNL     1      21.832   8.608  47.800  1.00  0.00    -0.243 NA
HETATM    9  C18 UNL     1      21.912   7.270  47.232  1.00  0.00     0.116 C 
HETATM   10  C19 UNL     1      21.534   6.042  46.987  1.00  0.00     0.006 C 
HETATM   11  C20 UNL     1      20.278   5.367  47.484  1.00  0.00     0.096 C 
HETATM   12  C21 UNL     1      20.157   4.061  46.859  1.00  0.00     0.264 A 
HETATM   13  C22 UNL     1      21.524   3.432  46.547  1.00  0.00     0.309 A 
HETATM   14  N6  UNL     1      20.425   2.830  47.271  1.00  0.00     0.098 N 
HETATM   15  C23 UNL     1      20.590   2.202  48.474  1.00  0.00     0.274 C 
HETATM   16  C24 UNL     1      19.483   2.503  49.448  1.00  0.00     0.050 C 
ENDROOT
BRANCH   2  17
HETATM   17  C3  UNL     1      21.104   3.018  51.249  1.00  0.00     0.195 A 
HETATM   18  N1  UNL     1      22.311   3.359  51.572  1.00  0.00     0.157 N 
HETATM   19  C4  UNL     1      22.997   2.294  52.384  1.00  0.00     0.242 A 
HETATM   20  C9  UNL     1      22.943   3.293  51.854  1.00  0.00     0.257 A 
HETATM   21  N2  UNL     1      21.956   2.264  51.980  1.00  0.00     0.000 N 
HETATM   22  C5  UNL     1      23.236   1.093  53.073  1.00  0.00    -0.001 A 
HETATM   23  C8  UNL     1      24.386   3.064  52.435  1.00  0.00     0.100 A 
HETATM   24  C6  UNL     1      24.574   1.014  53.534  1.00  0.00     0.005 A 
HETATM   25  C13 UNL     1      23.003  -0.246  53.746  1.00  0.00     0.224 C 
HETATM   26  C7  UNL     1      25.309   2.226  53.156  1.00  0.00    -0.016 A 
HETATM   27  C12 UNL     1      21.539  -0.270  54.171  1.00  0.00     0.010 C 
HETATM   28  F1  UNL     1      23.225  -1.273  52.880  1.00  0.00    -0.240 F 
HETATM   29  C11 UNL     1      20.756   0.606  53.516  1.00  0.00    -0.027 C 
HETATM   30  C10 UNL     1      20.907   1.160  52.120  1.00  0.00     0.030 C 
ENDBRANCH   2  17
BRANCH   7  31
HETATM   31  N4  UNL     1      20.959  10.133  49.333  1.00  0.00    -0.383 N 
HETATM   32  H14 UNL     1      21.647   9.882  50.117  1.00  0.00     0.157 HD
HETATM   33  H15 UNL     1      20.283  10.542  48.616  1.00  0.00     0.157 HD
ENDBRANCH   7  31
TORSDOF 3
ENDMDL
