MODEL 1
REMARK VINA RESULT:      -9.3      0.000      0.000
REMARK  4 active torsions:
REMARK  status: ('A' for Active; 'I' for Inactive)
REMARK    1  A    between atoms: C2_2  and  C3_3 
REMARK    2  A    between atoms: C3_3  and  N1_4 
REMARK    3  A    between atoms: C5_7  and  N3_8 
REMARK    4  A    between atoms: N3_8  and  C6_9 
ROOT
HETATM    1  N1  UNL     1      22.568   0.695  52.901  1.00  0.00    -0.252 N 
HETATM    2  C4  UNL     1      23.477   1.818  53.043  1.00  0.00     0.235 C 
HETATM    3  N2  UNL     1      24.106   1.768  51.927  1.00  0.00    -0.224 NA
HETATM    4  C5  UNL     1      25.117   2.575  51.430  1.00  0.00     0.134 C 
HETATM    5  C12 UNL     1      25.138   3.167  50.241  1.00  0.00    -0.007 C 
HETATM    6  C13 UNL     1      26.275   4.026  49.784  1.00  0.00     0.050 C 
HETATM    7  C14 UNL     1      24.169   3.188  49.082  1.00  0.00     0.182 C 
HETATM    8  C15 UNL     1      23.026   2.344  49.580  1.00  0.00     0.309 C 
HETATM    9  N4  UNL     1      21.921   2.163  48.706  1.00  0.00     0.093 N 
HETATM   10  C16 UNL     1      20.726   2.299  49.507  1.00  0.00     0.275 C 
HETATM   11  C17 UNL     1      20.223   1.082  50.172  1.00  0.00     0.059 C 
HETATM   12  C18 UNL     1      21.100   0.400  51.155  1.00  0.00     0.203 C 
HETATM   13  O1  UNL     1      21.495   1.155  52.223  1.00  0.00    -0.277 OA
HETATM   14  C19 UNL     1      21.928   3.212  47.709  1.00  0.00     0.298 C 
HETATM   15  C20 UNL     1      22.483   4.513  48.224  1.00  0.00     0.199 C 
HETATM   16  O2  UNL     1      23.778   4.432  48.711  1.00  0.00    -0.378 OA
ENDROOT
BRANCH   4  17
HETATM   17  N3  UNL     1      26.271   2.834  52.215  1.00  0.00    -0.341 N 
HETATM   18  H9  UNL     1      26.524   3.806  52.487  1.00  0.00     0.167 HD
BRANCH  17  19
HETATM   19  C6  UNL     1      27.095   1.745  52.637  1.00  0.00     0.035 A 
HETATM   20  C7  UNL     1      28.271   2.029  53.326  1.00  0.00     0.032 A 
HETATM   21  C8  UNL     1      29.075   0.962  53.739  1.00  0.00     0.046 A 
HETATM   22  C9  UNL     1      28.711  -0.355  53.469  1.00  0.00     0.138 A 
HETATM   23  F1  UNL     1      29.459  -1.411  53.850  1.00  0.00    -0.204 F 
HETATM   24  C10 UNL     1      27.537  -0.574  52.784  1.00  0.00     0.074 A 
HETATM   25 CL1  UNL     1      27.015  -2.212  52.408  1.00  0.00    -0.081 Cl
HETATM   26  C11 UNL     1      26.715   0.445  52.358  1.00  0.00     0.056 A 
ENDBRANCH  17  19
ENDBRANCH   4  17
BRANCH   1  27
HETATM   27  C3  UNL     1      23.222  -0.423  53.552  1.00  0.00     0.156 C 
BRANCH  27  28
HETATM   28  C2  UNL     1      22.439  -0.893  54.757  1.00  0.00     0.018 C 
HETATM   29  C1  UNL     1      21.218  -1.660  54.329  1.00  0.00     0.007 C 
ENDBRANCH  27  28
ENDBRANCH   1  27
TORSDOF 4
ENDMDL
MODEL 2
REMARK VINA RESULT:      -8.7      3.662      7.218
REMARK  4 active torsions:
REMARK  status: ('A' for Active; 'I' for Inactive)
REMARK    1  A    between atoms: C2_2  and  C3_3 
REMARK    2  A    between atoms: C3_3  and  N1_4 
REMARK    3  A    between atoms: C5_7  and  N3_8 
REMARK    4  A    between atoms: N3_8  and  C6_9 
ROOT
HETATM    1  N1  UNL     1      23.005   3.431  51.146  1.00  0.00    -0.252 N 
HETATM    2  C4  UNL     1      22.502   3.035  52.450  1.00  0.00     0.235 C 
HETATM    3  N2  UNL     1      22.663   1.764  52.399  1.00  0.00    -0.224 NA
HETATM    4  C5  UNL     1      22.378   0.786  53.339  1.00  0.00     0.134 C 
HETATM    5  C12 UNL     1      23.210  -0.157  53.768  1.00  0.00    -0.007 C 
HETATM    6  C13 UNL     1      22.819  -1.177  54.791  1.00  0.00     0.050 C 
HETATM    7  C14 UNL     1      24.643  -0.500  53.433  1.00  0.00     0.182 C 
HETATM    8  C15 UNL     1      25.019   0.557  52.429  1.00  0.00     0.309 C 
HETATM    9  N4  UNL     1      26.337   0.516  51.904  1.00  0.00     0.093 N 
HETATM   10  C16 UNL     1      26.819   1.878  51.874  1.00  0.00     0.275 C 
HETATM   11  C17 UNL     1      26.512   2.672  50.669  1.00  0.00     0.059 C 
HETATM   12  C18 UNL     1      25.089   2.909  50.322  1.00  0.00     0.203 C 
HETATM   13  O1  UNL     1      24.344   3.549  51.273  1.00  0.00    -0.277 OA
HETATM   14  C19 UNL     1      27.180  -0.250  52.796  1.00  0.00     0.298 C 
HETATM   15  C20 UNL     1      26.774  -0.129  54.241  1.00  0.00     0.199 C 
HETATM   16  O2  UNL     1      25.472  -0.521  54.506  1.00  0.00    -0.378 OA
ENDROOT
BRANCH   4  17
HETATM   17  N3  UNL     1      21.093   0.729  53.940  1.00  0.00    -0.341 N 
HETATM   18  H9  UNL     1      20.957   1.003  54.933  1.00  0.00     0.167 HD
BRANCH  17  19
HETATM   19  C6  UNL     1      19.975   0.288  53.167  1.00  0.00     0.035 A 
HETATM   20  C7  UNL     1      19.633   1.006  52.023  1.00  0.00     0.032 A 
HETATM   21  C8  UNL     1      18.539   0.573  51.268  1.00  0.00     0.046 A 
HETATM   22  C9  UNL     1      17.806  -0.550  51.648  1.00  0.00     0.138 A 
HETATM   23  F1  UNL     1      16.744  -0.998  50.946  1.00  0.00    -0.204 F 
HETATM   24  C10 UNL     1      18.191  -1.218  52.787  1.00  0.00     0.074 A 
HETATM   25 CL1  UNL     1      17.311  -2.643  53.326  1.00  0.00    -0.081 Cl
HETATM   26  C11 UNL     1      19.261  -0.828  53.562  1.00  0.00     0.056 A 
ENDBRANCH  17  19
ENDBRANCH   4  17
BRANCH   1  27
HETATM   27  C3  UNL     1      21.841   3.522  50.288  1.00  0.00     0.156 C 
BRANCH  27  28
HETATM   28  C2  UNL     1      22.100   2.889  48.939  1.00  0.00     0.018 C 
HETATM   29  C1  UNL     1      21.700   1.439  48.949  1.00  0.00     0.007 C 
ENDBRANCH  27  28
ENDBRANCH   1  27
TORSDOF 4
ENDMDL
MODEL 3
REMARK VINA RESULT:      -8.6      3.686      7.275
REMARK  4 active torsions:
REMARK  status: ('A' for Active; 'I' for Inactive)
REMARK    1  A    between atoms: C2_2  and  C3_3 
REMARK    2  A    between atoms: C3_3  and  N1_4 
REMARK    3  A    between atoms: C5_7  and  N3_8 
REMARK    4  A    between atoms: N3_8  and  C6_9 
ROOT
HETATM    1  N1  UNL     1      23.104   3.605  50.988  1.00  0.00    -0.252 N 
HETATM    2  C4  UNL     1      22.535   3.214  52.265  1.00  0.00     0.235 C 
HETATM    3  N2  UNL     1      22.677   1.941  52.218  1.00  0.00    -0.224 NA
HETATM    4  C5  UNL     1      22.333   0.966  53.140  1.00  0.00     0.134 C 
HETATM    5  C12 UNL     1      23.127   0.007  53.604  1.00  0.00    -0.007 C 
HETATM    6  C13 UNL     1      22.672  -1.008  54.605  1.00  0.00     0.050 C 
HETATM    7  C14 UNL     1      24.568  -0.360  53.334  1.00  0.00     0.182 C 
HETATM    8  C15 UNL     1      25.008   0.693  52.352  1.00  0.00     0.309 C 
HETATM    9  N4  UNL     1      26.348   0.631  51.887  1.00  0.00     0.093 N 
HETATM   10  C16 UNL     1      26.854   1.985  51.884  1.00  0.00     0.275 C 
HETATM   11  C17 UNL     1      26.616   2.787  50.669  1.00  0.00     0.059 C 
HETATM   12  C18 UNL     1      25.214   3.049  50.259  1.00  0.00     0.203 C 
HETATM   13  O1  UNL     1      24.438   3.699  51.176  1.00  0.00    -0.277 OA
HETATM   14  C19 UNL     1      27.136  -0.152  52.815  1.00  0.00     0.298 C 
HETATM   15  C20 UNL     1      26.666  -0.028  54.240  1.00  0.00     0.199 C 
HETATM   16  O2  UNL     1      25.347  -0.398  54.444  1.00  0.00    -0.378 OA
ENDROOT
BRANCH   4  17
HETATM   17  N3  UNL     1      21.021   0.928  53.681  1.00  0.00    -0.341 N 
HETATM   18  H9  UNL     1      20.842   1.208  54.666  1.00  0.00     0.167 HD
BRANCH  17  19
HETATM   19  C6  UNL     1      19.933   0.501  52.859  1.00  0.00     0.035 A 
HETATM   20  C7  UNL     1      19.209  -0.624  53.246  1.00  0.00     0.032 A 
HETATM   21  C8  UNL     1      18.144  -1.041  52.441  1.00  0.00     0.046 A 
HETATM   22  C9  UNL     1      17.813  -0.348  51.279  1.00  0.00     0.138 A 
HETATM   23  F1  UNL     1      16.793  -0.719  50.476  1.00  0.00    -0.204 F 
HETATM   24  C10 UNL     1      18.563   0.756  50.948  1.00  0.00     0.074 A 
HETATM   25 CL1  UNL     1      18.201   1.678  49.493  1.00  0.00    -0.081 Cl
HETATM   26  C11 UNL     1      19.620   1.202  51.709  1.00  0.00     0.056 A 
ENDBRANCH  17  19
ENDBRANCH   4  17
BRANCH   1  27
HETATM   27  C3  UNL     1      21.982   3.718  50.077  1.00  0.00     0.156 C 
BRANCH  27  28
HETATM   28  C2  UNL     1      22.293   3.087  48.738  1.00  0.00     0.018 C 
HETATM   29  C1  UNL     1      21.793   1.669  48.692  1.00  0.00     0.007 C 
ENDBRANCH  27  28
ENDBRANCH   1  27
TORSDOF 4
ENDMDL
MODEL 4
REMARK VINA RESULT:      -8.1      3.316      5.228
REMARK  4 active torsions:
REMARK  status: ('A' for Active; 'I' for Inactive)
REMARK    1  A    between atoms: C2_2  and  C3_3 
REMARK    2  A    between atoms: C3_3  and  N1_4 
REMARK    3  A    between atoms: C5_7  and  N3_8 
REMARK    4  A    between atoms: N3_8  and  C6_9 
ROOT
HETATM    1  N1  UNL     1      25.268   1.493  53.393  1.00  0.00    -0.252 N 
HETATM    2  C4  UNL     1      24.775   2.852  53.258  1.00  0.00     0.235 C 
HETATM    3  N2  UNL     1      24.282   2.817  52.075  1.00  0.00    -0.224 NA
HETATM    4  C5  UNL     1      23.650   3.806  51.338  1.00  0.00     0.134 C 
HETATM    5  C12 UNL     1      22.477   3.698  50.722  1.00  0.00    -0.007 C 
HETATM    6  C13 UNL     1      21.864   4.821  49.946  1.00  0.00     0.050 C 
HETATM    7  C14 UNL     1      21.479   2.572  50.593  1.00  0.00     0.182 C 
HETATM    8  C15 UNL     1      22.104   1.469  51.406  1.00  0.00     0.309 C 
HETATM    9  N4  UNL     1      21.396   0.241  51.492  1.00  0.00     0.093 N 
HETATM   10  C16 UNL     1      21.479  -0.195  52.867  1.00  0.00     0.275 C 
HETATM   11  C17 UNL     1      22.653  -1.005  53.244  1.00  0.00     0.059 C 
HETATM   12  C18 UNL     1      24.002  -0.405  53.097  1.00  0.00     0.203 C 
HETATM   13  O1  UNL     1      24.221   0.745  53.802  1.00  0.00    -0.277 OA
HETATM   14  C19 UNL     1      20.005   0.472  51.165  1.00  0.00     0.298 C 
HETATM   15  C20 UNL     1      19.521   1.837  51.574  1.00  0.00     0.199 C 
HETATM   16  O2  UNL     1      20.230   2.888  51.016  1.00  0.00    -0.378 OA
ENDROOT
BRANCH   4  17
HETATM   17  N3  UNL     1      24.257   5.080  51.186  1.00  0.00    -0.341 N 
HETATM   18  H9  UNL     1      23.911   5.903  51.717  1.00  0.00     0.167 HD
BRANCH  17  19
HETATM   19  C6  UNL     1      25.361   5.230  50.290  1.00  0.00     0.035 A 
HETATM   20  C7  UNL     1      26.071   4.093  49.913  1.00  0.00     0.032 A 
HETATM   21  C8  UNL     1      27.149   4.241  49.036  1.00  0.00     0.046 A 
HETATM   22  C9  UNL     1      27.508   5.496  48.548  1.00  0.00     0.138 A 
HETATM   23  F1  UNL     1      28.542   5.680  47.701  1.00  0.00    -0.204 F 
HETATM   24  C10 UNL     1      26.769   6.583  48.956  1.00  0.00     0.074 A 
HETATM   25 CL1  UNL     1      27.166   8.198  48.380  1.00  0.00    -0.081 Cl
HETATM   26  C11 UNL     1      25.700   6.484  49.818  1.00  0.00     0.056 A 
ENDBRANCH  17  19
ENDBRANCH   4  17
BRANCH   1  27
HETATM   27  C3  UNL     1      26.670   1.546  53.027  1.00  0.00     0.156 C 
BRANCH  27  28
HETATM   28  C2  UNL     1      27.502   0.634  53.900  1.00  0.00     0.018 C 
HETATM   29  C1  UNL     1      27.905  -0.602  53.143  1.00  0.00     0.007 C 
ENDBRANCH  27  28
ENDBRANCH   1  27
TORSDOF 4
ENDMDL
MODEL 5
REMARK VINA RESULT:      -8.0      1.782      2.100
REMARK  4 active torsions:
REMARK  status: ('A' for Active; 'I' for Inactive)
REMARK    1  A    between atoms: C2_2  and  C3_3 
REMARK    2  A    between atoms: C3_3  and  N1_4 
REMARK    3  A    between atoms: C5_7  and  N3_8 
REMARK    4  A    between atoms: N3_8  and  C6_9 
ROOT
HETATM    1  N1  UNL     1      20.704   1.639  51.814  1.00  0.00    -0.252 N 
HETATM    2  C4  UNL     1      21.752   2.542  52.255  1.00  0.00     0.235 C 
HETATM    3  N2  UNL     1      22.549   2.501  51.252  1.00  0.00    -0.224 NA
HETATM    4  C5  UNL     1      23.755   3.149  51.039  1.00  0.00     0.134 C 
HETATM    5  C12 UNL     1      24.086   3.859  49.966  1.00  0.00    -0.007 C 
HETATM    6  C13 UNL     1      25.416   4.531  49.818  1.00  0.00     0.050 C 
HETATM    7  C14 UNL     1      23.356   4.200  48.688  1.00  0.00     0.182 C 
HETATM    8  C15 UNL     1      22.015   3.541  48.878  1.00  0.00     0.309 C 
HETATM    9  N4  UNL     1      21.068   3.678  47.829  1.00  0.00     0.093 N 
HETATM   10  C16 UNL     1      19.791   3.948  48.449  1.00  0.00     0.275 C 
HETATM   11  C17 UNL     1      18.978   2.782  48.845  1.00  0.00     0.059 C 
HETATM   12  C18 UNL     1      19.538   1.835  49.840  1.00  0.00     0.203 C 
HETATM   13  O1  UNL     1      19.862   2.372  51.055  1.00  0.00    -0.277 OA
HETATM   14  C19 UNL     1      21.430   4.814  47.008  1.00  0.00     0.298 C 
HETATM   15  C20 UNL     1      22.099   5.915  47.786  1.00  0.00     0.199 C 
HETATM   16  O2  UNL     1      23.254   5.531  48.447  1.00  0.00    -0.378 OA
ENDROOT
BRANCH   4  17
HETATM   17  N3  UNL     1      24.780   3.090  52.020  1.00  0.00    -0.341 N 
HETATM   18  H9  UNL     1      25.105   3.950  52.505  1.00  0.00     0.167 HD
BRANCH  17  19
HETATM   19  C6  UNL     1      25.370   1.829  52.345  1.00  0.00     0.035 A 
HETATM   20  C7  UNL     1      26.422   1.366  51.559  1.00  0.00     0.032 A 
HETATM   21  C8  UNL     1      26.999   0.133  51.879  1.00  0.00     0.046 A 
HETATM   22  C9  UNL     1      26.534  -0.617  52.957  1.00  0.00     0.138 A 
HETATM   23  F1  UNL     1      27.064  -1.810  53.297  1.00  0.00    -0.204 F 
HETATM   24  C10 UNL     1      25.492  -0.107  53.697  1.00  0.00     0.074 A 
HETATM   25 CL1  UNL     1      24.854  -1.001  55.073  1.00  0.00    -0.081 Cl
HETATM   26  C11 UNL     1      24.893   1.101  53.419  1.00  0.00     0.056 A 
ENDBRANCH  17  19
ENDBRANCH   4  17
BRANCH   1  27
HETATM   27  C3  UNL     1      21.032   0.348  52.387  1.00  0.00     0.156 C 
BRANCH  27  28
HETATM   28  C2  UNL     1      21.080   0.413  53.897  1.00  0.00     0.018 C 
HETATM   29  C1  UNL     1      21.277  -0.960  54.480  1.00  0.00     0.007 C 
ENDBRANCH  27  28
ENDBRANCH   1  27
TORSDOF 4
ENDMDL
MODEL 6
REMARK VINA RESULT:      -8.0      3.764      7.252
REMARK  4 active torsions:
REMARK  status: ('A' for Active; 'I' for Inactive)
REMARK    1  A    between atoms: C2_2  and  C3_3 
REMARK    2  A    between atoms: C3_3  and  N1_4 
REMARK    3  A    between atoms: C5_7  and  N3_8 
REMARK    4  A    between atoms: N3_8  and  C6_9 
ROOT
HETATM    1  N1  UNL     1      25.705   2.484  51.351  1.00  0.00    -0.252 N 
HETATM    2  C4  UNL     1      24.574   3.346  51.649  1.00  0.00     0.235 C 
HETATM    3  N2  UNL     1      23.595   2.592  51.307  1.00  0.00    -0.224 NA
HETATM    4  C5  UNL     1      22.230   2.824  51.344  1.00  0.00     0.134 C 
HETATM    5  C12 UNL     1      21.312   2.030  51.887  1.00  0.00    -0.007 C 
HETATM    6  C13 UNL     1      19.853   2.360  51.884  1.00  0.00     0.050 C 
HETATM    7  C14 UNL     1      21.389   0.700  52.598  1.00  0.00     0.182 C 
HETATM    8  C15 UNL     1      22.867   0.408  52.614  1.00  0.00     0.309 C 
HETATM    9  N4  UNL     1      23.286  -0.800  53.230  1.00  0.00     0.093 N 
HETATM   10  C16 UNL     1      24.457  -0.487  54.016  1.00  0.00     0.275 C 
HETATM   11  C17 UNL     1      25.761  -0.546  53.330  1.00  0.00     0.059 C 
HETATM   12  C18 UNL     1      25.994   0.356  52.174  1.00  0.00     0.203 C 
HETATM   13  O1  UNL     1      25.877   1.692  52.431  1.00  0.00    -0.277 OA
HETATM   14  C19 UNL     1      22.244  -1.265  54.121  1.00  0.00     0.298 C 
HETATM   15  C20 UNL     1      21.460  -0.143  54.748  1.00  0.00     0.199 C 
HETATM   16  O2  UNL     1      20.844   0.704  53.840  1.00  0.00    -0.378 OA
ENDROOT
BRANCH   4  17
HETATM   17  N3  UNL     1      21.691   4.003  50.766  1.00  0.00    -0.341 N 
HETATM   18  H9  UNL     1      21.176   4.695  51.346  1.00  0.00     0.167 HD
BRANCH  17  19
HETATM   19  C6  UNL     1      21.861   4.241  49.367  1.00  0.00     0.035 A 
HETATM   20  C7  UNL     1      21.323   3.324  48.467  1.00  0.00     0.032 A 
HETATM   21  C8  UNL     1      21.488   3.558  47.098  1.00  0.00     0.046 A 
HETATM   22  C9  UNL     1      22.175   4.682  46.643  1.00  0.00     0.138 A 
HETATM   23  F1  UNL     1      22.357   4.942  45.331  1.00  0.00    -0.204 F 
HETATM   24  C10 UNL     1      22.684   5.552  47.579  1.00  0.00     0.074 A 
HETATM   25 CL1  UNL     1      23.564   6.991  47.075  1.00  0.00    -0.081 Cl
HETATM   26  C11 UNL     1      22.546   5.361  48.936  1.00  0.00     0.056 A 
ENDBRANCH  17  19
ENDBRANCH   4  17
BRANCH   1  27
HETATM   27  C3  UNL     1      26.145   2.860  50.022  1.00  0.00     0.156 C 
BRANCH  27  28
HETATM   28  C2  UNL     1      26.094   4.359  49.828  1.00  0.00     0.018 C 
HETATM   29  C1  UNL     1      27.141   4.802  48.844  1.00  0.00     0.007 C 
ENDBRANCH  27  28
ENDBRANCH   1  27
TORSDOF 4
ENDMDL
MODEL 7
REMARK VINA RESULT:      -7.8      3.866      6.445
REMARK  4 active torsions:
REMARK  status: ('A' for Active; 'I' for Inactive)
REMARK    1  A    between atoms: C2_2  and  C3_3 
REMARK    2  A    between atoms: C3_3  and  N1_4 
REMARK    3  A    between atoms: C5_7  and  N3_8 
REMARK    4  A    between atoms: N3_8  and  C6_9 
ROOT
HETATM    1  N1  UNL     1      21.492   0.364  52.746  1.00  0.00    -0.252 N 
HETATM    2  C4  UNL     1      22.158   0.697  51.499  1.00  0.00     0.235 C 
HETATM    3  N2  UNL     1      23.039   1.533  51.908  1.00  0.00    -0.224 NA
HETATM    4  C5  UNL     1      24.009   2.229  51.203  1.00  0.00     0.134 C 
HETATM    5  C12 UNL     1      25.303   2.288  51.497  1.00  0.00    -0.007 C 
HETATM    6  C13 UNL     1      26.285   3.065  50.678  1.00  0.00     0.050 C 
HETATM    7  C14 UNL     1      26.139   1.685  52.602  1.00  0.00     0.182 C 
HETATM    8  C15 UNL     1      25.135   0.885  53.390  1.00  0.00     0.309 C 
HETATM    9  N4  UNL     1      25.612   0.176  54.523  1.00  0.00     0.093 N 
HETATM   10  C16 UNL     1      24.984  -1.125  54.498  1.00  0.00     0.275 C 
HETATM   11  C17 UNL     1      23.666  -1.246  55.150  1.00  0.00     0.059 C 
HETATM   12  C18 UNL     1      22.544  -0.424  54.634  1.00  0.00     0.203 C 
HETATM   13  O1  UNL     1      22.222  -0.615  53.320  1.00  0.00    -0.277 OA
HETATM   14  C19 UNL     1      27.043  -0.002  54.404  1.00  0.00     0.298 C 
HETATM   15  C20 UNL     1      27.504  -0.141  52.977  1.00  0.00     0.199 C 
HETATM   16  O2  UNL     1      27.177   0.931  52.162  1.00  0.00    -0.378 OA
ENDROOT
BRANCH   4  17
HETATM   17  N3  UNL     1      23.654   2.973  50.047  1.00  0.00    -0.341 N 
HETATM   18  H9  UNL     1      23.905   2.633  49.097  1.00  0.00     0.167 HD
BRANCH  17  19
HETATM   19  C6  UNL     1      22.942   4.203  50.194  1.00  0.00     0.035 A 
HETATM   20  C7  UNL     1      21.553   4.183  50.094  1.00  0.00     0.032 A 
HETATM   21  C8  UNL     1      20.858   5.388  50.239  1.00  0.00     0.046 A 
HETATM   22  C9  UNL     1      21.536   6.582  50.477  1.00  0.00     0.138 A 
HETATM   23  F1  UNL     1      20.902   7.764  50.621  1.00  0.00    -0.204 F 
HETATM   24  C10 UNL     1      22.909   6.539  50.565  1.00  0.00     0.074 A 
HETATM   25 CL1  UNL     1      23.830   8.009  50.863  1.00  0.00    -0.081 Cl
HETATM   26  C11 UNL     1      23.635   5.377  50.429  1.00  0.00     0.056 A 
ENDBRANCH  17  19
ENDBRANCH   4  17
BRANCH   1  27
HETATM   27  C3  UNL     1      20.336   1.237  52.818  1.00  0.00     0.156 C 
BRANCH  27  28
HETATM   28  C2  UNL     1      19.316   0.890  51.757  1.00  0.00     0.018 C 
HETATM   29  C1  UNL     1      18.521  -0.320  52.163  1.00  0.00     0.007 C 
ENDBRANCH  27  28
ENDBRANCH   1  27
TORSDOF 4
ENDMDL
MODEL 8
REMARK VINA RESULT:      -7.7      3.451      5.987
REMARK  4 active torsions:
REMARK  status: ('A' for Active; 'I' for Inactive)
REMARK    1  A    between atoms: C2_2  and  C3_3 
REMARK    2  A    between atoms: C3_3  and  N1_4 
REMARK    3  A    between atoms: C5_7  and  N3_8 
REMARK    4  A    between atoms: N3_8  and  C6_9 
ROOT
HETATM    1  N1  UNL     1      21.206   2.588  49.146  1.00  0.00    -0.252 N 
HETATM    2  C4  UNL     1      22.537   2.025  49.291  1.00  0.00     0.235 C 
HETATM    3  N2  UNL     1      22.774   2.270  50.527  1.00  0.00    -0.224 NA
HETATM    4  C5  UNL     1      23.888   1.983  51.300  1.00  0.00     0.134 C 
HETATM    5  C12 UNL     1      23.889   1.375  52.481  1.00  0.00    -0.007 C 
HETATM    6  C13 UNL     1      25.143   1.102  53.250  1.00  0.00     0.050 C 
HETATM    7  C14 UNL     1      22.790   0.819  53.357  1.00  0.00     0.182 C 
HETATM    8  C15 UNL     1      21.548   1.077  52.547  1.00  0.00     0.309 C 
HETATM    9  N4  UNL     1      20.309   0.660  53.102  1.00  0.00     0.093 N 
HETATM   10  C16 UNL     1      19.552   0.054  52.032  1.00  0.00     0.275 C 
HETATM   11  C17 UNL     1      18.721   0.951  51.206  1.00  0.00     0.059 C 
HETATM   12  C18 UNL     1      19.391   2.035  50.447  1.00  0.00     0.203 C 
HETATM   13  O1  UNL     1      20.341   1.634  49.550  1.00  0.00    -0.277 OA
HETATM   14  C19 UNL     1      20.558  -0.343  54.116  1.00  0.00     0.298 C 
HETATM   15  C20 UNL     1      21.761  -1.197  53.818  1.00  0.00     0.199 C 
HETATM   16  O2  UNL     1      22.945  -0.491  53.672  1.00  0.00    -0.378 OA
ENDROOT
BRANCH   4  17
HETATM   17  N3  UNL     1      25.183   2.347  50.846  1.00  0.00    -0.341 N 
HETATM   18  H9  UNL     1      25.964   1.661  50.856  1.00  0.00     0.167 HD
BRANCH  17  19
HETATM   19  C6  UNL     1      25.414   3.674  50.369  1.00  0.00     0.035 A 
HETATM   20  C7  UNL     1      26.403   3.872  49.409  1.00  0.00     0.032 A 
HETATM   21  C8  UNL     1      26.627   5.172  48.942  1.00  0.00     0.046 A 
HETATM   22  C9  UNL     1      25.880   6.244  49.425  1.00  0.00     0.138 A 
HETATM   23  F1  UNL     1      26.067   7.511  49.001  1.00  0.00    -0.204 F 
HETATM   24  C10 UNL     1      24.918   5.987  50.374  1.00  0.00     0.074 A 
HETATM   25 CL1  UNL     1      23.938   7.294  51.029  1.00  0.00    -0.081 Cl
HETATM   26  C11 UNL     1      24.662   4.725  50.862  1.00  0.00     0.056 A 
ENDBRANCH  17  19
ENDBRANCH   4  17
BRANCH   1  27
HETATM   27  C3  UNL     1      21.403   3.930  48.632  1.00  0.00     0.156 C 
BRANCH  27  28
HETATM   28  C2  UNL     1      22.451   3.953  47.542  1.00  0.00     0.018 C 
HETATM   29  C1  UNL     1      21.804   3.924  46.185  1.00  0.00     0.007 C 
ENDBRANCH  27  28
ENDBRANCH   1  27
TORSDOF 4
ENDMDL
MODEL 9
REMARK VINA RESULT:      -7.7      2.090      2.547
REMARK  4 active torsions:
REMARK  status: ('A' for Active; 'I' for Inactive)
REMARK    1  A    between atoms: C2_2  and  C3_3 
REMARK    2  A    between atoms: C3_3  and  N1_4 
REMARK    3  A    between atoms: C5_7  and  N3_8 
REMARK    4  A    between atoms: N3_8  and  C6_9 
ROOT
HETATM    1  N1  UNL     1      20.946   0.594  52.578  1.00  0.00    -0.252 N 
HETATM    2  C4  UNL     1      21.621   1.781  53.074  1.00  0.00     0.235 C 
HETATM    3  N2  UNL     1      22.103   2.260  51.987  1.00  0.00    -0.224 NA
HETATM    4  C5  UNL     1      22.861   3.399  51.768  1.00  0.00     0.134 C 
HETATM    5  C12 UNL     1      22.614   4.348  50.871  1.00  0.00    -0.007 C 
HETATM    6  C13 UNL     1      23.489   5.550  50.703  1.00  0.00     0.050 C 
HETATM    7  C14 UNL     1      21.525   4.536  49.841  1.00  0.00     0.182 C 
HETATM    8  C15 UNL     1      20.645   3.332  50.054  1.00  0.00     0.309 C 
HETATM    9  N4  UNL     1      19.500   3.207  49.224  1.00  0.00     0.093 N 
HETATM   10  C16 UNL     1      18.411   2.781  50.073  1.00  0.00     0.275 C 
HETATM   11  C17 UNL     1      18.250   1.329  50.279  1.00  0.00     0.059 C 
HETATM   12  C18 UNL     1      19.361   0.577  50.911  1.00  0.00     0.203 C 
HETATM   13  O1  UNL     1      19.726   0.994  52.160  1.00  0.00    -0.277 OA
HETATM   14  C19 UNL     1      19.171   4.504  48.671  1.00  0.00     0.298 C 
HETATM   15  C20 UNL     1      19.513   5.643  49.593  1.00  0.00     0.199 C 
HETATM   16  O2  UNL     1      20.847   5.705  49.960  1.00  0.00    -0.378 OA
ENDROOT
BRANCH   4  17
HETATM   17  N3  UNL     1      24.028   3.637  52.541  1.00  0.00    -0.341 N 
HETATM   18  H9  UNL     1      24.140   4.520  53.079  1.00  0.00     0.167 HD
BRANCH  17  19
HETATM   19  C6  UNL     1      25.059   2.649  52.581  1.00  0.00     0.035 A 
HETATM   20  C7  UNL     1      25.786   2.400  51.419  1.00  0.00     0.032 A 
HETATM   21  C8  UNL     1      26.796   1.434  51.460  1.00  0.00     0.046 A 
HETATM   22  C9  UNL     1      27.071   0.734  52.633  1.00  0.00     0.138 A 
HETATM   23  F1  UNL     1      28.035  -0.205  52.712  1.00  0.00    -0.204 F 
HETATM   24  C10 UNL     1      26.319   1.023  53.749  1.00  0.00     0.074 A 
HETATM   25 CL1  UNL     1      26.611   0.178  55.265  1.00  0.00    -0.081 Cl
HETATM   26  C11 UNL     1      25.315   1.966  53.755  1.00  0.00     0.056 A 
ENDBRANCH  17  19
ENDBRANCH   4  17
BRANCH   1  27
HETATM   27  C3  UNL     1      21.887  -0.494  52.755  1.00  0.00     0.156 C 
BRANCH  27  28
HETATM   28  C2  UNL     1      21.570  -1.302  53.993  1.00  0.00     0.018 C 
HETATM   29  C1  UNL     1      22.688  -1.200  54.993  1.00  0.00     0.007 C 
ENDBRANCH  27  28
ENDBRANCH   1  27
TORSDOF 4
ENDMDL
