MODEL 1
REMARK VINA RESULT:      -9.5      0.000      0.000
REMARK  3 active torsions:
REMARK  status: ('A' for Active; 'I' for Inactive)
REMARK       I    between atoms: C2_3  and  N2_4 
REMARK       I    between atoms: C2_3  and  N4_22 
REMARK    1  A    between atoms: C6_8  and  C7_9 
REMARK    2  A    between atoms: C7_9  and  C8_10 
REMARK    3  A    between atoms: N4_22  and  C16_23 
ROOT
HETATM    1  C1  UNL     1      22.904   2.791  48.844  1.00  0.00     0.198 C 
HETATM    2  N1  UNL     1      23.539   2.385  50.062  1.00  0.00    -0.110 NA
HETATM    3  C2  UNL     1      24.154   3.184  50.884  1.00  0.00     0.723 C 
HETATM    4  N2  UNL     1      24.340   4.590  50.777  1.00  0.00    -0.049 NA
HETATM    5  C3  UNL     1      25.256   5.161  50.076  1.00  0.00     0.131 A 
HETATM    6  C4  UNL     1      26.210   4.351  49.308  1.00  0.00     0.107 A 
HETATM    7  C5  UNL     1      27.198   5.181  48.574  1.00  0.00    -0.006 A 
HETATM    8  C6  UNL     1      27.290   6.502  48.542  1.00  0.00     0.011 A 
HETATM    9  C14 UNL     1      26.295   7.258  49.334  1.00  0.00     0.255 A 
HETATM   10  O1  UNL     1      26.265   8.535  49.393  1.00  0.00    -0.267 OA
HETATM   11  N3  UNL     1      25.298   6.580  50.085  1.00  0.00    -0.305 N 
HETATM   12  C15 UNL     1      24.323   7.325  50.860  1.00  0.00     0.161 C 
HETATM   13  N4  UNL     1      24.710   2.565  52.025  1.00  0.00    -0.188 N 
HETATM   14  H15 UNL     1      25.642   2.937  52.366  1.00  0.00     0.184 HD
ENDROOT
BRANCH  13  15
HETATM   15  C16 UNL     1      24.134   1.500  52.754  1.00  0.00     0.049 A 
HETATM   16  C17 UNL     1      22.808   1.330  53.032  1.00  0.00     0.033 A 
HETATM   17  C18 UNL     1      22.267   0.287  53.738  1.00  0.00     0.044 A 
HETATM   18  C19 UNL     1      23.104  -0.699  54.229  1.00  0.00     0.116 A 
HETATM   19  F1  UNL     1      22.700  -1.774  54.936  1.00  0.00    -0.206 F 
HETATM   20  C20 UNL     1      24.439  -0.577  53.979  1.00  0.00     0.044 A 
HETATM   21  C21 UNL     1      24.935   0.491  53.264  1.00  0.00     0.033 A 
ENDBRANCH  13  15
BRANCH   8  22
HETATM   22  C7  UNL     1      28.243   7.367  47.835  1.00  0.00     0.086 C 
BRANCH  22  23
HETATM   23  C8  UNL     1      29.557   7.518  48.447  1.00  0.00    -0.010 A 
HETATM   24  C9  UNL     1      29.838   8.761  49.018  1.00  0.00     0.042 A 
HETATM   25 CL1  UNL     1      28.639  10.054  48.981  1.00  0.00    -0.084 Cl
HETATM   26  C10 UNL     1      31.046   9.057  49.636  1.00  0.00     0.024 A 
HETATM   27  C11 UNL     1      31.996   8.067  49.679  1.00  0.00     0.003 A 
HETATM   28  C12 UNL     1      31.766   6.825  49.131  1.00  0.00     0.024 A 
HETATM   29  C13 UNL     1      30.552   6.564  48.522  1.00  0.00     0.042 A 
HETATM   30 CL2  UNL     1      30.133   5.012  47.782  1.00  0.00    -0.084 Cl
ENDBRANCH  22  23
ENDBRANCH   8  22
TORSDOF 3
ENDMDL
MODEL 2
REMARK VINA RESULT:      -8.9      5.369      7.050
REMARK  3 active torsions:
REMARK  status: ('A' for Active; 'I' for Inactive)
REMARK       I    between atoms: C2_3  and  N2_4 
REMARK       I    between atoms: C2_3  and  N4_22 
REMARK    1  A    between atoms: C6_8  and  C7_9 
REMARK    2  A    between atoms: C7_9  and  C8_10 
REMARK    3  A    between atoms: N4_22  and  C16_23 
ROOT
HETATM    1  C1  UNL     1      22.703  -0.139  53.578  1.00  0.00     0.198 C 
HETATM    2  N1  UNL     1      23.995  -0.143  52.960  1.00  0.00    -0.110 NA
HETATM    3  C2  UNL     1      24.607   0.911  52.507  1.00  0.00     0.723 C 
HETATM    4  N2  UNL     1      24.163   2.262  52.512  1.00  0.00    -0.049 NA
HETATM    5  C3  UNL     1      23.361   2.778  51.648  1.00  0.00     0.131 A 
HETATM    6  C4  UNL     1      22.832   1.958  50.551  1.00  0.00     0.107 A 
HETATM    7  C5  UNL     1      21.935   2.724  49.650  1.00  0.00    -0.006 A 
HETATM    8  C6  UNL     1      21.582   3.997  49.740  1.00  0.00     0.011 A 
HETATM    9  C14 UNL     1      22.147   4.766  50.872  1.00  0.00     0.255 A 
HETATM   10  O1  UNL     1      21.891   6.001  51.081  1.00  0.00    -0.267 OA
HETATM   11  N3  UNL     1      23.023   4.147  51.804  1.00  0.00    -0.305 N 
HETATM   12  C15 UNL     1      23.574   4.904  52.912  1.00  0.00     0.161 C 
HETATM   13  N4  UNL     1      25.875   0.672  51.932  1.00  0.00    -0.188 N 
HETATM   14  H15 UNL     1      26.132   1.249  51.080  1.00  0.00     0.184 HD
ENDROOT
BRANCH  13  15
HETATM   15  C16 UNL     1      26.832  -0.260  52.392  1.00  0.00     0.049 A 
HETATM   16  C17 UNL     1      26.770  -1.619  52.262  1.00  0.00     0.033 A 
HETATM   17  C18 UNL     1      27.711  -2.507  52.713  1.00  0.00     0.044 A 
HETATM   18  C19 UNL     1      28.835  -2.028  53.361  1.00  0.00     0.116 A 
HETATM   19  F1  UNL     1      29.831  -2.793  53.850  1.00  0.00    -0.206 F 
HETATM   20  C20 UNL     1      28.945  -0.677  53.518  1.00  0.00     0.044 A 
HETATM   21  C21 UNL     1      27.972   0.177  53.048  1.00  0.00     0.033 A 
ENDBRANCH  13  15
BRANCH   8  22
HETATM   22  C7  UNL     1      20.703   4.799  48.881  1.00  0.00     0.086 C 
BRANCH  22  23
HETATM   23  C8  UNL     1      20.901   4.661  47.443  1.00  0.00    -0.010 A 
HETATM   24  C9  UNL     1      19.958   3.894  46.756  1.00  0.00     0.042 A 
HETATM   25 CL1  UNL     1      18.611   3.150  47.619  1.00  0.00    -0.084 Cl
HETATM   26  C10 UNL     1      20.012   3.669  45.387  1.00  0.00     0.024 A 
HETATM   27  C11 UNL     1      21.051   4.238  44.693  1.00  0.00     0.003 A 
HETATM   28  C12 UNL     1      22.006   5.003  45.324  1.00  0.00     0.024 A 
HETATM   29  C13 UNL     1      21.921   5.206  46.690  1.00  0.00     0.042 A 
HETATM   30 CL2  UNL     1      23.082   6.166  47.619  1.00  0.00    -0.084 Cl
ENDBRANCH  22  23
ENDBRANCH   8  22
TORSDOF 3
ENDMDL
MODEL 3
REMARK VINA RESULT:      -8.9      4.100      6.179
REMARK  3 active torsions:
REMARK  status: ('A' for Active; 'I' for Inactive)
REMARK       I    between atoms: C2_3  and  N2_4 
REMARK       I    between atoms: C2_3  and  N4_22 
REMARK    1  A    between atoms: C6_8  and  C7_9 
REMARK    2  A    between atoms: C7_9  and  C8_10 
REMARK    3  A    between atoms: N4_22  and  C16_23 
ROOT
HETATM    1  C1  UNL     1      26.499   8.480  46.414  1.00  0.00     0.198 C 
HETATM    2  N1  UNL     1      26.365   7.605  47.541  1.00  0.00    -0.110 NA
HETATM    3  C2  UNL     1      27.210   7.526  48.526  1.00  0.00     0.723 C 
HETATM    4  N2  UNL     1      28.417   8.252  48.717  1.00  0.00    -0.049 NA
HETATM    5  C3  UNL     1      29.548   7.959  48.176  1.00  0.00     0.131 A 
HETATM    6  C4  UNL     1      29.660   6.797  47.285  1.00  0.00     0.107 A 
HETATM    7  C5  UNL     1      31.037   6.610  46.766  1.00  0.00    -0.006 A 
HETATM    8  C6  UNL     1      32.108   7.350  47.009  1.00  0.00     0.011 A 
HETATM    9  C14 UNL     1      31.926   8.510  47.911  1.00  0.00     0.255 A 
HETATM   10  O1  UNL     1      32.871   9.308  48.231  1.00  0.00    -0.267 OA
HETATM   11  N3  UNL     1      30.654   8.795  48.478  1.00  0.00    -0.305 N 
HETATM   12  C15 UNL     1      30.479   9.932  49.361  1.00  0.00     0.161 C 
HETATM   13  N4  UNL     1      26.879   6.589  49.531  1.00  0.00    -0.188 N 
HETATM   14  H15 UNL     1      27.681   6.051  49.968  1.00  0.00     0.184 HD
ENDROOT
BRANCH  13  15
HETATM   15  C16 UNL     1      25.578   6.310  50.008  1.00  0.00     0.049 A 
HETATM   16  C17 UNL     1      24.905   5.128  49.886  1.00  0.00     0.033 A 
HETATM   17  C18 UNL     1      23.643   4.875  50.359  1.00  0.00     0.044 A 
HETATM   18  C19 UNL     1      22.960   5.878  51.023  1.00  0.00     0.116 A 
HETATM   19  F1  UNL     1      21.718   5.758  51.535  1.00  0.00    -0.206 F 
HETATM   20  C20 UNL     1      23.588   7.080  51.171  1.00  0.00     0.044 A 
HETATM   21  C21 UNL     1      24.857   7.286  50.678  1.00  0.00     0.033 A 
ENDBRANCH  13  15
BRANCH   8  22
HETATM   22  C7  UNL     1      33.487   7.210  46.523  1.00  0.00     0.086 C 
BRANCH  22  23
HETATM   23  C8  UNL     1      33.973   5.847  46.342  1.00  0.00    -0.010 A 
HETATM   24  C9  UNL     1      34.523   5.229  47.467  1.00  0.00     0.042 A 
HETATM   25 CL1  UNL     1      34.606   6.085  49.007  1.00  0.00    -0.084 Cl
HETATM   26  C10 UNL     1      35.029   3.936  47.452  1.00  0.00     0.024 A 
HETATM   27  C11 UNL     1      34.976   3.249  46.264  1.00  0.00     0.003 A 
HETATM   28  C12 UNL     1      34.443   3.815  45.128  1.00  0.00     0.024 A 
HETATM   29  C13 UNL     1      33.948   5.105  45.179  1.00  0.00     0.042 A 
HETATM   30 CL2  UNL     1      33.239   5.946  43.792  1.00  0.00    -0.084 Cl
ENDBRANCH  22  23
ENDBRANCH   8  22
TORSDOF 3
ENDMDL
MODEL 4
REMARK VINA RESULT:      -8.8      1.812      2.354
REMARK  3 active torsions:
REMARK  status: ('A' for Active; 'I' for Inactive)
REMARK       I    between atoms: C2_3  and  N2_4 
REMARK       I    between atoms: C2_3  and  N4_22 
REMARK    1  A    between atoms: C6_8  and  C7_9 
REMARK    2  A    between atoms: C7_9  and  C8_10 
REMARK    3  A    between atoms: N4_22  and  C16_23 
ROOT
HETATM    1  C1  UNL     1      23.576   3.623  48.431  1.00  0.00     0.198 C 
HETATM    2  N1  UNL     1      24.333   3.204  49.572  1.00  0.00    -0.110 NA
HETATM    3  C2  UNL     1      24.875   4.005  50.442  1.00  0.00     0.723 C 
HETATM    4  N2  UNL     1      24.850   5.426  50.471  1.00  0.00    -0.049 NA
HETATM    5  C3  UNL     1      25.631   6.191  49.792  1.00  0.00     0.131 A 
HETATM    6  C4  UNL     1      26.644   5.609  48.904  1.00  0.00     0.107 A 
HETATM    7  C5  UNL     1      27.456   6.642  48.214  1.00  0.00    -0.006 A 
HETATM    8  C6  UNL     1      27.355   7.959  48.313  1.00  0.00     0.011 A 
HETATM    9  C14 UNL     1      26.310   8.480  49.222  1.00  0.00     0.255 A 
HETATM   10  O1  UNL     1      26.101   9.727  49.412  1.00  0.00    -0.267 OA
HETATM   11  N3  UNL     1      25.468   7.593  49.944  1.00  0.00    -0.305 N 
HETATM   12  C15 UNL     1      24.444   8.108  50.833  1.00  0.00     0.161 C 
HETATM   13  N4  UNL     1      25.581   3.371  51.489  1.00  0.00    -0.188 N 
HETATM   14  H15 UNL     1      26.469   3.844  51.824  1.00  0.00     0.184 HD
ENDROOT
BRANCH  13  15
HETATM   15  C16 UNL     1      25.209   2.167  52.130  1.00  0.00     0.049 A 
HETATM   16  C17 UNL     1      25.978   1.047  52.263  1.00  0.00     0.033 A 
HETATM   17  C18 UNL     1      25.600  -0.111  52.893  1.00  0.00     0.044 A 
HETATM   18  C19 UNL     1      24.339  -0.191  53.456  1.00  0.00     0.116 A 
HETATM   19  F1  UNL     1      23.848  -1.267  54.101  1.00  0.00    -0.206 F 
HETATM   20  C20 UNL     1      23.530   0.903  53.350  1.00  0.00     0.044 A 
HETATM   21  C21 UNL     1      23.955   2.044  52.707  1.00  0.00     0.033 A 
ENDBRANCH  13  15
BRANCH   8  22
HETATM   22  C7  UNL     1      28.130   9.020  47.656  1.00  0.00     0.086 C 
BRANCH  22  23
HETATM   23  C8  UNL     1      29.405   8.623  47.072  1.00  0.00    -0.010 A 
HETATM   24  C9  UNL     1      29.403   8.346  45.704  1.00  0.00     0.042 A 
HETATM   25 CL1  UNL     1      27.914   8.482  44.766  1.00  0.00    -0.084 Cl
HETATM   26  C10 UNL     1      30.538   7.956  45.005  1.00  0.00     0.024 A 
HETATM   27  C11 UNL     1      31.709   7.843  45.713  1.00  0.00     0.003 A 
HETATM   28  C12 UNL     1      31.763   8.105  47.063  1.00  0.00     0.024 A 
HETATM   29  C13 UNL     1      30.613   8.492  47.727  1.00  0.00     0.042 A 
HETATM   30 CL2  UNL     1      30.548   8.857  49.457  1.00  0.00    -0.084 Cl
ENDBRANCH  22  23
ENDBRANCH   8  22
TORSDOF 3
ENDMDL
MODEL 5
REMARK VINA RESULT:      -8.6      2.177      2.887
REMARK  3 active torsions:
REMARK  status: ('A' for Active; 'I' for Inactive)
REMARK       I    between atoms: C2_3  and  N2_4 
REMARK       I    between atoms: C2_3  and  N4_22 
REMARK    1  A    between atoms: C6_8  and  C7_9 
REMARK    2  A    between atoms: C7_9  and  C8_10 
REMARK    3  A    between atoms: N4_22  and  C16_23 
ROOT
HETATM    1  C1  UNL     1      22.343   2.350  48.408  1.00  0.00     0.198 C 
HETATM    2  N1  UNL     1      22.763   2.218  49.771  1.00  0.00    -0.110 NA
HETATM    3  C2  UNL     1      22.743   3.174  50.653  1.00  0.00     0.723 C 
HETATM    4  N2  UNL     1      22.323   4.522  50.486  1.00  0.00    -0.049 NA
HETATM    5  C3  UNL     1      23.044   5.463  49.986  1.00  0.00     0.131 A 
HETATM    6  C4  UNL     1      24.413   5.183  49.536  1.00  0.00     0.107 A 
HETATM    7  C5  UNL     1      25.093   6.388  49.000  1.00  0.00    -0.006 A 
HETATM    8  C6  UNL     1      24.609   7.616  48.889  1.00  0.00     0.011 A 
HETATM    9  C14 UNL     1      23.221   7.830  49.357  1.00  0.00     0.255 A 
HETATM   10  O1  UNL     1      22.628   8.961  49.309  1.00  0.00    -0.267 OA
HETATM   11  N3  UNL     1      22.464   6.755  49.895  1.00  0.00    -0.305 N 
HETATM   12  C15 UNL     1      21.103   6.967  50.352  1.00  0.00     0.161 C 
HETATM   13  N4  UNL     1      23.207   2.818  51.939  1.00  0.00    -0.188 N 
HETATM   14  H15 UNL     1      23.768   3.548  52.465  1.00  0.00     0.184 HD
ENDROOT
BRANCH  13  15
HETATM   15  C16 UNL     1      22.987   1.581  52.587  1.00  0.00     0.049 A 
HETATM   16  C17 UNL     1      23.934   0.647  52.896  1.00  0.00     0.033 A 
HETATM   17  C18 UNL     1      23.701  -0.546  53.529  1.00  0.00     0.044 A 
HETATM   18  C19 UNL     1      22.410  -0.870  53.903  1.00  0.00     0.116 A 
HETATM   19  F1  UNL     1      22.048  -2.007  54.530  1.00  0.00    -0.206 F 
HETATM   20  C20 UNL     1      21.425   0.030  53.616  1.00  0.00     0.044 A 
HETATM   21  C21 UNL     1      21.709   1.217  52.978  1.00  0.00     0.033 A 
ENDBRANCH  13  15
BRANCH   8  22
HETATM   22  C7  UNL     1      25.236   8.838  48.369  1.00  0.00     0.086 C 
BRANCH  22  23
HETATM   23  C8  UNL     1      26.559   8.684  47.775  1.00  0.00    -0.010 A 
HETATM   24  C9  UNL     1      27.647   8.824  48.638  1.00  0.00     0.042 A 
HETATM   25 CL1  UNL     1      27.394   9.168  50.350  1.00  0.00    -0.084 Cl
HETATM   26  C10 UNL     1      28.967   8.707  48.222  1.00  0.00     0.024 A 
HETATM   27  C11 UNL     1      29.191   8.440  46.894  1.00  0.00     0.003 A 
HETATM   28  C12 UNL     1      28.151   8.292  46.004  1.00  0.00     0.024 A 
HETATM   29  C13 UNL     1      26.848   8.416  46.453  1.00  0.00     0.042 A 
HETATM   30 CL2  UNL     1      25.426   8.249  45.414  1.00  0.00    -0.084 Cl
ENDBRANCH  22  23
ENDBRANCH   8  22
TORSDOF 3
ENDMDL
MODEL 6
REMARK VINA RESULT:      -8.5      2.928      4.348
REMARK  3 active torsions:
REMARK  status: ('A' for Active; 'I' for Inactive)
REMARK       I    between atoms: C2_3  and  N2_4 
REMARK       I    between atoms: C2_3  and  N4_22 
REMARK    1  A    between atoms: C6_8  and  C7_9 
REMARK    2  A    between atoms: C7_9  and  C8_10 
REMARK    3  A    between atoms: N4_22  and  C16_23 
ROOT
HETATM    1  C1  UNL     1      24.554   7.193  47.307  1.00  0.00     0.198 C 
HETATM    2  N1  UNL     1      24.710   6.322  48.434  1.00  0.00    -0.110 NA
HETATM    3  C2  UNL     1      25.594   6.473  49.375  1.00  0.00     0.723 C 
HETATM    4  N2  UNL     1      26.577   7.492  49.510  1.00  0.00    -0.049 NA
HETATM    5  C3  UNL     1      27.716   7.501  48.912  1.00  0.00     0.131 A 
HETATM    6  C4  UNL     1      28.085   6.402  48.009  1.00  0.00     0.107 A 
HETATM    7  C5  UNL     1      29.435   6.578  47.421  1.00  0.00    -0.006 A 
HETATM    8  C6  UNL     1      30.286   7.575  47.615  1.00  0.00     0.011 A 
HETATM    9  C14 UNL     1      29.851   8.652  48.532  1.00  0.00     0.255 A 
HETATM   10  O1  UNL     1      30.569   9.673  48.810  1.00  0.00    -0.267 OA
HETATM   11  N3  UNL     1      28.579   8.599  49.163  1.00  0.00    -0.305 N 
HETATM   12  C15 UNL     1      28.157   9.657  50.061  1.00  0.00     0.161 C 
HETATM   13  N4  UNL     1      25.570   5.490  50.390  1.00  0.00    -0.188 N 
HETATM   14  H15 UNL     1      26.506   5.184  50.783  1.00  0.00     0.184 HD
ENDROOT
BRANCH  13  15
HETATM   15  C16 UNL     1      24.413   4.884  50.930  1.00  0.00     0.049 A 
HETATM   16  C17 UNL     1      23.478   5.484  51.725  1.00  0.00     0.033 A 
HETATM   17  C18 UNL     1      22.359   4.879  52.236  1.00  0.00     0.044 A 
HETATM   18  C19 UNL     1      22.119   3.549  51.944  1.00  0.00     0.116 A 
HETATM   19  F1  UNL     1      21.059   2.840  52.382  1.00  0.00    -0.206 F 
HETATM   20  C20 UNL     1      23.024   2.902  51.154  1.00  0.00     0.044 A 
HETATM   21  C21 UNL     1      24.134   3.553  50.664  1.00  0.00     0.033 A 
ENDBRANCH  13  15
BRANCH   8  22
HETATM   22  C7  UNL     1      31.628   7.796  47.061  1.00  0.00     0.086 C 
BRANCH  22  23
HETATM   23  C8  UNL     1      32.356   6.607  46.634  1.00  0.00    -0.010 A 
HETATM   24  C9  UNL     1      32.425   6.382  45.258  1.00  0.00     0.042 A 
HETATM   25 CL1  UNL     1      31.659   7.500  44.129  1.00  0.00    -0.084 Cl
HETATM   26  C10 UNL     1      33.081   5.293  44.698  1.00  0.00     0.024 A 
HETATM   27  C11 UNL     1      33.685   4.408  45.556  1.00  0.00     0.003 A 
HETATM   28  C12 UNL     1      33.645   4.587  46.921  1.00  0.00     0.024 A 
HETATM   29  C13 UNL     1      32.982   5.683  47.444  1.00  0.00     0.042 A 
HETATM   30 CL2  UNL     1      32.859   6.027  49.176  1.00  0.00    -0.084 Cl
ENDBRANCH  22  23
ENDBRANCH   8  22
TORSDOF 3
ENDMDL
MODEL 7
REMARK VINA RESULT:      -8.5      4.667      9.470
REMARK  3 active torsions:
REMARK  status: ('A' for Active; 'I' for Inactive)
REMARK       I    between atoms: C2_3  and  N2_4 
REMARK       I    between atoms: C2_3  and  N4_22 
REMARK    1  A    between atoms: C6_8  and  C7_9 
REMARK    2  A    between atoms: C7_9  and  C8_10 
REMARK    3  A    between atoms: N4_22  and  C16_23 
ROOT
HETATM    1  C1  UNL     1      24.391   6.998  50.921  1.00  0.00     0.198 C 
HETATM    2  N1  UNL     1      25.532   6.532  50.192  1.00  0.00    -0.110 NA
HETATM    3  C2  UNL     1      25.501   5.630  49.256  1.00  0.00     0.723 C 
HETATM    4  N2  UNL     1      24.378   4.918  48.751  1.00  0.00    -0.049 NA
HETATM    5  C3  UNL     1      23.859   3.875  49.298  1.00  0.00     0.131 A 
HETATM    6  C4  UNL     1      24.428   3.332  50.538  1.00  0.00     0.107 A 
HETATM    7  C5  UNL     1      23.708   2.125  51.013  1.00  0.00    -0.006 A 
HETATM    8  C6  UNL     1      22.661   1.530  50.462  1.00  0.00     0.011 A 
HETATM    9  C14 UNL     1      22.134   2.130  49.216  1.00  0.00     0.255 A 
HETATM   10  O1  UNL     1      21.129   1.662  48.579  1.00  0.00    -0.267 OA
HETATM   11  N3  UNL     1      22.738   3.288  48.656  1.00  0.00    -0.305 N 
HETATM   12  C15 UNL     1      22.218   3.874  47.434  1.00  0.00     0.161 C 
HETATM   13  N4  UNL     1      26.750   5.320  48.673  1.00  0.00    -0.188 N 
HETATM   14  H15 UNL     1      26.921   4.306  48.415  1.00  0.00     0.184 HD
ENDROOT
BRANCH  13  15
HETATM   15  C16 UNL     1      27.788   6.240  48.400  1.00  0.00     0.049 A 
HETATM   16  C17 UNL     1      27.657   7.591  48.250  1.00  0.00     0.033 A 
HETATM   17  C18 UNL     1      28.678   8.468  47.989  1.00  0.00     0.044 A 
HETATM   18  C19 UNL     1      29.966   7.983  47.860  1.00  0.00     0.116 A 
HETATM   19  F1  UNL     1      31.054   8.737  47.605  1.00  0.00    -0.206 F 
HETATM   20  C20 UNL     1      30.152   6.638  48.000  1.00  0.00     0.044 A 
HETATM   21  C21 UNL     1      29.094   5.797  48.262  1.00  0.00     0.033 A 
ENDBRANCH  13  15
BRANCH   8  22
HETATM   22  C7  UNL     1      21.914   0.340  50.889  1.00  0.00     0.086 C 
BRANCH  22  23
HETATM   23  C8  UNL     1      21.676   0.204  52.321  1.00  0.00    -0.010 A 
HETATM   24  C9  UNL     1      20.457   0.691  52.797  1.00  0.00     0.042 A 
HETATM   25 CL1  UNL     1      19.294   1.424  51.692  1.00  0.00    -0.084 Cl
HETATM   26  C10 UNL     1      20.087   0.635  54.134  1.00  0.00     0.024 A 
HETATM   27  C11 UNL     1      20.976   0.069  55.014  1.00  0.00     0.003 A 
HETATM   28  C12 UNL     1      22.190  -0.426  54.594  1.00  0.00     0.024 A 
HETATM   29  C13 UNL     1      22.526  -0.353  53.254  1.00  0.00     0.042 A 
HETATM   30 CL2  UNL     1      24.052  -0.952  52.586  1.00  0.00    -0.084 Cl
ENDBRANCH  22  23
ENDBRANCH   8  22
TORSDOF 3
ENDMDL
MODEL 8
REMARK VINA RESULT:      -8.2      5.337      9.856
REMARK  3 active torsions:
REMARK  status: ('A' for Active; 'I' for Inactive)
REMARK       I    between atoms: C2_3  and  N2_4 
REMARK       I    between atoms: C2_3  and  N4_22 
REMARK    1  A    between atoms: C6_8  and  C7_9 
REMARK    2  A    between atoms: C7_9  and  C8_10 
REMARK    3  A    between atoms: N4_22  and  C16_23 
ROOT
HETATM    1  C1  UNL     1      31.696   5.984  49.413  1.00  0.00     0.198 C 
HETATM    2  N1  UNL     1      31.556   6.330  48.030  1.00  0.00    -0.110 NA
HETATM    3  C2  UNL     1      30.642   7.120  47.548  1.00  0.00     0.723 C 
HETATM    4  N2  UNL     1      29.605   7.800  48.244  1.00  0.00    -0.049 NA
HETATM    5  C3  UNL     1      28.482   7.275  48.592  1.00  0.00     0.131 A 
HETATM    6  C4  UNL     1      28.194   5.871  48.271  1.00  0.00     0.107 A 
HETATM    7  C5  UNL     1      26.851   5.447  48.738  1.00  0.00    -0.006 A 
HETATM    8  C6  UNL     1      25.946   6.167  49.384  1.00  0.00     0.011 A 
HETATM    9  C14 UNL     1      26.302   7.573  49.680  1.00  0.00     0.255 A 
HETATM   10  O1  UNL     1      25.526   8.381  50.296  1.00  0.00    -0.267 OA
HETATM   11  N3  UNL     1      27.559   8.103  49.281  1.00  0.00    -0.305 N 
HETATM   12  C15 UNL     1      27.904   9.481  49.574  1.00  0.00     0.161 C 
HETATM   13  N4  UNL     1      30.690   7.318  46.150  1.00  0.00    -0.188 N 
HETATM   14  H15 UNL     1      29.762   7.391  45.644  1.00  0.00     0.184 HD
ENDROOT
BRANCH  13  15
HETATM   15  C16 UNL     1      31.863   7.430  45.369  1.00  0.00     0.049 A 
HETATM   16  C17 UNL     1      32.404   6.462  44.572  1.00  0.00     0.033 A 
HETATM   17  C18 UNL     1      33.541   6.592  43.818  1.00  0.00     0.044 A 
HETATM   18  C19 UNL     1      34.230   7.791  43.839  1.00  0.00     0.116 A 
HETATM   19  F1  UNL     1      35.357   8.048  43.146  1.00  0.00    -0.206 F 
HETATM   20  C20 UNL     1      33.732   8.792  44.621  1.00  0.00     0.044 A 
HETATM   21  C21 UNL     1      32.584   8.614  45.361  1.00  0.00     0.033 A 
ENDBRANCH  13  15
BRANCH   8  22
HETATM   22  C7  UNL     1      24.609   5.797  49.866  1.00  0.00     0.086 C 
BRANCH  22  23
HETATM   23  C8  UNL     1      23.786   5.013  48.953  1.00  0.00    -0.010 A 
HETATM   24  C9  UNL     1      23.720   3.640  49.200  1.00  0.00     0.042 A 
HETATM   25 CL1  UNL     1      24.601   2.931  50.554  1.00  0.00    -0.084 Cl
HETATM   26  C10 UNL     1      22.980   2.763  48.419  1.00  0.00     0.024 A 
HETATM   27  C11 UNL     1      22.286   3.290  47.358  1.00  0.00     0.003 A 
HETATM   28  C12 UNL     1      22.318   4.637  47.074  1.00  0.00     0.024 A 
HETATM   29  C13 UNL     1      23.067   5.482  47.873  1.00  0.00     0.042 A 
HETATM   30 CL2  UNL     1      23.191   7.229  47.617  1.00  0.00    -0.084 Cl
ENDBRANCH  22  23
ENDBRANCH   8  22
TORSDOF 3
ENDMDL
MODEL 9
REMARK VINA RESULT:      -8.2      4.940      7.409
REMARK  3 active torsions:
REMARK  status: ('A' for Active; 'I' for Inactive)
REMARK       I    between atoms: C2_3  and  N2_4 
REMARK       I    between atoms: C2_3  and  N4_22 
REMARK    1  A    between atoms: C6_8  and  C7_9 
REMARK    2  A    between atoms: C7_9  and  C8_10 
REMARK    3  A    between atoms: N4_22  and  C16_23 
ROOT
HETATM    1  C1  UNL     1      22.950   1.560  52.991  1.00  0.00     0.198 C 
HETATM    2  N1  UNL     1      24.301   1.462  52.523  1.00  0.00    -0.110 NA
HETATM    3  C2  UNL     1      24.962   2.423  51.947  1.00  0.00     0.723 C 
HETATM    4  N2  UNL     1      24.525   3.743  51.653  1.00  0.00    -0.049 NA
HETATM    5  C3  UNL     1      23.822   4.076  50.628  1.00  0.00     0.131 A 
HETATM    6  C4  UNL     1      23.409   3.058  49.655  1.00  0.00     0.107 A 
HETATM    7  C5  UNL     1      22.616   3.628  48.538  1.00  0.00    -0.006 A 
HETATM    8  C6  UNL     1      22.261   4.890  48.350  1.00  0.00     0.011 A 
HETATM    9  C14 UNL     1      22.705   5.865  49.371  1.00  0.00     0.255 A 
HETATM   10  O1  UNL     1      22.434   7.113  49.318  1.00  0.00    -0.267 OA
HETATM   11  N3  UNL     1      23.475   5.445  50.489  1.00  0.00    -0.305 N 
HETATM   12  C15 UNL     1      23.908   6.404  51.488  1.00  0.00     0.161 C 
HETATM   13  N4  UNL     1      26.283   2.101  51.564  1.00  0.00    -0.188 N 
HETATM   14  H15 UNL     1      26.631   2.512  50.651  1.00  0.00     0.184 HD
ENDROOT
BRANCH  13  15
HETATM   15  C16 UNL     1      27.181   1.285  52.289  1.00  0.00     0.049 A 
HETATM   16  C17 UNL     1      28.210   1.714  53.079  1.00  0.00     0.033 A 
HETATM   17  C18 UNL     1      29.069   0.907  53.778  1.00  0.00     0.044 A 
HETATM   18  C19 UNL     1      28.915  -0.465  53.704  1.00  0.00     0.116 A 
HETATM   19  F1  UNL     1      29.690  -1.366  54.341  1.00  0.00    -0.206 F 
HETATM   20  C20 UNL     1      27.902  -0.946  52.926  1.00  0.00     0.044 A 
HETATM   21  C21 UNL     1      27.064  -0.095  52.242  1.00  0.00     0.033 A 
ENDBRANCH  13  15
BRANCH   8  22
HETATM   22  C7  UNL     1      21.481   5.504  47.268  1.00  0.00     0.086 C 
BRANCH  22  23
HETATM   23  C8  UNL     1      20.191   4.892  46.972  1.00  0.00    -0.010 A 
HETATM   24  C9  UNL     1      20.146   4.043  45.865  1.00  0.00     0.042 A 
HETATM   25 CL1  UNL     1      21.594   3.751  44.902  1.00  0.00    -0.084 Cl
HETATM   26  C10 UNL     1      18.991   3.388  45.457  1.00  0.00     0.024 A 
HETATM   27  C11 UNL     1      17.850   3.599  46.191  1.00  0.00     0.003 A 
HETATM   28  C12 UNL     1      17.844   4.427  47.290  1.00  0.00     0.024 A 
HETATM   29  C13 UNL     1      19.012   5.063  47.669  1.00  0.00     0.042 A 
HETATM   30 CL2  UNL     1      19.138   6.150  49.060  1.00  0.00    -0.084 Cl
ENDBRANCH  22  23
ENDBRANCH   8  22
TORSDOF 3
ENDMDL
