MODEL 1
REMARK VINA RESULT:      -9.4      0.000      0.000
REMARK  6 active torsions:
REMARK  status: ('A' for Active; 'I' for Inactive)
REMARK    1  A    between atoms: O1_1  and  N1_2 
REMARK    2  A    between atoms: C5_7  and  N2_8 
REMARK    3  A    between atoms: N2_8  and  C6_9 
REMARK    4  A    between atoms: C10_13  and  N3_14 
REMARK    5  A    between atoms: N3_14  and  C11_15 
REMARK    6  A    between atoms: C14_19  and  C15_20 
ROOT
HETATM    1  C6  UNL     1      24.610  -0.655  54.074  1.00  0.00     0.032 A 
HETATM    2  C7  UNL     1      23.672  -1.161  54.947  1.00  0.00     0.029 A 
HETATM    3  C8  UNL     1      22.345  -0.824  54.791  1.00  0.00     0.004 A 
HETATM    4  C9  UNL     1      21.966   0.012  53.769  1.00  0.00     0.030 A 
HETATM    5  C10 UNL     1      22.865   0.554  52.855  1.00  0.00     0.051 A 
HETATM    6  C20 UNL     1      24.160   0.175  53.074  1.00  0.00     0.059 A 
ENDROOT
BRANCH   5   7
HETATM    7  N3  UNL     1      22.394   1.407  51.832  1.00  0.00    -0.188 N 
HETATM    8  H11 UNL     1      21.789   0.958  51.095  1.00  0.00     0.184 HD
BRANCH   7   9
HETATM    9  C11 UNL     1      22.641   2.795  51.680  1.00  0.00     0.727 A 
HETATM   10  N4  UNL     1      21.907   3.807  52.156  1.00  0.00    -0.075 NA
HETATM   11  C12 UNL     1      22.161   5.108  51.999  1.00  0.00     0.139 A 
HETATM   12  C13 UNL     1      23.285   5.450  51.280  1.00  0.00     0.053 A 
HETATM   13  C14 UNL     1      24.067   4.465  50.773  1.00  0.00     0.089 A 
HETATM   14  N6  UNL     1      23.708   3.215  50.998  1.00  0.00    -0.062 NA
BRANCH  13  15
HETATM   15  C15 UNL     1      25.274   4.725  50.001  1.00  0.00     0.011 A 
HETATM   16  C16 UNL     1      25.526   5.903  49.333  1.00  0.00     0.017 A 
HETATM   17  C17 UNL     1      26.693   6.110  48.606  1.00  0.00     0.020 A 
HETATM   18  C18 UNL     1      27.630   5.107  48.548  1.00  0.00     0.116 A 
HETATM   19  N5  UNL     1      27.419   3.925  49.195  1.00  0.00    -0.272 NA
HETATM   20  C19 UNL     1      26.271   3.779  49.885  1.00  0.00     0.130 A 
ENDBRANCH  13  15
ENDBRANCH   7   9
ENDBRANCH   5   7
BRANCH   1  21
HETATM   21  N2  UNL     1      25.987  -0.979  54.188  1.00  0.00    -0.364 N 
HETATM   22  H7  UNL     1      26.314  -1.483  55.041  1.00  0.00     0.162 HD
BRANCH  21  23
HETATM   23  C5  UNL     1      26.992  -0.670  53.223  1.00  0.00     0.235 A 
HETATM   24  N1  UNL     1      27.997  -1.721  53.112  1.00  0.00    -0.245 N 
HETATM   25  C1  UNL     1      29.402  -1.743  53.332  1.00  0.00     0.119 A 
HETATM   26  C2  UNL     1      29.884  -0.571  53.714  1.00  0.00     0.019 A 
HETATM   27  C3  UNL     1      29.026   0.597  53.881  1.00  0.00     0.001 A 
HETATM   28  C4  UNL     1      27.705   0.580  53.663  1.00  0.00     0.021 A 
BRANCH  24  29
HETATM   29  O1  UNL     1      27.316  -2.833  52.715  1.00  0.00    -0.286 OA
HETATM   30  H1  UNL     1      26.552  -3.015  53.325  1.00  0.00     0.244 HD
ENDBRANCH  24  29
ENDBRANCH  21  23
ENDBRANCH   1  21
TORSDOF 6
ENDMDL
MODEL 2
REMARK VINA RESULT:      -9.0      2.103      5.708
REMARK  6 active torsions:
REMARK  status: ('A' for Active; 'I' for Inactive)
REMARK    1  A    between atoms: O1_1  and  N1_2 
REMARK    2  A    between atoms: C5_7  and  N2_8 
REMARK    3  A    between atoms: N2_8  and  C6_9 
REMARK    4  A    between atoms: C10_13  and  N3_14 
REMARK    5  A    between atoms: N3_14  and  C11_15 
REMARK    6  A    between atoms: C14_19  and  C15_20 
ROOT
HETATM    1  C6  UNL     1      26.116   3.448  50.813  1.00  0.00     0.032 A 
HETATM    2  C7  UNL     1      26.494   4.031  49.624  1.00  0.00     0.029 A 
HETATM    3  C8  UNL     1      25.612   4.854  48.958  1.00  0.00     0.004 A 
HETATM    4  C9  UNL     1      24.364   5.087  49.483  1.00  0.00     0.030 A 
HETATM    5  C10 UNL     1      23.923   4.528  50.678  1.00  0.00     0.051 A 
HETATM    6  C20 UNL     1      24.852   3.725  51.280  1.00  0.00     0.059 A 
ENDROOT
BRANCH   5   7
HETATM    7  N3  UNL     1      22.624   4.818  51.149  1.00  0.00    -0.188 N 
HETATM    8  H11 UNL     1      22.374   5.839  51.225  1.00  0.00     0.184 HD
BRANCH   7   9
HETATM    9  C11 UNL     1      21.617   3.896  51.533  1.00  0.00     0.727 A 
HETATM   10  N4  UNL     1      20.305   3.975  51.282  1.00  0.00    -0.075 NA
HETATM   11  C12 UNL     1      19.376   3.093  51.654  1.00  0.00     0.139 A 
HETATM   12  C13 UNL     1      19.798   1.993  52.366  1.00  0.00     0.053 A 
HETATM   13  C14 UNL     1      21.118   1.860  52.649  1.00  0.00     0.089 A 
HETATM   14  N6  UNL     1      21.938   2.802  52.224  1.00  0.00    -0.062 NA
BRANCH  13  15
HETATM   15  C15 UNL     1      21.661   0.733  53.394  1.00  0.00     0.011 A 
HETATM   16  C16 UNL     1      22.989   0.365  53.383  1.00  0.00     0.017 A 
HETATM   17  C17 UNL     1      23.467  -0.720  54.110  1.00  0.00     0.020 A 
HETATM   18  C18 UNL     1      22.587  -1.455  54.867  1.00  0.00     0.116 A 
HETATM   19  N5  UNL     1      21.264  -1.124  54.906  1.00  0.00    -0.272 NA
HETATM   20  C19 UNL     1      20.856  -0.063  54.182  1.00  0.00     0.130 A 
ENDBRANCH  13  15
ENDBRANCH   7   9
ENDBRANCH   5   7
BRANCH   1  21
HETATM   21  N2  UNL     1      26.991   2.600  51.541  1.00  0.00    -0.364 N 
HETATM   22  H7  UNL     1      28.007   2.606  51.302  1.00  0.00     0.162 HD
BRANCH  21  23
HETATM   23  C5  UNL     1      26.603   1.717  52.592  1.00  0.00     0.235 A 
HETATM   24  N1  UNL     1      27.633   1.586  53.617  1.00  0.00    -0.245 N 
HETATM   25  C1  UNL     1      28.384   0.478  54.098  1.00  0.00     0.119 A 
HETATM   26  C2  UNL     1      28.081  -0.656  53.486  1.00  0.00     0.019 A 
HETATM   27  C3  UNL     1      27.074  -0.718  52.433  1.00  0.00     0.001 A 
HETATM   28  C4  UNL     1      26.385   0.348  52.006  1.00  0.00     0.021 A 
BRANCH  24  29
HETATM   29  O1  UNL     1      27.804   2.841  54.120  1.00  0.00    -0.286 OA
HETATM   30  H1  UNL     1      28.767   3.084  54.142  1.00  0.00     0.244 HD
ENDBRANCH  24  29
ENDBRANCH  21  23
ENDBRANCH   1  21
TORSDOF 6
ENDMDL
MODEL 3
REMARK VINA RESULT:      -8.8      2.716      6.512
REMARK  6 active torsions:
REMARK  status: ('A' for Active; 'I' for Inactive)
REMARK    1  A    between atoms: O1_1  and  N1_2 
REMARK    2  A    between atoms: C5_7  and  N2_8 
REMARK    3  A    between atoms: N2_8  and  C6_9 
REMARK    4  A    between atoms: C10_13  and  N3_14 
REMARK    5  A    between atoms: N3_14  and  C11_15 
REMARK    6  A    between atoms: C14_19  and  C15_20 
ROOT
HETATM    1  C6  UNL     1      22.730   3.373  49.517  1.00  0.00     0.032 A 
HETATM    2  C7  UNL     1      22.675   2.822  48.256  1.00  0.00     0.029 A 
HETATM    3  C8  UNL     1      22.024   1.623  48.065  1.00  0.00     0.004 A 
HETATM    4  C9  UNL     1      21.436   0.986  49.130  1.00  0.00     0.030 A 
HETATM    5  C10 UNL     1      21.457   1.491  50.427  1.00  0.00     0.051 A 
HETATM    6  C20 UNL     1      22.120   2.682  50.537  1.00  0.00     0.059 A 
ENDROOT
BRANCH   5   7
HETATM    7  N3  UNL     1      20.828   0.773  51.468  1.00  0.00    -0.188 N 
HETATM    8  H11 UNL     1      19.777   0.716  51.423  1.00  0.00     0.184 HD
BRANCH   7   9
HETATM    9  C11 UNL     1      21.446   0.121  52.565  1.00  0.00     0.727 A 
HETATM   10  N4  UNL     1      20.846  -0.565  53.544  1.00  0.00    -0.075 NA
HETATM   11  C12 UNL     1      21.450  -1.171  54.568  1.00  0.00     0.139 A 
HETATM   12  C13 UNL     1      22.824  -1.086  54.631  1.00  0.00     0.053 A 
HETATM   13  C14 UNL     1      23.486  -0.403  53.665  1.00  0.00     0.089 A 
HETATM   14  N6  UNL     1      22.772   0.152  52.703  1.00  0.00    -0.062 NA
BRANCH  13  15
HETATM   15  C15 UNL     1      24.934  -0.258  53.643  1.00  0.00     0.011 A 
HETATM   16  C16 UNL     1      25.668   0.024  52.512  1.00  0.00     0.017 A 
HETATM   17  C17 UNL     1      27.052   0.154  52.536  1.00  0.00     0.020 A 
HETATM   18  C18 UNL     1      27.716  -0.005  53.728  1.00  0.00     0.116 A 
HETATM   19  N5  UNL     1      27.027  -0.285  54.872  1.00  0.00    -0.272 NA
HETATM   20  C19 UNL     1      25.687  -0.399  54.790  1.00  0.00     0.130 A 
ENDBRANCH  13  15
ENDBRANCH   7   9
ENDBRANCH   5   7
BRANCH   1  21
HETATM   21  N2  UNL     1      23.382   4.610  49.764  1.00  0.00    -0.364 N 
HETATM   22  H7  UNL     1      22.888   5.495  49.515  1.00  0.00     0.162 HD
BRANCH  21  23
HETATM   23  C5  UNL     1      24.683   4.761  50.331  1.00  0.00     0.235 A 
HETATM   24  N1  UNL     1      25.469   5.786  49.654  1.00  0.00    -0.245 N 
HETATM   25  C1  UNL     1      26.701   5.747  48.944  1.00  0.00     0.119 A 
HETATM   26  C2  UNL     1      27.230   4.536  48.892  1.00  0.00     0.019 A 
HETATM   27  C3  UNL     1      26.584   3.385  49.514  1.00  0.00     0.001 A 
HETATM   28  C4  UNL     1      25.422   3.460  50.176  1.00  0.00     0.021 A 
BRANCH  24  29
HETATM   29  O1  UNL     1      24.769   6.944  49.813  1.00  0.00    -0.286 OA
HETATM   30  H1  UNL     1      24.101   6.855  50.544  1.00  0.00     0.244 HD
ENDBRANCH  24  29
ENDBRANCH  21  23
ENDBRANCH   1  21
TORSDOF 6
ENDMDL
MODEL 4
REMARK VINA RESULT:      -8.8      3.582      8.006
REMARK  6 active torsions:
REMARK  status: ('A' for Active; 'I' for Inactive)
REMARK    1  A    between atoms: O1_1  and  N1_2 
REMARK    2  A    between atoms: C5_7  and  N2_8 
REMARK    3  A    between atoms: N2_8  and  C6_9 
REMARK    4  A    between atoms: C10_13  and  N3_14 
REMARK    5  A    between atoms: N3_14  and  C11_15 
REMARK    6  A    between atoms: C14_19  and  C15_20 
ROOT
HETATM    1  C6  UNL     1      28.435   6.161  48.242  1.00  0.00     0.032 A 
HETATM    2  C7  UNL     1      27.541   7.209  48.255  1.00  0.00     0.029 A 
HETATM    3  C8  UNL     1      26.237   6.987  48.641  1.00  0.00     0.004 A 
HETATM    4  C9  UNL     1      25.837   5.726  49.009  1.00  0.00     0.030 A 
HETATM    5  C10 UNL     1      26.691   4.627  49.017  1.00  0.00     0.051 A 
HETATM    6  C20 UNL     1      27.966   4.925  48.623  1.00  0.00     0.059 A 
ENDROOT
BRANCH   5   7
HETATM    7  N3  UNL     1      26.200   3.362  49.409  1.00  0.00    -0.188 N 
HETATM    8  H11 UNL     1      25.976   2.689  48.629  1.00  0.00     0.184 HD
BRANCH   7   9
HETATM    9  C11 UNL     1      25.974   2.892  50.727  1.00  0.00     0.727 A 
HETATM   10  N4  UNL     1      24.978   3.236  51.552  1.00  0.00    -0.075 NA
HETATM   11  C12 UNL     1      24.785   2.779  52.791  1.00  0.00     0.139 A 
HETATM   12  C13 UNL     1      25.695   1.866  53.276  1.00  0.00     0.053 A 
HETATM   13  C14 UNL     1      26.726   1.481  52.483  1.00  0.00     0.089 A 
HETATM   14  N6  UNL     1      26.806   2.006  51.275  1.00  0.00    -0.062 NA
BRANCH  13  15
HETATM   15  C15 UNL     1      27.738   0.521  52.905  1.00  0.00     0.011 A 
HETATM   16  C16 UNL     1      29.008   0.865  53.313  1.00  0.00     0.017 A 
HETATM   17  C17 UNL     1      29.944  -0.084  53.708  1.00  0.00     0.020 A 
HETATM   18  C18 UNL     1      29.595  -1.413  53.691  1.00  0.00     0.116 A 
HETATM   19  N5  UNL     1      28.347  -1.795  53.294  1.00  0.00    -0.272 NA
HETATM   20  C19 UNL     1      27.480  -0.833  52.922  1.00  0.00     0.130 A 
ENDBRANCH  13  15
ENDBRANCH   7   9
ENDBRANCH   5   7
BRANCH   1  21
HETATM   21  N2  UNL     1      29.790   6.339  47.860  1.00  0.00    -0.364 N 
HETATM   22  H7  UNL     1      29.998   6.861  46.981  1.00  0.00     0.162 HD
BRANCH  21  23
HETATM   23  C5  UNL     1      30.923   5.860  48.583  1.00  0.00     0.235 A 
HETATM   24  N1  UNL     1      31.825   6.935  48.980  1.00  0.00    -0.245 N 
HETATM   25  C1  UNL     1      33.187   7.216  48.681  1.00  0.00     0.119 A 
HETATM   26  C2  UNL     1      33.736   6.316  47.881  1.00  0.00     0.019 A 
HETATM   27  C3  UNL     1      32.986   5.170  47.381  1.00  0.00     0.001 A 
HETATM   28  C4  UNL     1      31.702   4.937  47.685  1.00  0.00     0.021 A 
BRANCH  24  29
HETATM   29  O1  UNL     1      31.086   7.748  49.786  1.00  0.00    -0.286 OA
HETATM   30  H1  UNL     1      31.652   8.151  50.497  1.00  0.00     0.244 HD
ENDBRANCH  24  29
ENDBRANCH  21  23
ENDBRANCH   1  21
TORSDOF 6
ENDMDL
MODEL 5
REMARK VINA RESULT:      -8.6      1.925      2.492
REMARK  6 active torsions:
REMARK  status: ('A' for Active; 'I' for Inactive)
REMARK    1  A    between atoms: O1_1  and  N1_2 
REMARK    2  A    between atoms: C5_7  and  N2_8 
REMARK    3  A    between atoms: N2_8  and  C6_9 
REMARK    4  A    between atoms: C10_13  and  N3_14 
REMARK    5  A    between atoms: N3_14  and  C11_15 
REMARK    6  A    between atoms: C14_19  and  C15_20 
ROOT
HETATM    1  C6  UNL     1      24.729  -0.744  54.223  1.00  0.00     0.032 A 
HETATM    2  C7  UNL     1      23.897  -1.185  55.229  1.00  0.00     0.029 A 
HETATM    3  C8  UNL     1      22.533  -1.064  55.086  1.00  0.00     0.004 A 
HETATM    4  C9  UNL     1      22.010  -0.505  53.945  1.00  0.00     0.030 A 
HETATM    5  C10 UNL     1      22.796  -0.041  52.895  1.00  0.00     0.051 A 
HETATM    6  C20 UNL     1      24.138  -0.195  53.109  1.00  0.00     0.059 A 
ENDROOT
BRANCH   5   7
HETATM    7  N3  UNL     1      22.181   0.522  51.755  1.00  0.00    -0.188 N 
HETATM    8  H11 UNL     1      22.352   0.025  50.842  1.00  0.00     0.184 HD
BRANCH   7   9
HETATM    9  C11 UNL     1      21.360   1.676  51.697  1.00  0.00     0.727 A 
HETATM   10  N4  UNL     1      20.029   1.735  51.821  1.00  0.00    -0.075 NA
HETATM   11  C12 UNL     1      19.278   2.836  51.762  1.00  0.00     0.139 A 
HETATM   12  C13 UNL     1      19.927   4.032  51.553  1.00  0.00     0.053 A 
HETATM   13  C14 UNL     1      21.276   4.034  51.419  1.00  0.00     0.089 A 
HETATM   14  N6  UNL     1      21.906   2.877  51.497  1.00  0.00    -0.062 NA
BRANCH  13  15
HETATM   15  C15 UNL     1      22.052   5.247  51.195  1.00  0.00     0.011 A 
HETATM   16  C16 UNL     1      21.507   6.456  50.823  1.00  0.00     0.017 A 
HETATM   17  C17 UNL     1      22.285   7.591  50.619  1.00  0.00     0.020 A 
HETATM   18  C18 UNL     1      23.645   7.507  50.794  1.00  0.00     0.116 A 
HETATM   19  N5  UNL     1      24.224   6.329  51.163  1.00  0.00    -0.272 NA
HETATM   20  C19 UNL     1      23.422   5.261  51.346  1.00  0.00     0.130 A 
ENDBRANCH  13  15
ENDBRANCH   7   9
ENDBRANCH   5   7
BRANCH   1  21
HETATM   21  N2  UNL     1      26.141  -0.854  54.319  1.00  0.00    -0.364 N 
HETATM   22  H7  UNL     1      26.559  -1.151  55.228  1.00  0.00     0.162 HD
BRANCH  21  23
HETATM   23  C5  UNL     1      27.065  -0.588  53.265  1.00  0.00     0.235 A 
HETATM   24  N1  UNL     1      28.123  -1.589  53.189  1.00  0.00    -0.245 N 
HETATM   25  C1  UNL     1      29.538  -1.513  53.316  1.00  0.00     0.119 A 
HETATM   26  C2  UNL     1      29.970  -0.285  53.553  1.00  0.00     0.019 A 
HETATM   27  C3  UNL     1      29.055   0.846  53.664  1.00  0.00     0.001 A 
HETATM   28  C4  UNL     1      27.726   0.736  53.536  1.00  0.00     0.021 A 
BRANCH  24  29
HETATM   29  O1  UNL     1      27.488  -2.770  52.946  1.00  0.00    -0.286 OA
HETATM   30  H1  UNL     1      27.149  -2.803  52.012  1.00  0.00     0.244 HD
ENDBRANCH  24  29
ENDBRANCH  21  23
ENDBRANCH   1  21
TORSDOF 6
ENDMDL
MODEL 6
REMARK VINA RESULT:      -8.6      2.073      2.723
REMARK  6 active torsions:
REMARK  status: ('A' for Active; 'I' for Inactive)
REMARK    1  A    between atoms: O1_1  and  N1_2 
REMARK    2  A    between atoms: C5_7  and  N2_8 
REMARK    3  A    between atoms: N2_8  and  C6_9 
REMARK    4  A    between atoms: C10_13  and  N3_14 
REMARK    5  A    between atoms: N3_14  and  C11_15 
REMARK    6  A    between atoms: C14_19  and  C15_20 
ROOT
HETATM    1  C6  UNL     1      24.742   1.745  52.436  1.00  0.00     0.032 A 
HETATM    2  C7  UNL     1      23.792   0.750  52.482  1.00  0.00     0.029 A 
HETATM    3  C8  UNL     1      22.456   1.080  52.413  1.00  0.00     0.004 A 
HETATM    4  C9  UNL     1      22.081   2.397  52.298  1.00  0.00     0.030 A 
HETATM    5  C10 UNL     1      22.992   3.447  52.247  1.00  0.00     0.051 A 
HETATM    6  C20 UNL     1      24.296   3.041  52.321  1.00  0.00     0.059 A 
ENDROOT
BRANCH   5   7
HETATM    7  N3  UNL     1      22.524   4.774  52.129  1.00  0.00    -0.188 N 
HETATM    8  H11 UNL     1      21.702   5.032  52.735  1.00  0.00     0.184 HD
BRANCH   7   9
HETATM    9  C11 UNL     1      23.031   5.799  51.290  1.00  0.00     0.727 A 
HETATM   10  N4  UNL     1      22.459   6.976  51.009  1.00  0.00    -0.075 NA
HETATM   11  C12 UNL     1      22.957   7.925  50.215  1.00  0.00     0.139 A 
HETATM   12  C13 UNL     1      24.176   7.680  49.623  1.00  0.00     0.053 A 
HETATM   13  C14 UNL     1      24.802   6.503  49.872  1.00  0.00     0.089 A 
HETATM   14  N6  UNL     1      24.205   5.644  50.678  1.00  0.00    -0.062 NA
BRANCH  13  15
HETATM   15  C15 UNL     1      26.092   6.151  49.295  1.00  0.00     0.011 A 
HETATM   16  C16 UNL     1      26.967   7.060  48.743  1.00  0.00     0.017 A 
HETATM   17  C17 UNL     1      28.191   6.681  48.201  1.00  0.00     0.020 A 
HETATM   18  C18 UNL     1      28.543   5.354  48.215  1.00  0.00     0.116 A 
HETATM   19  N5  UNL     1      27.705   4.421  48.752  1.00  0.00    -0.272 NA
HETATM   20  C19 UNL     1      26.533   4.844  49.263  1.00  0.00     0.130 A 
ENDBRANCH  13  15
ENDBRANCH   7   9
ENDBRANCH   5   7
BRANCH   1  21
HETATM   21  N2  UNL     1      26.131   1.456  52.496  1.00  0.00    -0.364 N 
HETATM   22  H7  UNL     1      26.728   1.698  51.675  1.00  0.00     0.162 HD
BRANCH  21  23
HETATM   23  C5  UNL     1      26.803   0.850  53.599  1.00  0.00     0.235 A 
HETATM   24  N1  UNL     1      28.077   1.496  53.896  1.00  0.00    -0.245 N 
HETATM   25  C1  UNL     1      29.420   1.028  53.902  1.00  0.00     0.119 A 
HETATM   26  C2  UNL     1      29.524  -0.249  53.570  1.00  0.00     0.019 A 
HETATM   27  C3  UNL     1      28.355  -1.056  53.238  1.00  0.00     0.001 A 
HETATM   28  C4  UNL     1      27.103  -0.581  53.244  1.00  0.00     0.021 A 
BRANCH  24  29
HETATM   29  O1  UNL     1      27.765   2.785  54.209  1.00  0.00    -0.286 OA
HETATM   30  H1  UNL     1      28.556   3.376  54.101  1.00  0.00     0.244 HD
ENDBRANCH  24  29
ENDBRANCH  21  23
ENDBRANCH   1  21
TORSDOF 6
ENDMDL
MODEL 7
REMARK VINA RESULT:      -8.6      1.992      2.775
REMARK  6 active torsions:
REMARK  status: ('A' for Active; 'I' for Inactive)
REMARK    1  A    between atoms: O1_1  and  N1_2 
REMARK    2  A    between atoms: C5_7  and  N2_8 
REMARK    3  A    between atoms: N2_8  and  C6_9 
REMARK    4  A    between atoms: C10_13  and  N3_14 
REMARK    5  A    between atoms: N3_14  and  C11_15 
REMARK    6  A    between atoms: C14_19  and  C15_20 
ROOT
HETATM    1  C6  UNL     1      24.274   1.732  53.000  1.00  0.00     0.032 A 
HETATM    2  C7  UNL     1      23.405   0.917  52.309  1.00  0.00     0.029 A 
HETATM    3  C8  UNL     1      22.336   1.472  51.640  1.00  0.00     0.004 A 
HETATM    4  C9  UNL     1      22.143   2.832  51.668  1.00  0.00     0.030 A 
HETATM    5  C10 UNL     1      22.984   3.707  52.348  1.00  0.00     0.051 A 
HETATM    6  C20 UNL     1      24.020   3.083  52.985  1.00  0.00     0.059 A 
ENDROOT
BRANCH   5   7
HETATM    7  N3  UNL     1      22.715   5.094  52.327  1.00  0.00    -0.188 N 
HETATM    8  H11 UNL     1      22.132   5.466  53.122  1.00  0.00     0.184 HD
BRANCH   7   9
HETATM    9  C11 UNL     1      23.136   6.042  51.361  1.00  0.00     0.727 A 
HETATM   10  N4  UNL     1      22.473   7.128  50.945  1.00  0.00    -0.075 NA
HETATM   11  C12 UNL     1      22.891   8.007  50.033  1.00  0.00     0.139 A 
HETATM   12  C13 UNL     1      24.122   7.783  49.457  1.00  0.00     0.053 A 
HETATM   13  C14 UNL     1      24.839   6.697  49.840  1.00  0.00     0.089 A 
HETATM   14  N6  UNL     1      24.315   5.902  50.754  1.00  0.00    -0.062 NA
BRANCH  13  15
HETATM   15  C15 UNL     1      26.149   6.376  49.291  1.00  0.00     0.011 A 
HETATM   16  C16 UNL     1      26.598   5.095  49.057  1.00  0.00     0.017 A 
HETATM   17  C17 UNL     1      27.858   4.832  48.531  1.00  0.00     0.020 A 
HETATM   18  C18 UNL     1      28.689   5.885  48.234  1.00  0.00     0.116 A 
HETATM   19  N5  UNL     1      28.284   7.169  48.450  1.00  0.00    -0.272 NA
HETATM   20  C19 UNL     1      27.053   7.365  48.962  1.00  0.00     0.130 A 
ENDBRANCH  13  15
ENDBRANCH   7   9
ENDBRANCH   5   7
BRANCH   1  21
HETATM   21  N2  UNL     1      25.394   1.209  53.698  1.00  0.00    -0.364 N 
HETATM   22  H7  UNL     1      25.306   1.029  54.722  1.00  0.00     0.162 HD
BRANCH  21  23
HETATM   23  C5  UNL     1      26.660   0.900  53.117  1.00  0.00     0.235 A 
HETATM   24  N1  UNL     1      27.436  -0.024  53.936  1.00  0.00    -0.245 N 
HETATM   25  C1  UNL     1      28.700   0.082  54.581  1.00  0.00     0.119 A 
HETATM   26  C2  UNL     1      29.278   1.258  54.395  1.00  0.00     0.019 A 
HETATM   27  C3  UNL     1      28.648   2.309  53.603  1.00  0.00     0.001 A 
HETATM   28  C4  UNL     1      27.455   2.172  53.009  1.00  0.00     0.021 A 
BRANCH  24  29
HETATM   29  O1  UNL     1      26.685  -1.159  54.013  1.00  0.00    -0.286 OA
HETATM   30  H1  UNL     1      26.743  -1.560  54.921  1.00  0.00     0.244 HD
ENDBRANCH  24  29
ENDBRANCH  21  23
ENDBRANCH   1  21
TORSDOF 6
ENDMDL
MODEL 8
REMARK VINA RESULT:      -8.5      3.557      8.159
REMARK  6 active torsions:
REMARK  status: ('A' for Active; 'I' for Inactive)
REMARK    1  A    between atoms: O1_1  and  N1_2 
REMARK    2  A    between atoms: C5_7  and  N2_8 
REMARK    3  A    between atoms: N2_8  and  C6_9 
REMARK    4  A    between atoms: C10_13  and  N3_14 
REMARK    5  A    between atoms: N3_14  and  C11_15 
REMARK    6  A    between atoms: C14_19  and  C15_20 
ROOT
HETATM    1  C6  UNL     1      28.318   6.021  48.269  1.00  0.00     0.032 A 
HETATM    2  C7  UNL     1      27.337   6.987  48.252  1.00  0.00     0.029 A 
HETATM    3  C8  UNL     1      26.059   6.666  48.653  1.00  0.00     0.004 A 
HETATM    4  C9  UNL     1      25.771   5.388  49.067  1.00  0.00     0.030 A 
HETATM    5  C10 UNL     1      26.717   4.369  49.107  1.00  0.00     0.051 A 
HETATM    6  C20 UNL     1      27.960   4.763  48.695  1.00  0.00     0.059 A 
ENDROOT
BRANCH   5   7
HETATM    7  N3  UNL     1      26.339   3.081  49.546  1.00  0.00    -0.188 N 
HETATM    8  H11 UNL     1      25.995   2.419  48.801  1.00  0.00     0.184 HD
BRANCH   7   9
HETATM    9  C11 UNL     1      26.369   2.574  50.869  1.00  0.00     0.727 A 
HETATM   10  N4  UNL     1      27.399   2.591  51.723  1.00  0.00    -0.075 NA
HETATM   11  C12 UNL     1      27.402   2.107  52.966  1.00  0.00     0.139 A 
HETATM   12  C13 UNL     1      26.237   1.532  53.423  1.00  0.00     0.053 A 
HETATM   13  C14 UNL     1      25.160   1.486  52.601  1.00  0.00     0.089 A 
HETATM   14  N6  UNL     1      25.284   2.001  51.392  1.00  0.00    -0.062 NA
BRANCH  13  15
HETATM   15  C15 UNL     1      23.885   0.900  52.992  1.00  0.00     0.011 A 
HETATM   16  C16 UNL     1      23.752  -0.333  53.591  1.00  0.00     0.017 A 
HETATM   17  C17 UNL     1      22.514  -0.857  53.949  1.00  0.00     0.020 A 
HETATM   18  C18 UNL     1      21.381  -0.122  53.696  1.00  0.00     0.116 A 
HETATM   19  N5  UNL     1      21.470   1.104  53.104  1.00  0.00    -0.272 NA
HETATM   20  C19 UNL     1      22.694   1.562  52.779  1.00  0.00     0.130 A 
ENDBRANCH  13  15
ENDBRANCH   7   9
ENDBRANCH   5   7
BRANCH   1  21
HETATM   21  N2  UNL     1      29.652   6.303  47.873  1.00  0.00    -0.364 N 
HETATM   22  H7  UNL     1      29.809   6.837  46.990  1.00  0.00     0.162 HD
BRANCH  21  23
HETATM   23  C5  UNL     1      30.826   5.914  48.584  1.00  0.00     0.235 A 
HETATM   24  N1  UNL     1      31.658   7.056  48.949  1.00  0.00    -0.245 N 
HETATM   25  C1  UNL     1      32.992   7.424  48.624  1.00  0.00     0.119 A 
HETATM   26  C2  UNL     1      33.590   6.550  47.830  1.00  0.00     0.019 A 
HETATM   27  C3  UNL     1      32.913   5.347  47.360  1.00  0.00     0.001 A 
HETATM   28  C4  UNL     1      31.653   5.032  47.689  1.00  0.00     0.021 A 
BRANCH  24  29
HETATM   29  O1  UNL     1      30.876   7.830  49.754  1.00  0.00    -0.286 OA
HETATM   30  H1  UNL     1      31.425   8.282  50.449  1.00  0.00     0.244 HD
ENDBRANCH  24  29
ENDBRANCH  21  23
ENDBRANCH   1  21
TORSDOF 6
ENDMDL
MODEL 9
REMARK VINA RESULT:      -8.4      3.214      6.668
REMARK  6 active torsions:
REMARK  status: ('A' for Active; 'I' for Inactive)
REMARK    1  A    between atoms: O1_1  and  N1_2 
REMARK    2  A    between atoms: C5_7  and  N2_8 
REMARK    3  A    between atoms: N2_8  and  C6_9 
REMARK    4  A    between atoms: C10_13  and  N3_14 
REMARK    5  A    between atoms: N3_14  and  C11_15 
REMARK    6  A    between atoms: C14_19  and  C15_20 
ROOT
HETATM    1  C6  UNL     1      25.647   2.385  51.259  1.00  0.00     0.032 A 
HETATM    2  C7  UNL     1      25.603   3.033  50.044  1.00  0.00     0.029 A 
HETATM    3  C8  UNL     1      24.401   3.504  49.567  1.00  0.00     0.004 A 
HETATM    4  C9  UNL     1      23.254   3.325  50.302  1.00  0.00     0.030 A 
HETATM    5  C10 UNL     1      23.232   2.679  51.534  1.00  0.00     0.051 A 
HETATM    6  C20 UNL     1      24.462   2.240  51.942  1.00  0.00     0.059 A 
ENDROOT
BRANCH   5   7
HETATM    7  N3  UNL     1      22.010   2.534  52.228  1.00  0.00    -0.188 N 
HETATM    8  H11 UNL     1      21.426   3.406  52.325  1.00  0.00     0.184 HD
BRANCH   7   9
HETATM    9  C11 UNL     1      21.479   1.355  52.808  1.00  0.00     0.727 A 
HETATM   10  N4  UNL     1      22.039   0.590  53.751  1.00  0.00    -0.075 NA
HETATM   11  C12 UNL     1      21.518  -0.517  54.283  1.00  0.00     0.139 A 
HETATM   12  C13 UNL     1      20.285  -0.920  53.820  1.00  0.00     0.053 A 
HETATM   13  C14 UNL     1      19.668  -0.182  52.863  1.00  0.00     0.089 A 
HETATM   14  N6  UNL     1      20.289   0.894  52.419  1.00  0.00    -0.062 NA
BRANCH  13  15
HETATM   15  C15 UNL     1      18.365  -0.525  52.312  1.00  0.00     0.011 A 
HETATM   16  C16 UNL     1      17.416  -1.271  52.975  1.00  0.00     0.017 A 
HETATM   17  C17 UNL     1      16.182  -1.576  52.411  1.00  0.00     0.020 A 
HETATM   18  C18 UNL     1      15.895  -1.120  51.147  1.00  0.00     0.116 A 
HETATM   19  N5  UNL     1      16.808  -0.378  50.456  1.00  0.00    -0.272 NA
HETATM   20  C19 UNL     1      17.987  -0.112  51.051  1.00  0.00     0.130 A 
ENDBRANCH  13  15
ENDBRANCH   7   9
ENDBRANCH   5   7
BRANCH   1  21
HETATM   21  N2  UNL     1      26.863   1.888  51.798  1.00  0.00    -0.364 N 
HETATM   22  H7  UNL     1      27.750   2.063  51.275  1.00  0.00     0.162 HD
BRANCH  21  23
HETATM   23  C5  UNL     1      26.990   1.154  53.014  1.00  0.00     0.235 A 
HETATM   24  N1  UNL     1      28.209   1.489  53.741  1.00  0.00    -0.245 N 
HETATM   25  C1  UNL     1      29.339   0.723  54.141  1.00  0.00     0.119 A 
HETATM   26  C2  UNL     1      29.259  -0.546  53.774  1.00  0.00     0.019 A 
HETATM   27  C3  UNL     1      28.111  -1.064  53.037  1.00  0.00     0.001 A 
HETATM   28  C4  UNL     1      27.063  -0.311  52.678  1.00  0.00     0.021 A 
BRANCH  24  29
HETATM   29  O1  UNL     1      28.108   2.818  54.024  1.00  0.00    -0.286 OA
HETATM   30  H1  UNL     1      27.904   2.960  54.987  1.00  0.00     0.244 HD
ENDBRANCH  24  29
ENDBRANCH  21  23
ENDBRANCH   1  21
TORSDOF 6
ENDMDL
