MODEL 1
REMARK VINA RESULT:      -7.3      0.000      0.000
REMARK  8 active torsions:
REMARK  status: ('A' for Active; 'I' for Inactive)
REMARK       I    between atoms: C1_2  and  N1_3 
REMARK    1  A    between atoms: C1_2  and  C9_11 
REMARK    2  A    between atoms: N1_3  and  C2_4 
REMARK    3  A    between atoms: C2_4  and  C3_5 
REMARK    4  A    between atoms: C11_13  and  N2_14 
REMARK    5  A    between atoms: N2_14  and  C12_15 
REMARK    6  A    between atoms: N2_14  and  C14_18 
REMARK    7  A    between atoms: C12_15  and  C13_16 
REMARK    8  A    between atoms: C14_18  and  C15_19 
ROOT
HETATM    1  C9  UNL     1      24.175   0.788  52.712  1.00  0.00     0.011 C 
HETATM    2  C10 UNL     1      25.303   1.044  53.348  1.00  0.00     0.025 C 
HETATM    3  C11 UNL     1      25.811   0.274  54.517  1.00  0.00     0.269 C 
HETATM    4  C16 UNL     1      24.786  -0.665  55.032  1.00  0.00     0.009 C 
HETATM    5  C17 UNL     1      23.645  -0.924  54.395  1.00  0.00    -0.024 C 
HETATM    6  C18 UNL     1      23.272  -0.303  53.097  1.00  0.00     0.071 C 
ENDROOT
BRANCH   1   7
HETATM    7  C1  UNL     1      23.875   1.668  51.592  1.00  0.00     0.247 C 
HETATM    8  O1  UNL     1      22.953   1.356  50.768  1.00  0.00    -0.268 OA
HETATM    9  N1  UNL     1      24.542   2.892  51.322  1.00  0.00    -0.353 N 
HETATM   10  H1  UNL     1      25.312   3.188  51.965  1.00  0.00     0.163 HD
BRANCH   9  11
HETATM   11  C2  UNL     1      23.959   3.496  50.122  1.00  0.00     0.161 C 
BRANCH  11  12
HETATM   12  C3  UNL     1      25.009   4.376  49.552  1.00  0.00    -0.041 A 
HETATM   13  C4  UNL     1      26.244   3.742  49.479  1.00  0.00     0.009 A 
HETATM   14  C5  UNL     1      27.370   4.350  48.992  1.00  0.00     0.001 A 
HETATM   15  C6  UNL     1      27.241   5.651  48.561  1.00  0.00     0.000 A 
HETATM   16  C7  UNL     1      26.019   6.331  48.613  1.00  0.00     0.001 A 
HETATM   17  C8  UNL     1      24.911   5.670  49.114  1.00  0.00     0.009 A 
ENDBRANCH  11  12
ENDBRANCH   9  11
ENDBRANCH   1   7
BRANCH   3  18
HETATM   18  N2  UNL     1      26.991  -0.477  54.162  1.00  0.00     0.102 N 
BRANCH  18  19
HETATM   19  C12 UNL     1      27.070  -0.672  52.748  1.00  0.00     0.288 C 
BRANCH  19  20
HETATM   20  C13 UNL     1      27.116  -2.139  52.362  1.00  0.00     0.145 C 
HETATM   21 CL1  UNL     1      28.558  -2.950  52.991  1.00  0.00    -0.129 Cl
ENDBRANCH  19  20
ENDBRANCH  18  19
BRANCH  18  22
HETATM   22  C14 UNL     1      28.126   0.218  54.712  1.00  0.00     0.288 C 
BRANCH  22  23
HETATM   23  C15 UNL     1      29.000   0.843  53.642  1.00  0.00     0.145 C 
HETATM   24 CL2  UNL     1      28.687   2.600  53.573  1.00  0.00    -0.129 Cl
ENDBRANCH  22  23
ENDBRANCH  18  22
ENDBRANCH   3  18
TORSDOF 8
ENDMDL
MODEL 2
REMARK VINA RESULT:      -7.1      3.706      7.903
REMARK  8 active torsions:
REMARK  status: ('A' for Active; 'I' for Inactive)
REMARK       I    between atoms: C1_2  and  N1_3 
REMARK    1  A    between atoms: C1_2  and  C9_11 
REMARK    2  A    between atoms: N1_3  and  C2_4 
REMARK    3  A    between atoms: C2_4  and  C3_5 
REMARK    4  A    between atoms: C11_13  and  N2_14 
REMARK    5  A    between atoms: N2_14  and  C12_15 
REMARK    6  A    between atoms: N2_14  and  C14_18 
REMARK    7  A    between atoms: C12_15  and  C13_16 
REMARK    8  A    between atoms: C14_18  and  C15_19 
ROOT
HETATM    1  C9  UNL     1      26.930   5.340  48.899  1.00  0.00     0.011 C 
HETATM    2  C10 UNL     1      28.183   5.198  48.512  1.00  0.00     0.025 C 
HETATM    3  C11 UNL     1      28.973   6.239  47.798  1.00  0.00     0.269 C 
HETATM    4  C16 UNL     1      28.114   7.366  47.364  1.00  0.00     0.009 C 
HETATM    5  C17 UNL     1      26.848   7.512  47.750  1.00  0.00    -0.024 C 
HETATM    6  C18 UNL     1      26.154   6.564  48.661  1.00  0.00     0.071 C 
ENDROOT
BRANCH   1   7
HETATM    7  C1  UNL     1      26.353   4.193  49.586  1.00  0.00     0.247 C 
HETATM    8  O1  UNL     1      25.268   3.677  49.159  1.00  0.00    -0.268 OA
HETATM    9  N1  UNL     1      26.911   3.571  50.733  1.00  0.00    -0.353 N 
HETATM   10  H1  UNL     1      27.797   3.963  51.126  1.00  0.00     0.163 HD
BRANCH   9  11
HETATM   11  C2  UNL     1      26.056   2.449  51.129  1.00  0.00     0.161 C 
BRANCH  11  12
HETATM   12  C3  UNL     1      26.878   1.603  52.029  1.00  0.00    -0.041 A 
HETATM   13  C4  UNL     1      26.535   0.259  51.948  1.00  0.00     0.009 A 
HETATM   14  C5  UNL     1      27.150  -0.717  52.686  1.00  0.00     0.001 A 
HETATM   15  C6  UNL     1      28.152  -0.317  53.541  1.00  0.00     0.000 A 
HETATM   16  C7  UNL     1      28.534   1.025  53.657  1.00  0.00     0.001 A 
HETATM   17  C8  UNL     1      27.881   1.972  52.887  1.00  0.00     0.009 A 
ENDBRANCH  11  12
ENDBRANCH   9  11
ENDBRANCH   1   7
BRANCH   3  18
HETATM   18  N2  UNL     1      30.022   6.755  48.644  1.00  0.00     0.102 N 
BRANCH  18  19
HETATM   19  C12 UNL     1      31.071   5.797  48.806  1.00  0.00     0.288 C 
BRANCH  19  20
HETATM   20  C13 UNL     1      31.815   5.521  47.512  1.00  0.00     0.145 C 
HETATM   21 CL1  UNL     1      31.759   3.811  47.061  1.00  0.00    -0.129 Cl
ENDBRANCH  19  20
ENDBRANCH  18  19
BRANCH  18  22
HETATM   22  C14 UNL     1      30.463   8.001  48.073  1.00  0.00     0.288 C 
BRANCH  22  23
HETATM   23  C15 UNL     1      31.178   8.882  49.079  1.00  0.00     0.145 C 
HETATM   24 CL2  UNL     1      30.285  10.417  49.264  1.00  0.00    -0.129 Cl
ENDBRANCH  22  23
ENDBRANCH  18  22
ENDBRANCH   3  18
TORSDOF 8
ENDMDL
MODEL 3
REMARK VINA RESULT:      -6.9      3.768      6.451
REMARK  8 active torsions:
REMARK  status: ('A' for Active; 'I' for Inactive)
REMARK       I    between atoms: C1_2  and  N1_3 
REMARK    1  A    between atoms: C1_2  and  C9_11 
REMARK    2  A    between atoms: N1_3  and  C2_4 
REMARK    3  A    between atoms: C2_4  and  C3_5 
REMARK    4  A    between atoms: C11_13  and  N2_14 
REMARK    5  A    between atoms: N2_14  and  C12_15 
REMARK    6  A    between atoms: N2_14  and  C14_18 
REMARK    7  A    between atoms: C12_15  and  C13_16 
REMARK    8  A    between atoms: C14_18  and  C15_19 
ROOT
HETATM    1  C9  UNL     1      22.072  -0.240  53.423  1.00  0.00     0.011 C 
HETATM    2  C10 UNL     1      22.196   0.132  52.164  1.00  0.00     0.025 C 
HETATM    3  C11 UNL     1      21.058   0.468  51.263  1.00  0.00     0.269 C 
HETATM    4  C16 UNL     1      19.758   0.108  51.876  1.00  0.00     0.009 C 
HETATM    5  C17 UNL     1      19.629  -0.271  53.146  1.00  0.00    -0.024 C 
HETATM    6  C18 UNL     1      20.771  -0.374  54.092  1.00  0.00     0.071 C 
ENDROOT
BRANCH   1   7
HETATM    7  C1  UNL     1      23.320  -0.517  54.119  1.00  0.00     0.247 C 
HETATM    8  O1  UNL     1      23.311  -1.219  55.183  1.00  0.00    -0.268 OA
HETATM    9  N1  UNL     1      24.597  -0.059  53.705  1.00  0.00    -0.353 N 
HETATM   10  H1  UNL     1      24.656   0.528  52.841  1.00  0.00     0.163 HD
BRANCH   9  11
HETATM   11  C2  UNL     1      25.607  -0.546  54.648  1.00  0.00     0.161 C 
BRANCH  11  12
HETATM   12  C3  UNL     1      26.820   0.276  54.414  1.00  0.00    -0.041 A 
HETATM   13  C4  UNL     1      26.539   1.441  53.708  1.00  0.00     0.009 A 
HETATM   14  C5  UNL     1      27.496   2.358  53.367  1.00  0.00     0.001 A 
HETATM   15  C6  UNL     1      28.788   2.088  53.756  1.00  0.00     0.000 A 
HETATM   16  C7  UNL     1      29.121   0.930  54.469  1.00  0.00     0.001 A 
HETATM   17  C8  UNL     1      28.115   0.035  54.789  1.00  0.00     0.009 A 
ENDBRANCH  11  12
ENDBRANCH   9  11
ENDBRANCH   1   7
BRANCH   3  18
HETATM   18  N2  UNL     1      21.050   1.878  50.953  1.00  0.00     0.102 N 
BRANCH  18  19
HETATM   19  C12 UNL     1      22.314   2.477  51.248  1.00  0.00     0.288 C 
BRANCH  19  20
HETATM   20  C13 UNL     1      22.227   3.985  51.393  1.00  0.00     0.145 C 
HETATM   21 CL1  UNL     1      23.266   4.592  52.690  1.00  0.00    -0.129 Cl
ENDBRANCH  19  20
ENDBRANCH  18  19
BRANCH  18  22
HETATM   22  C14 UNL     1      20.655   2.015  49.575  1.00  0.00     0.288 C 
BRANCH  22  23
HETATM   23  C15 UNL     1      21.458   1.123  48.649  1.00  0.00     0.145 C 
HETATM   24 CL2  UNL     1      22.535   2.132  47.643  1.00  0.00    -0.129 Cl
ENDBRANCH  22  23
ENDBRANCH  18  22
ENDBRANCH   3  18
TORSDOF 8
ENDMDL
MODEL 4
REMARK VINA RESULT:      -6.7      2.772      6.822
REMARK  8 active torsions:
REMARK  status: ('A' for Active; 'I' for Inactive)
REMARK       I    between atoms: C1_2  and  N1_3 
REMARK    1  A    between atoms: C1_2  and  C9_11 
REMARK    2  A    between atoms: N1_3  and  C2_4 
REMARK    3  A    between atoms: C2_4  and  C3_5 
REMARK    4  A    between atoms: C11_13  and  N2_14 
REMARK    5  A    between atoms: N2_14  and  C12_15 
REMARK    6  A    between atoms: N2_14  and  C14_18 
REMARK    7  A    between atoms: C12_15  and  C13_16 
REMARK    8  A    between atoms: C14_18  and  C15_19 
ROOT
HETATM    1  C9  UNL     1      23.986   1.964  51.273  1.00  0.00     0.011 C 
HETATM    2  C10 UNL     1      24.652   2.868  50.582  1.00  0.00     0.025 C 
HETATM    3  C11 UNL     1      24.163   3.506  49.328  1.00  0.00     0.269 C 
HETATM    4  C16 UNL     1      22.945   2.833  48.818  1.00  0.00     0.009 C 
HETATM    5  C17 UNL     1      22.272   1.917  49.511  1.00  0.00    -0.024 C 
HETATM    6  C18 UNL     1      22.663   1.468  50.873  1.00  0.00     0.071 C 
ENDROOT
BRANCH   1   7
HETATM    7  C1  UNL     1      24.652   1.477  52.472  1.00  0.00     0.247 C 
HETATM    8  O1  UNL     1      24.782   2.243  53.483  1.00  0.00    -0.268 OA
HETATM    9  N1  UNL     1      25.193   0.173  52.626  1.00  0.00    -0.353 N 
HETATM   10  H1  UNL     1      25.118  -0.491  51.821  1.00  0.00     0.163 HD
BRANCH   9  11
HETATM   11  C2  UNL     1      25.771   0.052  53.966  1.00  0.00     0.161 C 
BRANCH  11  12
HETATM   12  C3  UNL     1      27.207  -0.263  53.768  1.00  0.00    -0.041 A 
HETATM   13  C4  UNL     1      28.036   0.775  54.180  1.00  0.00     0.009 A 
HETATM   14  C5  UNL     1      29.401   0.721  54.094  1.00  0.00     0.001 A 
HETATM   15  C6  UNL     1      29.951  -0.427  53.571  1.00  0.00     0.000 A 
HETATM   16  C7  UNL     1      29.158  -1.500  53.143  1.00  0.00     0.001 A 
HETATM   17  C8  UNL     1      27.782  -1.394  53.253  1.00  0.00     0.009 A 
ENDBRANCH  11  12
ENDBRANCH   9  11
ENDBRANCH   1   7
BRANCH   3  18
HETATM   18  N2  UNL     1      23.865   4.902  49.546  1.00  0.00     0.102 N 
BRANCH  18  19
HETATM   19  C12 UNL     1      24.693   5.737  48.733  1.00  0.00     0.288 C 
BRANCH  19  20
HETATM   20  C13 UNL     1      26.043   6.017  49.367  1.00  0.00     0.145 C 
HETATM   21 CL1  UNL     1      27.335   5.053  48.637  1.00  0.00    -0.129 Cl
ENDBRANCH  19  20
ENDBRANCH  18  19
BRANCH  18  22
HETATM   22  C14 UNL     1      22.456   5.083  49.311  1.00  0.00     0.288 C 
BRANCH  22  23
HETATM   23  C15 UNL     1      21.775   5.854  50.425  1.00  0.00     0.145 C 
HETATM   24 CL2  UNL     1      22.076   5.034  51.983  1.00  0.00    -0.129 Cl
ENDBRANCH  22  23
ENDBRANCH  18  22
ENDBRANCH   3  18
TORSDOF 8
ENDMDL
MODEL 5
REMARK VINA RESULT:      -6.7      2.780      6.897
REMARK  8 active torsions:
REMARK  status: ('A' for Active; 'I' for Inactive)
REMARK       I    between atoms: C1_2  and  N1_3 
REMARK    1  A    between atoms: C1_2  and  C9_11 
REMARK    2  A    between atoms: N1_3  and  C2_4 
REMARK    3  A    between atoms: C2_4  and  C3_5 
REMARK    4  A    between atoms: C11_13  and  N2_14 
REMARK    5  A    between atoms: N2_14  and  C12_15 
REMARK    6  A    between atoms: N2_14  and  C14_18 
REMARK    7  A    between atoms: C12_15  and  C13_16 
REMARK    8  A    between atoms: C14_18  and  C15_19 
ROOT
HETATM    1  C9  UNL     1      23.734   1.889  51.040  1.00  0.00     0.011 C 
HETATM    2  C10 UNL     1      24.493   2.891  50.642  1.00  0.00     0.025 C 
HETATM    3  C11 UNL     1      24.130   3.856  49.567  1.00  0.00     0.269 C 
HETATM    4  C16 UNL     1      22.919   3.417  48.834  1.00  0.00     0.009 C 
HETATM    5  C17 UNL     1      22.151   2.404  49.231  1.00  0.00    -0.024 C 
HETATM    6  C18 UNL     1      22.419   1.601  50.453  1.00  0.00     0.071 C 
ENDROOT
BRANCH   1   7
HETATM    7  C1  UNL     1      24.286   1.072  52.111  1.00  0.00     0.247 C 
HETATM    8  O1  UNL     1      23.570   0.787  53.126  1.00  0.00    -0.268 OA
HETATM    9  N1  UNL     1      25.603   0.543  52.129  1.00  0.00    -0.353 N 
HETATM   10  H1  UNL     1      26.233   0.756  51.321  1.00  0.00     0.163 HD
BRANCH   9  11
HETATM   11  C2  UNL     1      25.789  -0.231  53.358  1.00  0.00     0.161 C 
BRANCH  11  12
HETATM   12  C3  UNL     1      27.223  -0.608  53.395  1.00  0.00    -0.041 A 
HETATM   13  C4  UNL     1      28.034   0.441  53.813  1.00  0.00     0.009 A 
HETATM   14  C5  UNL     1      29.394   0.338  53.923  1.00  0.00     0.001 A 
HETATM   15  C6  UNL     1      29.958  -0.875  53.599  1.00  0.00     0.000 A 
HETATM   16  C7  UNL     1      29.184  -1.962  53.174  1.00  0.00     0.001 A 
HETATM   17  C8  UNL     1      27.812  -1.804  53.079  1.00  0.00     0.009 A 
ENDBRANCH  11  12
ENDBRANCH   9  11
ENDBRANCH   1   7
BRANCH   3  18
HETATM   18  N2  UNL     1      23.889   5.169  50.117  1.00  0.00     0.102 N 
BRANCH  18  19
HETATM   19  C12 UNL     1      23.267   5.081  51.401  1.00  0.00     0.288 C 
BRANCH  19  20
HETATM   20  C13 UNL     1      21.872   5.678  51.417  1.00  0.00     0.145 C 
HETATM   21 CL1  UNL     1      21.852   7.345  50.825  1.00  0.00    -0.129 Cl
ENDBRANCH  19  20
ENDBRANCH  18  19
BRANCH  18  22
HETATM   22  C14 UNL     1      25.147   5.868  50.132  1.00  0.00     0.288 C 
BRANCH  22  23
HETATM   23  C15 UNL     1      25.720   6.065  48.742  1.00  0.00     0.145 C 
HETATM   24 CL2  UNL     1      27.283   5.210  48.618  1.00  0.00    -0.129 Cl
ENDBRANCH  22  23
ENDBRANCH  18  22
ENDBRANCH   3  18
TORSDOF 8
ENDMDL
MODEL 6
REMARK VINA RESULT:      -6.7      3.659      6.849
REMARK  8 active torsions:
REMARK  status: ('A' for Active; 'I' for Inactive)
REMARK       I    between atoms: C1_2  and  N1_3 
REMARK    1  A    between atoms: C1_2  and  C9_11 
REMARK    2  A    between atoms: N1_3  and  C2_4 
REMARK    3  A    between atoms: C2_4  and  C3_5 
REMARK    4  A    between atoms: C11_13  and  N2_14 
REMARK    5  A    between atoms: N2_14  and  C12_15 
REMARK    6  A    between atoms: N2_14  and  C14_18 
REMARK    7  A    between atoms: C12_15  and  C13_16 
REMARK    8  A    between atoms: C14_18  and  C15_19 
ROOT
HETATM    1  C9  UNL     1      24.447   0.552  52.787  1.00  0.00     0.011 C 
HETATM    2  C10 UNL     1      24.379   1.800  52.366  1.00  0.00     0.025 C 
HETATM    3  C11 UNL     1      25.500   2.541  51.724  1.00  0.00     0.269 C 
HETATM    4  C16 UNL     1      26.774   1.791  51.829  1.00  0.00     0.009 C 
HETATM    5  C17 UNL     1      26.848   0.532  52.258  1.00  0.00    -0.024 C 
HETATM    6  C18 UNL     1      25.664  -0.263  52.676  1.00  0.00     0.071 C 
ENDROOT
BRANCH   1   7
HETATM    7  C1  UNL     1      23.228   0.025  53.382  1.00  0.00     0.247 C 
HETATM    8  O1  UNL     1      23.298  -0.785  54.364  1.00  0.00    -0.268 OA
HETATM    9  N1  UNL     1      21.913   0.342  52.950  1.00  0.00    -0.353 N 
HETATM   10  H1  UNL     1      21.803   0.997  52.142  1.00  0.00     0.163 HD
BRANCH   9  11
HETATM   11  C2  UNL     1      20.950  -0.370  53.793  1.00  0.00     0.161 C 
BRANCH  11  12
HETATM   12  C3  UNL     1      19.690  -0.435  53.014  1.00  0.00    -0.041 A 
HETATM   13  C4  UNL     1      19.756   0.310  51.842  1.00  0.00     0.009 A 
HETATM   14  C5  UNL     1      18.715   0.408  50.957  1.00  0.00     0.001 A 
HETATM   15  C6  UNL     1      17.562  -0.275  51.271  1.00  0.00     0.000 A 
HETATM   16  C7  UNL     1      17.447  -1.039  52.438  1.00  0.00     0.001 A 
HETATM   17  C8  UNL     1      18.529  -1.105  53.298  1.00  0.00     0.009 A 
ENDBRANCH  11  12
ENDBRANCH   9  11
ENDBRANCH   1   7
BRANCH   3  18
HETATM   18  N2  UNL     1      25.220   2.786  50.329  1.00  0.00     0.102 N 
BRANCH  18  19
HETATM   19  C12 UNL     1      24.146   3.718  50.177  1.00  0.00     0.288 C 
BRANCH  19  20
HETATM   20  C13 UNL     1      23.130   3.273  49.141  1.00  0.00     0.145 C 
HETATM   21 CL1  UNL     1      22.798   4.535  47.947  1.00  0.00    -0.129 Cl
ENDBRANCH  19  20
ENDBRANCH  18  19
BRANCH  18  22
HETATM   22  C14 UNL     1      26.449   3.216  49.712  1.00  0.00     0.288 C 
BRANCH  22  23
HETATM   23  C15 UNL     1      26.436   4.690  49.358  1.00  0.00     0.145 C 
HETATM   24 CL2  UNL     1      27.917   5.093  48.445  1.00  0.00    -0.129 Cl
ENDBRANCH  22  23
ENDBRANCH  18  22
ENDBRANCH   3  18
TORSDOF 8
ENDMDL
MODEL 7
REMARK VINA RESULT:      -6.6      2.076      3.444
REMARK  8 active torsions:
REMARK  status: ('A' for Active; 'I' for Inactive)
REMARK       I    between atoms: C1_2  and  N1_3 
REMARK    1  A    between atoms: C1_2  and  C9_11 
REMARK    2  A    between atoms: N1_3  and  C2_4 
REMARK    3  A    between atoms: C2_4  and  C3_5 
REMARK    4  A    between atoms: C11_13  and  N2_14 
REMARK    5  A    between atoms: N2_14  and  C12_15 
REMARK    6  A    between atoms: N2_14  and  C14_18 
REMARK    7  A    between atoms: C12_15  and  C13_16 
REMARK    8  A    between atoms: C14_18  and  C15_19 
ROOT
HETATM    1  C9  UNL     1      23.717   3.075  51.125  1.00  0.00     0.011 C 
HETATM    2  C10 UNL     1      24.274   2.804  52.290  1.00  0.00     0.025 C 
HETATM    3  C11 UNL     1      24.040   1.558  53.072  1.00  0.00     0.269 C 
HETATM    4  C16 UNL     1      22.925   0.764  52.503  1.00  0.00     0.009 C 
HETATM    5  C17 UNL     1      22.358   1.036  51.330  1.00  0.00    -0.024 C 
HETATM    6  C18 UNL     1      22.779   2.164  50.457  1.00  0.00     0.071 C 
ENDROOT
BRANCH   1   7
HETATM    7  C1  UNL     1      24.091   4.352  50.535  1.00  0.00     0.247 C 
HETATM    8  O1  UNL     1      23.361   5.379  50.728  1.00  0.00    -0.268 OA
HETATM    9  N1  UNL     1      25.241   4.566  49.731  1.00  0.00    -0.353 N 
HETATM   10  H1  UNL     1      25.867   3.752  49.536  1.00  0.00     0.163 HD
BRANCH   9  11
HETATM   11  C2  UNL     1      25.286   5.974  49.330  1.00  0.00     0.161 C 
BRANCH  11  12
HETATM   12  C3  UNL     1      26.658   6.213  48.818  1.00  0.00    -0.041 A 
HETATM   13  C4  UNL     1      27.403   5.042  48.741  1.00  0.00     0.009 A 
HETATM   14  C5  UNL     1      28.699   5.007  48.301  1.00  0.00     0.001 A 
HETATM   15  C6  UNL     1      29.264   6.204  47.925  1.00  0.00     0.000 A 
HETATM   16  C7  UNL     1      28.555   7.410  47.984  1.00  0.00     0.001 A 
HETATM   17  C8  UNL     1      27.246   7.389  48.436  1.00  0.00     0.009 A 
ENDBRANCH  11  12
ENDBRANCH   9  11
ENDBRANCH   1   7
BRANCH   3  18
HETATM   18  N2  UNL     1      25.228   0.738  53.097  1.00  0.00     0.102 N 
BRANCH  18  19
HETATM   19  C12 UNL     1      26.196   1.264  54.009  1.00  0.00     0.288 C 
BRANCH  19  20
HETATM   20  C13 UNL     1      27.621   1.065  53.527  1.00  0.00     0.145 C 
HETATM   21 CL1  UNL     1      28.515   2.589  53.437  1.00  0.00    -0.129 Cl
ENDBRANCH  19  20
ENDBRANCH  18  19
BRANCH  18  22
HETATM   22  C14 UNL     1      24.817  -0.607  53.405  1.00  0.00     0.288 C 
BRANCH  22  23
HETATM   23  C15 UNL     1      24.848  -0.898  54.893  1.00  0.00     0.145 C 
HETATM   24 CL2  UNL     1      23.213  -1.364  55.440  1.00  0.00    -0.129 Cl
ENDBRANCH  22  23
ENDBRANCH  18  22
ENDBRANCH   3  18
TORSDOF 8
ENDMDL
MODEL 8
REMARK VINA RESULT:      -6.6      3.680      6.224
REMARK  8 active torsions:
REMARK  status: ('A' for Active; 'I' for Inactive)
REMARK       I    between atoms: C1_2  and  N1_3 
REMARK    1  A    between atoms: C1_2  and  C9_11 
REMARK    2  A    between atoms: N1_3  and  C2_4 
REMARK    3  A    between atoms: C2_4  and  C3_5 
REMARK    4  A    between atoms: C11_13  and  N2_14 
REMARK    5  A    between atoms: N2_14  and  C12_15 
REMARK    6  A    between atoms: N2_14  and  C14_18 
REMARK    7  A    between atoms: C12_15  and  C13_16 
REMARK    8  A    between atoms: C14_18  and  C15_19 
ROOT
HETATM    1  C9  UNL     1      22.929   1.816  51.124  1.00  0.00     0.011 C 
HETATM    2  C10 UNL     1      22.195   1.599  52.198  1.00  0.00     0.025 C 
HETATM    3  C11 UNL     1      20.811   1.050  52.183  1.00  0.00     0.269 C 
HETATM    4  C16 UNL     1      20.266   0.998  50.805  1.00  0.00     0.009 C 
HETATM    5  C17 UNL     1      21.002   1.220  49.718  1.00  0.00    -0.024 C 
HETATM    6  C18 UNL     1      22.453   1.542  49.763  1.00  0.00     0.071 C 
ENDROOT
BRANCH   1   7
HETATM    7  C1  UNL     1      24.259   2.355  51.373  1.00  0.00     0.247 C 
HETATM    8  O1  UNL     1      24.405   3.597  51.621  1.00  0.00    -0.268 OA
HETATM    9  N1  UNL     1      25.456   1.593  51.365  1.00  0.00    -0.353 N 
HETATM   10  H1  UNL     1      25.389   0.569  51.159  1.00  0.00     0.163 HD
BRANCH   9  11
HETATM   11  C2  UNL     1      26.585   2.476  51.666  1.00  0.00     0.161 C 
BRANCH  11  12
HETATM   12  C3  UNL     1      27.448   1.732  52.616  1.00  0.00    -0.041 A 
HETATM   13  C4  UNL     1      27.177   0.368  52.617  1.00  0.00     0.009 A 
HETATM   14  C5  UNL     1      27.841  -0.526  53.413  1.00  0.00     0.001 A 
HETATM   15  C6  UNL     1      28.818  -0.021  54.241  1.00  0.00     0.000 A 
HETATM   16  C7  UNL     1      29.127   1.344  54.276  1.00  0.00     0.001 A 
HETATM   17  C8  UNL     1      28.426   2.205  53.450  1.00  0.00     0.009 A 
ENDBRANCH  11  12
ENDBRANCH   9  11
ENDBRANCH   1   7
BRANCH   3  18
HETATM   18  N2  UNL     1      20.781  -0.280  52.743  1.00  0.00     0.102 N 
BRANCH  18  19
HETATM   19  C12 UNL     1      22.016  -0.593  53.391  1.00  0.00     0.288 C 
BRANCH  19  20
HETATM   20  C13 UNL     1      21.844  -0.879  54.871  1.00  0.00     0.145 C 
HETATM   21 CL1  UNL     1      23.344  -1.444  55.621  1.00  0.00    -0.129 Cl
ENDBRANCH  19  20
ENDBRANCH  18  19
BRANCH  18  22
HETATM   22  C14 UNL     1      19.637  -0.354  53.615  1.00  0.00     0.288 C 
BRANCH  22  23
HETATM   23  C15 UNL     1      18.597  -1.344  53.128  1.00  0.00     0.145 C 
HETATM   24 CL2  UNL     1      17.217  -0.456  52.425  1.00  0.00    -0.129 Cl
ENDBRANCH  22  23
ENDBRANCH  18  22
ENDBRANCH   3  18
TORSDOF 8
ENDMDL
MODEL 9
REMARK VINA RESULT:      -6.6      3.188      7.260
REMARK  8 active torsions:
REMARK  status: ('A' for Active; 'I' for Inactive)
REMARK       I    between atoms: C1_2  and  N1_3 
REMARK    1  A    between atoms: C1_2  and  C9_11 
REMARK    2  A    between atoms: N1_3  and  C2_4 
REMARK    3  A    between atoms: C2_4  and  C3_5 
REMARK    4  A    between atoms: C11_13  and  N2_14 
REMARK    5  A    between atoms: N2_14  and  C12_15 
REMARK    6  A    between atoms: N2_14  and  C14_18 
REMARK    7  A    between atoms: C12_15  and  C13_16 
REMARK    8  A    between atoms: C14_18  and  C15_19 
ROOT
HETATM    1  C9  UNL     1      25.607   3.385  50.741  1.00  0.00     0.011 C 
HETATM    2  C10 UNL     1      24.527   4.138  50.656  1.00  0.00     0.025 C 
HETATM    3  C11 UNL     1      24.328   5.225  49.658  1.00  0.00     0.269 C 
HETATM    4  C16 UNL     1      25.581   5.520  48.923  1.00  0.00     0.009 C 
HETATM    5  C17 UNL     1      26.674   4.764  49.009  1.00  0.00    -0.024 C 
HETATM    6  C18 UNL     1      26.761   3.540  49.847  1.00  0.00     0.071 C 
ENDROOT
BRANCH   1   7
HETATM    7  C1  UNL     1      25.585   2.378  51.793  1.00  0.00     0.247 C 
HETATM    8  O1  UNL     1      24.756   1.412  51.730  1.00  0.00    -0.268 OA
HETATM    9  N1  UNL     1      26.439   2.373  52.927  1.00  0.00    -0.353 N 
HETATM   10  H1  UNL     1      27.132   3.150  53.027  1.00  0.00     0.163 HD
BRANCH   9  11
HETATM   11  C2  UNL     1      26.129   1.203  53.751  1.00  0.00     0.161 C 
BRANCH  11  12
HETATM   12  C3  UNL     1      27.251   0.252  53.555  1.00  0.00    -0.041 A 
HETATM   13  C4  UNL     1      28.479   0.809  53.897  1.00  0.00     0.009 A 
HETATM   14  C5  UNL     1      29.663   0.128  53.798  1.00  0.00     0.001 A 
HETATM   15  C6  UNL     1      29.603  -1.167  53.335  1.00  0.00     0.000 A 
HETATM   16  C7  UNL     1      28.392  -1.771  52.979  1.00  0.00     0.001 A 
HETATM   17  C8  UNL     1      27.223  -1.039  53.098  1.00  0.00     0.009 A 
ENDBRANCH  11  12
ENDBRANCH   9  11
ENDBRANCH   1   7
BRANCH   3  18
HETATM   18  N2  UNL     1      23.306   4.865  48.704  1.00  0.00     0.102 N 
BRANCH  18  19
HETATM   19  C12 UNL     1      22.645   3.658  49.092  1.00  0.00     0.288 C 
BRANCH  19  20
HETATM   20  C13 UNL     1      22.319   2.764  47.910  1.00  0.00     0.145 C 
HETATM   21 CL1  UNL     1      21.658   1.203  48.416  1.00  0.00    -0.129 Cl
ENDBRANCH  19  20
ENDBRANCH  18  19
BRANCH  18  22
HETATM   22  C14 UNL     1      22.420   5.992  48.575  1.00  0.00     0.288 C 
BRANCH  22  23
HETATM   23  C15 UNL     1      21.309   5.979  49.607  1.00  0.00     0.145 C 
HETATM   24 CL2  UNL     1      21.594   7.275  50.802  1.00  0.00    -0.129 Cl
ENDBRANCH  22  23
ENDBRANCH  18  22
ENDBRANCH   3  18
TORSDOF 8
ENDMDL
