MODEL 1
REMARK VINA RESULT:      -8.3      0.000      0.000
REMARK  3 active torsions:
REMARK  status: ('A' for Active; 'I' for Inactive)
REMARK    1  A    between atoms: N1_2  and  C3_4 
REMARK    2  A    between atoms: C11_14  and  N3_15 
REMARK    3  A    between atoms: N3_15  and  C12_16 
ROOT
HETATM    1  C3  UNL     1      26.156   3.250  50.733  1.00  0.00     0.146 A 
HETATM    2  C4  UNL     1      25.021   2.715  51.320  1.00  0.00     0.072 A 
HETATM    3  C5  UNL     1      25.352   1.531  51.995  1.00  0.00     0.027 A 
HETATM    4  C6  UNL     1      26.706   1.422  51.764  1.00  0.00     0.101 A 
HETATM    5  O1  UNL     1      27.118   2.431  51.038  1.00  0.00    -0.292 OA
HETATM    6  C7  UNL     1      27.307   0.387  52.282  1.00  0.00     0.009 C 
HETATM    7  C8  UNL     1      26.592  -0.728  52.283  1.00  0.00     0.013 C 
HETATM    8  C9  UNL     1      25.447  -0.445  53.221  1.00  0.00     0.167 C 
HETATM    9  C10 UNL     1      26.091  -0.114  54.497  1.00  0.00     0.074 C 
HETATM   10  N2  UNL     1      26.620   0.163  55.507  1.00  0.00    -0.196 NA
HETATM   11  C11 UNL     1      24.591   0.666  52.706  1.00  0.00     0.044 C 
ENDROOT
BRANCH  11  12
HETATM   12  N3  UNL     1      23.218   1.011  52.784  1.00  0.00    -0.357 N 
HETATM   13  H10 UNL     1      23.052   2.048  52.577  1.00  0.00     0.166 HD
BRANCH  12  14
HETATM   14  C12 UNL     1      22.042   0.287  53.062  1.00  0.00     0.033 A 
HETATM   15  C13 UNL     1      22.020  -0.704  54.041  1.00  0.00     0.029 A 
HETATM   16  C14 UNL     1      20.907  -1.434  54.353  1.00  0.00     0.004 A 
HETATM   17  C15 UNL     1      19.718  -1.211  53.690  1.00  0.00     0.019 A 
HETATM   18  C16 UNL     1      19.668  -0.238  52.700  1.00  0.00     0.013 A 
HETATM   19 BR1  UNL     1      18.037   0.116  51.750  1.00  0.00    -0.051 Br
HETATM   20  C17 UNL     1      20.826   0.458  52.438  1.00  0.00     0.048 A 
ENDBRANCH  12  14
ENDBRANCH  11  12
BRANCH   1  21
HETATM   21  N1  UNL     1      26.085   4.462  49.982  1.00  0.00    -0.370 N 
HETATM   22  C1  UNL     1      27.100   4.646  48.970  1.00  0.00     0.151 C 
HETATM   23  C2  UNL     1      25.103   5.522  50.122  1.00  0.00     0.151 C 
ENDBRANCH   1  21
TORSDOF 3
ENDMDL
MODEL 2
REMARK VINA RESULT:      -8.0      3.351      6.919
REMARK  3 active torsions:
REMARK  status: ('A' for Active; 'I' for Inactive)
REMARK    1  A    between atoms: N1_2  and  C3_4 
REMARK    2  A    between atoms: C11_14  and  N3_15 
REMARK    3  A    between atoms: N3_15  and  C12_16 
ROOT
HETATM    1  C3  UNL     1      27.010   0.720  53.032  1.00  0.00     0.146 A 
HETATM    2  C4  UNL     1      26.957   1.529  51.909  1.00  0.00     0.072 A 
HETATM    3  C5  UNL     1      25.626   1.892  51.650  1.00  0.00     0.027 A 
HETATM    4  C6  UNL     1      24.940   1.256  52.663  1.00  0.00     0.101 A 
HETATM    5  O1  UNL     1      25.777   0.600  53.428  1.00  0.00    -0.292 OA
HETATM    6  C7  UNL     1      23.646   1.413  52.681  1.00  0.00     0.009 C 
HETATM    7  C8  UNL     1      23.075   1.459  51.486  1.00  0.00     0.013 C 
HETATM    8  C9  UNL     1      23.602   2.725  50.861  1.00  0.00     0.167 C 
HETATM    9  C10 UNL     1      23.198   3.788  51.788  1.00  0.00     0.074 C 
HETATM   10  N2  UNL     1      22.881   4.626  52.547  1.00  0.00    -0.196 NA
HETATM   11  C11 UNL     1      25.083   2.658  50.676  1.00  0.00     0.044 C 
ENDROOT
BRANCH  11  12
HETATM   12  N3  UNL     1      26.017   3.189  49.751  1.00  0.00    -0.357 N 
HETATM   13  H10 UNL     1      26.510   2.422  49.193  1.00  0.00     0.166 HD
BRANCH  12  14
HETATM   14  C12 UNL     1      26.418   4.496  49.408  1.00  0.00     0.033 A 
HETATM   15  C13 UNL     1      27.586   4.723  48.683  1.00  0.00     0.029 A 
HETATM   16  C14 UNL     1      28.021   5.968  48.320  1.00  0.00     0.004 A 
HETATM   17  C15 UNL     1      27.296   7.088  48.668  1.00  0.00     0.019 A 
HETATM   18  C16 UNL     1      26.121   6.936  49.393  1.00  0.00     0.013 A 
HETATM   19 BR1  UNL     1      25.070   8.462  49.898  1.00  0.00    -0.051 Br
HETATM   20  C17 UNL     1      25.743   5.654  49.724  1.00  0.00     0.048 A 
ENDBRANCH  12  14
ENDBRANCH  11  12
BRANCH   1  21
HETATM   21  N1  UNL     1      28.258   0.213  53.506  1.00  0.00    -0.370 N 
HETATM   22  C1  UNL     1      29.083   1.141  54.246  1.00  0.00     0.151 C 
HETATM   23  C2  UNL     1      28.781  -1.129  53.330  1.00  0.00     0.151 C 
ENDBRANCH   1  21
TORSDOF 3
ENDMDL
MODEL 3
REMARK VINA RESULT:      -7.7      2.488      5.825
REMARK  3 active torsions:
REMARK  status: ('A' for Active; 'I' for Inactive)
REMARK    1  A    between atoms: N1_2  and  C3_4 
REMARK    2  A    between atoms: C11_14  and  N3_15 
REMARK    3  A    between atoms: N3_15  and  C12_16 
ROOT
HETATM    1  C3  UNL     1      23.272  -0.432  53.608  1.00  0.00     0.146 A 
HETATM    2  C4  UNL     1      24.064   0.178  52.649  1.00  0.00     0.072 A 
HETATM    3  C5  UNL     1      25.385   0.269  53.115  1.00  0.00     0.027 A 
HETATM    4  C6  UNL     1      25.301  -0.306  54.365  1.00  0.00     0.101 A 
HETATM    5  O1  UNL     1      24.072  -0.693  54.599  1.00  0.00    -0.292 OA
HETATM    6  C7  UNL     1      26.405  -0.362  55.058  1.00  0.00     0.009 C 
HETATM    7  C8  UNL     1      27.204   0.685  54.915  1.00  0.00     0.013 C 
HETATM    8  C9  UNL     1      27.655   0.625  53.479  1.00  0.00     0.167 C 
HETATM    9  C10 UNL     1      28.308  -0.683  53.352  1.00  0.00     0.074 C 
HETATM   10  N2  UNL     1      28.814  -1.739  53.262  1.00  0.00    -0.196 NA
HETATM   11  C11 UNL     1      26.500   0.781  52.544  1.00  0.00     0.044 C 
ENDROOT
BRANCH  11  12
HETATM   12  N3  UNL     1      26.306   1.322  51.248  1.00  0.00    -0.357 N 
HETATM   13  H10 UNL     1      26.424   0.583  50.483  1.00  0.00     0.166 HD
BRANCH  12  14
HETATM   14  C12 UNL     1      25.985   2.604  50.762  1.00  0.00     0.033 A 
HETATM   15  C13 UNL     1      26.733   3.198  49.747  1.00  0.00     0.029 A 
HETATM   16  C14 UNL     1      26.463   4.437  49.236  1.00  0.00     0.004 A 
HETATM   17  C15 UNL     1      25.403   5.176  49.718  1.00  0.00     0.019 A 
HETATM   18  C16 UNL     1      24.615   4.645  50.731  1.00  0.00     0.013 A 
HETATM   19 BR1  UNL     1      23.122   5.628  51.434  1.00  0.00    -0.051 Br
HETATM   20  C17 UNL     1      24.943   3.392  51.199  1.00  0.00     0.048 A 
ENDBRANCH  12  14
ENDBRANCH  11  12
BRANCH   1  21
HETATM   21  N1  UNL     1      21.880  -0.644  53.375  1.00  0.00    -0.370 N 
HETATM   22  C1  UNL     1      21.325  -0.005  52.202  1.00  0.00     0.151 C 
HETATM   23  C2  UNL     1      20.967  -1.432  54.182  1.00  0.00     0.151 C 
ENDBRANCH   1  21
TORSDOF 3
ENDMDL
MODEL 4
REMARK VINA RESULT:      -7.7      3.222      6.536
REMARK  3 active torsions:
REMARK  status: ('A' for Active; 'I' for Inactive)
REMARK    1  A    between atoms: N1_2  and  C3_4 
REMARK    2  A    between atoms: C11_14  and  N3_15 
REMARK    3  A    between atoms: N3_15  and  C12_16 
ROOT
HETATM    1  C3  UNL     1      25.045   0.151  53.130  1.00  0.00     0.146 A 
HETATM    2  C4  UNL     1      24.935   1.065  52.096  1.00  0.00     0.072 A 
HETATM    3  C5  UNL     1      23.586   1.215  51.738  1.00  0.00     0.027 A 
HETATM    4  C6  UNL     1      22.950   0.352  52.604  1.00  0.00     0.101 A 
HETATM    5  O1  UNL     1      23.828  -0.231  53.382  1.00  0.00    -0.292 OA
HETATM    6  C7  UNL     1      21.651   0.274  52.503  1.00  0.00     0.009 C 
HETATM    7  C8  UNL     1      21.185   0.359  51.266  1.00  0.00     0.013 C 
HETATM    8  C9  UNL     1      21.515   1.763  50.831  1.00  0.00     0.167 C 
HETATM    9  C10 UNL     1      20.843   2.620  51.814  1.00  0.00     0.074 C 
HETATM   10  N2  UNL     1      20.312   3.293  52.616  1.00  0.00    -0.196 NA
HETATM   11  C11 UNL     1      22.992   1.983  50.795  1.00  0.00     0.044 C 
ENDROOT
BRANCH  11  12
HETATM   12  N3  UNL     1      23.884   2.777  50.031  1.00  0.00    -0.357 N 
HETATM   13  H10 UNL     1      24.286   2.241  49.197  1.00  0.00     0.166 HD
BRANCH  12  14
HETATM   14  C12 UNL     1      24.337   4.107  50.129  1.00  0.00     0.033 A 
HETATM   15  C13 UNL     1      23.739   5.010  51.006  1.00  0.00     0.029 A 
HETATM   16  C14 UNL     1      24.141   6.310  51.144  1.00  0.00     0.004 A 
HETATM   17  C15 UNL     1      25.191   6.798  50.395  1.00  0.00     0.019 A 
HETATM   18  C16 UNL     1      25.834   5.953  49.499  1.00  0.00     0.013 A 
HETATM   19 BR1  UNL     1      27.306   6.580  48.436  1.00  0.00    -0.051 Br
HETATM   20  C17 UNL     1      25.377   4.657  49.412  1.00  0.00     0.048 A 
ENDBRANCH  12  14
ENDBRANCH  11  12
BRANCH   1  21
HETATM   21  N1  UNL     1      26.321  -0.179  53.678  1.00  0.00    -0.370 N 
HETATM   22  C1  UNL     1      27.178  -0.998  52.851  1.00  0.00     0.151 C 
HETATM   23  C2  UNL     1      26.850   0.223  54.968  1.00  0.00     0.151 C 
ENDBRANCH   1  21
TORSDOF 3
ENDMDL
MODEL 5
REMARK VINA RESULT:      -7.4      3.467      6.607
REMARK  3 active torsions:
REMARK  status: ('A' for Active; 'I' for Inactive)
REMARK    1  A    between atoms: N1_2  and  C3_4 
REMARK    2  A    between atoms: C11_14  and  N3_15 
REMARK    3  A    between atoms: N3_15  and  C12_16 
ROOT
HETATM    1  C3  UNL     1      22.210   1.844  50.391  1.00  0.00     0.146 A 
HETATM    2  C4  UNL     1      23.418   2.352  49.944  1.00  0.00     0.072 A 
HETATM    3  C5  UNL     1      24.394   2.196  50.940  1.00  0.00     0.027 A 
HETATM    4  C6  UNL     1      23.689   1.588  51.956  1.00  0.00     0.101 A 
HETATM    5  O1  UNL     1      22.444   1.407  51.592  1.00  0.00    -0.292 OA
HETATM    6  C7  UNL     1      24.352   1.313  53.046  1.00  0.00     0.009 C 
HETATM    7  C8  UNL     1      25.264   2.213  53.383  1.00  0.00     0.013 C 
HETATM    8  C9  UNL     1      26.293   2.143  52.284  1.00  0.00     0.167 C 
HETATM    9  C10 UNL     1      26.753   0.750  52.301  1.00  0.00     0.074 C 
HETATM   10  N2  UNL     1      27.101  -0.372  52.316  1.00  0.00    -0.196 NA
HETATM   11  C11 UNL     1      25.704   2.535  50.968  1.00  0.00     0.044 C 
ENDROOT
BRANCH  11  12
HETATM   12  N3  UNL     1      26.179   3.159  49.787  1.00  0.00    -0.357 N 
HETATM   13  H10 UNL     1      26.342   2.455  48.999  1.00  0.00     0.166 HD
BRANCH  12  14
HETATM   14  C12 UNL     1      26.467   4.492  49.433  1.00  0.00     0.033 A 
HETATM   15  C13 UNL     1      27.583   4.807  48.660  1.00  0.00     0.029 A 
HETATM   16  C14 UNL     1      27.907   6.081  48.285  1.00  0.00     0.004 A 
HETATM   17  C15 UNL     1      27.116   7.144  48.668  1.00  0.00     0.019 A 
HETATM   18  C16 UNL     1      25.988   6.903  49.442  1.00  0.00     0.013 A 
HETATM   19 BR1  UNL     1      24.848   8.346  49.998  1.00  0.00    -0.051 Br
HETATM   20  C17 UNL     1      25.722   5.596  49.783  1.00  0.00     0.048 A 
ENDBRANCH  12  14
ENDBRANCH  11  12
BRANCH   1  21
HETATM   21  N1  UNL     1      21.051   1.884  49.558  1.00  0.00    -0.370 N 
HETATM   22  C1  UNL     1      21.273   2.232  48.172  1.00  0.00     0.151 C 
HETATM   23  C2  UNL     1      19.681   1.608  49.950  1.00  0.00     0.151 C 
ENDBRANCH   1  21
TORSDOF 3
ENDMDL
MODEL 6
REMARK VINA RESULT:      -7.4      6.233     10.754
REMARK  3 active torsions:
REMARK  status: ('A' for Active; 'I' for Inactive)
REMARK    1  A    between atoms: N1_2  and  C3_4 
REMARK    2  A    between atoms: C11_14  and  N3_15 
REMARK    3  A    between atoms: N3_15  and  C12_16 
ROOT
HETATM    1  C3  UNL     1      26.494   5.184  49.000  1.00  0.00     0.146 A 
HETATM    2  C4  UNL     1      27.782   4.804  48.662  1.00  0.00     0.072 A 
HETATM    3  C5  UNL     1      28.489   5.912  48.170  1.00  0.00     0.027 A 
HETATM    4  C6  UNL     1      27.552   6.920  48.243  1.00  0.00     0.101 A 
HETATM    5  O1  UNL     1      26.428   6.453  48.726  1.00  0.00    -0.292 OA
HETATM    6  C7  UNL     1      27.931   8.101  47.839  1.00  0.00     0.009 C 
HETATM    7  C8  UNL     1      28.750   8.096  46.797  1.00  0.00     0.013 C 
HETATM    8  C9  UNL     1      30.010   7.447  47.307  1.00  0.00     0.167 C 
HETATM    9  C10 UNL     1      30.432   8.292  48.429  1.00  0.00     0.074 C 
HETATM   10  N2  UNL     1      30.748   8.970  49.334  1.00  0.00    -0.196 NA
HETATM   11  C11 UNL     1      29.759   6.032  47.718  1.00  0.00     0.044 C 
ENDROOT
BRANCH  11  12
HETATM   12  N3  UNL     1      30.512   4.832  47.743  1.00  0.00    -0.357 N 
HETATM   13  H10 UNL     1      29.894   3.972  47.894  1.00  0.00     0.166 HD
BRANCH  12  14
HETATM   14  C12 UNL     1      31.882   4.534  47.602  1.00  0.00     0.033 A 
HETATM   15  C13 UNL     1      32.311   3.476  46.802  1.00  0.00     0.029 A 
HETATM   16  C14 UNL     1      33.626   3.146  46.627  1.00  0.00     0.004 A 
HETATM   17  C15 UNL     1      34.617   3.870  47.256  1.00  0.00     0.019 A 
HETATM   18  C16 UNL     1      34.262   4.938  48.070  1.00  0.00     0.013 A 
HETATM   19 BR1  UNL     1      35.601   5.984  48.964  1.00  0.00    -0.051 Br
HETATM   20  C17 UNL     1      32.919   5.215  48.201  1.00  0.00     0.048 A 
ENDBRANCH  12  14
ENDBRANCH  11  12
BRANCH   1  21
HETATM   21  N1  UNL     1      25.569   4.233  49.527  1.00  0.00    -0.370 N 
HETATM   22  C1  UNL     1      24.180   4.437  49.185  1.00  0.00     0.151 C 
HETATM   23  C2  UNL     1      25.874   3.086  50.362  1.00  0.00     0.151 C 
ENDBRANCH   1  21
TORSDOF 3
ENDMDL
MODEL 7
REMARK VINA RESULT:      -7.3      1.596      3.921
REMARK  3 active torsions:
REMARK  status: ('A' for Active; 'I' for Inactive)
REMARK    1  A    between atoms: N1_2  and  C3_4 
REMARK    2  A    between atoms: C11_14  and  N3_15 
REMARK    3  A    between atoms: N3_15  and  C12_16 
ROOT
HETATM    1  C3  UNL     1      27.092   1.510  52.332  1.00  0.00     0.146 A 
HETATM    2  C4  UNL     1      25.774   1.613  52.744  1.00  0.00     0.072 A 
HETATM    3  C5  UNL     1      25.059   2.419  51.845  1.00  0.00     0.027 A 
HETATM    4  C6  UNL     1      26.021   2.763  50.921  1.00  0.00     0.101 A 
HETATM    5  O1  UNL     1      27.168   2.217  51.243  1.00  0.00    -0.292 OA
HETATM    6  C7  UNL     1      25.641   3.532  49.938  1.00  0.00     0.009 C 
HETATM    7  C8  UNL     1      24.747   4.453  50.268  1.00  0.00     0.013 C 
HETATM    8  C9  UNL     1      23.513   3.671  50.637  1.00  0.00     0.167 C 
HETATM    9  C10 UNL     1      23.197   2.894  49.433  1.00  0.00     0.074 C 
HETATM   10  N2  UNL     1      22.965   2.267  48.468  1.00  0.00    -0.196 NA
HETATM   11  C11 UNL     1      23.762   2.804  51.828  1.00  0.00     0.044 C 
ENDROOT
BRANCH  11  12
HETATM   12  N3  UNL     1      22.984   2.312  52.907  1.00  0.00    -0.357 N 
HETATM   13  H10 UNL     1      23.037   2.949  53.765  1.00  0.00     0.166 HD
BRANCH  12  14
HETATM   14  C12 UNL     1      22.159   1.184  53.082  1.00  0.00     0.033 A 
HETATM   15  C13 UNL     1      22.584   0.089  53.833  1.00  0.00     0.029 A 
HETATM   16  C14 UNL     1      21.824  -1.028  54.038  1.00  0.00     0.004 A 
HETATM   17  C15 UNL     1      20.560  -1.122  53.494  1.00  0.00     0.019 A 
HETATM   18  C16 UNL     1      20.072  -0.067  52.733  1.00  0.00     0.013 A 
HETATM   19 BR1  UNL     1      18.316  -0.143  51.957  1.00  0.00    -0.051 Br
HETATM   20  C17 UNL     1      20.891   1.027  52.567  1.00  0.00     0.048 A 
ENDBRANCH  12  14
ENDBRANCH  11  12
BRANCH   1  21
HETATM   21  N1  UNL     1      28.031   0.740  53.082  1.00  0.00    -0.370 N 
HETATM   22  C1  UNL     1      29.015   1.488  53.831  1.00  0.00     0.151 C 
HETATM   23  C2  UNL     1      28.101  -0.706  53.176  1.00  0.00     0.151 C 
ENDBRANCH   1  21
TORSDOF 3
ENDMDL
MODEL 8
REMARK VINA RESULT:      -7.2      2.982      5.182
REMARK  3 active torsions:
REMARK  status: ('A' for Active; 'I' for Inactive)
REMARK    1  A    between atoms: N1_2  and  C3_4 
REMARK    2  A    between atoms: C11_14  and  N3_15 
REMARK    3  A    between atoms: N3_15  and  C12_16 
ROOT
HETATM    1  C3  UNL     1      26.810   5.890  48.588  1.00  0.00     0.146 A 
HETATM    2  C4  UNL     1      26.761   4.739  49.357  1.00  0.00     0.072 A 
HETATM    3  C5  UNL     1      25.425   4.354  49.547  1.00  0.00     0.027 A 
HETATM    4  C6  UNL     1      24.732   5.328  48.862  1.00  0.00     0.101 A 
HETATM    5  O1  UNL     1      25.570   6.183  48.329  1.00  0.00    -0.292 OA
HETATM    6  C7  UNL     1      23.431   5.232  48.864  1.00  0.00     0.009 C 
HETATM    7  C8  UNL     1      22.909   4.788  49.998  1.00  0.00     0.013 C 
HETATM    8  C9  UNL     1      23.394   3.366  50.109  1.00  0.00     0.167 C 
HETATM    9  C10 UNL     1      22.898   2.712  48.893  1.00  0.00     0.074 C 
HETATM   10  N2  UNL     1      22.507   2.206  47.908  1.00  0.00    -0.196 NA
HETATM   11  C11 UNL     1      24.883   3.312  50.221  1.00  0.00     0.044 C 
ENDROOT
BRANCH  11  12
HETATM   12  N3  UNL     1      25.825   2.458  50.846  1.00  0.00    -0.357 N 
HETATM   13  H10 UNL     1      26.832   2.715  50.592  1.00  0.00     0.166 HD
BRANCH  12  14
HETATM   14  C12 UNL     1      25.719   1.364  51.728  1.00  0.00     0.033 A 
HETATM   15  C13 UNL     1      26.835   0.600  52.066  1.00  0.00     0.029 A 
HETATM   16  C14 UNL     1      26.789  -0.468  52.919  1.00  0.00     0.004 A 
HETATM   17  C15 UNL     1      25.597  -0.847  53.500  1.00  0.00     0.019 A 
HETATM   18  C16 UNL     1      24.444  -0.130  53.206  1.00  0.00     0.013 A 
HETATM   19 BR1  UNL     1      22.759  -0.610  53.993  1.00  0.00    -0.051 Br
HETATM   20  C17 UNL     1      24.563   0.934  52.340  1.00  0.00     0.048 A 
ENDBRANCH  12  14
ENDBRANCH  11  12
BRANCH   1  21
HETATM   21  N1  UNL     1      28.061   6.488  48.251  1.00  0.00    -0.370 N 
HETATM   22  C1  UNL     1      29.212   5.613  48.269  1.00  0.00     0.151 C 
HETATM   23  C2  UNL     1      28.300   7.872  47.889  1.00  0.00     0.151 C 
ENDBRANCH   1  21
TORSDOF 3
ENDMDL
MODEL 9
REMARK VINA RESULT:      -7.1      3.831      6.300
REMARK  3 active torsions:
REMARK  status: ('A' for Active; 'I' for Inactive)
REMARK    1  A    between atoms: N1_2  and  C3_4 
REMARK    2  A    between atoms: C11_14  and  N3_15 
REMARK    3  A    between atoms: N3_15  and  C12_16 
ROOT
HETATM    1  C3  UNL     1      28.181   6.185  48.089  1.00  0.00     0.146 A 
HETATM    2  C4  UNL     1      27.785   5.037  48.755  1.00  0.00     0.072 A 
HETATM    3  C5  UNL     1      26.432   5.140  49.111  1.00  0.00     0.027 A 
HETATM    4  C6  UNL     1      26.088   6.383  48.625  1.00  0.00     0.101 A 
HETATM    5  O1  UNL     1      27.124   6.940  48.047  1.00  0.00    -0.292 OA
HETATM    6  C7  UNL     1      24.856   6.766  48.815  1.00  0.00     0.009 C 
HETATM    7  C8  UNL     1      24.330   6.391  49.972  1.00  0.00     0.013 C 
HETATM    8  C9  UNL     1      24.252   4.889  49.886  1.00  0.00     0.167 C 
HETATM    9  C10 UNL     1      23.418   4.632  48.707  1.00  0.00     0.074 C 
HETATM   10  N2  UNL     1      22.760   4.441  47.752  1.00  0.00    -0.196 NA
HETATM   11  C11 UNL     1      25.613   4.285  49.766  1.00  0.00     0.044 C 
ENDROOT
BRANCH  11  12
HETATM   12  N3  UNL     1      26.224   3.070  50.167  1.00  0.00    -0.357 N 
HETATM   13  H10 UNL     1      26.983   2.756  49.480  1.00  0.00     0.166 HD
BRANCH  12  14
HETATM   14  C12 UNL     1      26.056   2.207  51.267  1.00  0.00     0.033 A 
HETATM   15  C13 UNL     1      24.793   1.743  51.633  1.00  0.00     0.029 A 
HETATM   16  C14 UNL     1      24.574   0.902  52.688  1.00  0.00     0.004 A 
HETATM   17  C15 UNL     1      25.627   0.461  53.461  1.00  0.00     0.019 A 
HETATM   18  C16 UNL     1      26.914   0.885  53.154  1.00  0.00     0.013 A 
HETATM   19 BR1  UNL     1      28.419   0.298  54.193  1.00  0.00    -0.051 Br
HETATM   20  C17 UNL     1      27.063   1.732  52.078  1.00  0.00     0.048 A 
ENDBRANCH  12  14
ENDBRANCH  11  12
BRANCH   1  21
HETATM   21  N1  UNL     1      29.522   6.329  47.620  1.00  0.00    -0.370 N 
HETATM   22  C1  UNL     1      29.803   7.517  46.846  1.00  0.00     0.151 C 
HETATM   23  C2  UNL     1      30.628   5.416  47.840  1.00  0.00     0.151 C 
ENDBRANCH   1  21
TORSDOF 3
ENDMDL
