MODEL 1
REMARK VINA RESULT:      -8.8      0.000      0.000
REMARK  2 active torsions:
REMARK  status: ('A' for Active; 'I' for Inactive)
REMARK    1  A    between atoms: N4_17  and  C13_18 
REMARK    2  A    between atoms: C13_18  and  N5_19 
ROOT
HETATM    1  C1  UNL     1      24.440   8.508  49.596  1.00  0.00     0.050 C 
HETATM    2  C2  UNL     1      23.517   7.715  50.522  1.00  0.00     0.279 C 
HETATM    3  N1  UNL     1      23.959   6.331  50.377  1.00  0.00     0.109 N 
HETATM    4  C3  UNL     1      23.008   5.733  49.438  1.00  0.00     0.300 C 
HETATM    5  S1  UNL     1      23.504   4.152  48.788  1.00  0.00    -0.091 SA
HETATM    6  C4  UNL     1      24.331   3.193  50.031  1.00  0.00     0.032 A 
HETATM    7  C5  UNL     1      25.715   3.387  49.943  1.00  0.00     0.023 A 
HETATM    8  C6  UNL     1      26.619   2.722  50.781  1.00  0.00     0.034 A 
HETATM    9  C7  UNL     1      26.092   1.855  51.715  1.00  0.00     0.072 A 
HETATM   10  N2  UNL     1      26.949   1.189  52.532  1.00  0.00    -0.258 NA
HETATM   11  C8  UNL     1      26.435   0.340  53.427  1.00  0.00     0.149 A 
HETATM   12  C9  UNL     1      25.074   0.135  53.527  1.00  0.00     0.087 A 
HETATM   13  C10 UNL     1      24.192   0.804  52.703  1.00  0.00     0.112 A 
HETATM   14  C11 UNL     1      24.726   1.678  51.785  1.00  0.00     0.058 A 
HETATM   15  C12 UNL     1      23.829   2.321  50.975  1.00  0.00     0.082 A 
HETATM   16  N3  UNL     1      22.439   2.192  51.056  1.00  0.00    -0.279 N 
HETATM   17  N4  UNL     1      21.513   2.272  49.979  1.00  0.00    -0.183 N 
HETATM   18  N6  UNL     1      21.602   3.639  50.074  1.00  0.00    -0.171 NA
HETATM   19  C14 UNL     1      20.855   4.573  49.731  1.00  0.00     0.125 C 
HETATM   20  C15 UNL     1      21.696   5.685  50.197  1.00  0.00     0.097 C 
HETATM   21  C16 UNL     1      21.065   7.040  49.958  1.00  0.00     0.026 C 
HETATM   22  C17 UNL     1      22.088   7.907  50.157  1.00  0.00     0.123 C 
HETATM   23  F1  UNL     1      21.912   9.255  50.033  1.00  0.00    -0.209 F 
HETATM   24  O1  UNL     1      22.877   0.477  52.938  1.00  0.00    -0.339 OA
HETATM   25  C18 UNL     1      22.525  -0.804  53.420  1.00  0.00     0.278 C 
HETATM   26  C19 UNL     1      23.268  -1.087  54.702  1.00  0.00     0.246 C 
HETATM   27  O2  UNL     1      22.850  -1.492  55.794  1.00  0.00    -0.271 OA
HETATM   28  N7  UNL     1      24.676  -0.815  54.538  1.00  0.00    -0.322 N 
HETATM   29  H5  UNL     1      23.829   5.873  51.307  1.00  0.00     0.318 HD
HETATM   30  H10 UNL     1      22.003   2.039  51.984  1.00  0.00     0.189 HD
HETATM   31  H20 UNL     1      25.400  -1.295  55.140  1.00  0.00     0.169 HD
ENDROOT
BRANCH  17  32
HETATM   32  C13 UNL     1      21.184   0.915  49.607  1.00  0.00     0.437 C 
BRANCH  32  33
HETATM   33  N5  UNL     1      20.602   0.168  50.696  1.00  0.00     0.099 N 
HETATM   34  H13 UNL     1      20.726   0.596  51.617  1.00  0.00     0.315 HD
HETATM   35  H14 UNL     1      20.838  -0.844  50.688  1.00  0.00     0.315 HD
ENDBRANCH  32  33
ENDBRANCH  17  32
TORSDOF 2
ENDMDL
MODEL 2
REMARK VINA RESULT:      -8.3      3.681      6.946
REMARK  2 active torsions:
REMARK  status: ('A' for Active; 'I' for Inactive)
REMARK    1  A    between atoms: N4_17  and  C13_18 
REMARK    2  A    between atoms: C13_18  and  N5_19 
ROOT
HETATM    1  C1  UNL     1      28.146   2.523  53.610  1.00  0.00     0.050 C 
HETATM    2  C2  UNL     1      27.403   1.803  52.484  1.00  0.00     0.279 C 
HETATM    3  N1  UNL     1      26.369   2.748  52.070  1.00  0.00     0.109 N 
HETATM    4  C3  UNL     1      25.152   2.285  52.740  1.00  0.00     0.300 C 
HETATM    5  S1  UNL     1      23.805   3.448  52.715  1.00  0.00    -0.091 SA
HETATM    6  C4  UNL     1      23.756   4.320  51.170  1.00  0.00     0.032 A 
HETATM    7  C5  UNL     1      24.467   5.521  51.276  1.00  0.00     0.023 A 
HETATM    8  C6  UNL     1      24.564   6.430  50.215  1.00  0.00     0.034 A 
HETATM    9  C7  UNL     1      23.925   6.096  49.039  1.00  0.00     0.072 A 
HETATM   10  N2  UNL     1      23.994   6.967  47.998  1.00  0.00    -0.258 NA
HETATM   11  C8  UNL     1      23.363   6.645  46.865  1.00  0.00     0.149 A 
HETATM   12  C9  UNL     1      22.656   5.466  46.743  1.00  0.00     0.087 A 
HETATM   13  C10 UNL     1      22.577   4.573  47.791  1.00  0.00     0.112 A 
HETATM   14  C11 UNL     1      23.230   4.907  48.955  1.00  0.00     0.058 A 
HETATM   15  C12 UNL     1      23.128   4.008  49.982  1.00  0.00     0.082 A 
HETATM   16  N3  UNL     1      22.467   2.778  49.907  1.00  0.00    -0.279 N 
HETATM   17  N4  UNL     1      21.787   2.112  50.965  1.00  0.00    -0.183 N 
HETATM   18  N6  UNL     1      23.011   1.666  51.400  1.00  0.00    -0.171 NA
HETATM   19  C14 UNL     1      23.374   0.705  52.102  1.00  0.00     0.125 C 
HETATM   20  C15 UNL     1      24.820   0.967  52.069  1.00  0.00     0.097 C 
HETATM   21  C16 UNL     1      25.621  -0.065  52.833  1.00  0.00     0.026 C 
HETATM   22  C17 UNL     1      26.847   0.503  52.946  1.00  0.00     0.123 C 
HETATM   23  F1  UNL     1      27.871  -0.135  53.585  1.00  0.00    -0.209 F 
HETATM   24  O1  UNL     1      21.832   3.455  47.497  1.00  0.00    -0.339 OA
HETATM   25  C18 UNL     1      20.766   3.521  46.573  1.00  0.00     0.278 C 
HETATM   26  C19 UNL     1      21.266   4.056  45.254  1.00  0.00     0.246 C 
HETATM   27  O2  UNL     1      21.117   3.621  44.106  1.00  0.00    -0.271 OA
HETATM   28  N7  UNL     1      22.027   5.266  45.460  1.00  0.00    -0.322 N 
HETATM   29  H5  UNL     1      26.240   2.622  51.041  1.00  0.00     0.318 HD
HETATM   30  H10 UNL     1      22.468   2.262  49.008  1.00  0.00     0.189 HD
HETATM   31  H20 UNL     1      22.125   5.988  44.693  1.00  0.00     0.169 HD
ENDROOT
BRANCH  17  32
HETATM   32  C13 UNL     1      20.379   2.389  50.799  1.00  0.00     0.437 C 
BRANCH  32  33
HETATM   33  N5  UNL     1      19.861   1.891  49.547  1.00  0.00     0.099 N 
HETATM   34  H13 UNL     1      20.569   1.747  48.823  1.00  0.00     0.315 HD
HETATM   35  H14 UNL     1      19.029   2.408  49.198  1.00  0.00     0.315 HD
ENDBRANCH  32  33
ENDBRANCH  17  32
TORSDOF 2
ENDMDL
MODEL 3
REMARK VINA RESULT:      -8.0      2.728      4.649
REMARK  2 active torsions:
REMARK  status: ('A' for Active; 'I' for Inactive)
REMARK    1  A    between atoms: N4_17  and  C13_18 
REMARK    2  A    between atoms: C13_18  and  N5_19 
ROOT
HETATM    1  C1  UNL     1      18.401   3.333  46.559  1.00  0.00     0.050 C 
HETATM    2  C2  UNL     1      19.894   3.091  46.781  1.00  0.00     0.279 C 
HETATM    3  N1  UNL     1      20.031   2.974  48.230  1.00  0.00     0.109 N 
HETATM    4  C3  UNL     1      20.503   4.290  48.666  1.00  0.00     0.300 C 
HETATM    5  S1  UNL     1      20.415   4.563  50.423  1.00  0.00    -0.091 SA
HETATM    6  C4  UNL     1      20.812   3.078  51.310  1.00  0.00     0.032 A 
HETATM    7  C5  UNL     1      19.641   2.373  51.610  1.00  0.00     0.023 A 
HETATM    8  C6  UNL     1      19.653   1.177  52.339  1.00  0.00     0.034 A 
HETATM    9  C7  UNL     1      20.880   0.707  52.760  1.00  0.00     0.072 A 
HETATM   10  N2  UNL     1      20.917  -0.444  53.478  1.00  0.00    -0.258 NA
HETATM   11  C8  UNL     1      22.107  -0.889  53.894  1.00  0.00     0.149 A 
HETATM   12  C9  UNL     1      23.272  -0.206  53.609  1.00  0.00     0.087 A 
HETATM   13  C10 UNL     1      23.249   0.965  52.880  1.00  0.00     0.112 A 
HETATM   14  C11 UNL     1      22.022   1.418  52.453  1.00  0.00     0.058 A 
HETATM   15  C12 UNL     1      22.027   2.586  51.740  1.00  0.00     0.082 A 
HETATM   16  N3  UNL     1      23.174   3.300  51.379  1.00  0.00    -0.279 N 
HETATM   17  N4  UNL     1      23.286   4.711  51.231  1.00  0.00    -0.183 N 
HETATM   18  N6  UNL     1      22.727   4.571  49.985  1.00  0.00    -0.171 NA
HETATM   19  C14 UNL     1      22.746   5.267  48.953  1.00  0.00     0.125 C 
HETATM   20  C15 UNL     1      21.909   4.399  48.111  1.00  0.00     0.097 C 
HETATM   21  C16 UNL     1      21.728   4.940  46.709  1.00  0.00     0.026 C 
HETATM   22  C17 UNL     1      20.712   4.194  46.209  1.00  0.00     0.123 C 
HETATM   23  F1  UNL     1      20.248   4.384  44.939  1.00  0.00    -0.209 F 
HETATM   24  O1  UNL     1      24.497   1.512  52.693  1.00  0.00    -0.339 OA
HETATM   25  C18 UNL     1      25.520   1.321  53.649  1.00  0.00     0.278 C 
HETATM   26  C19 UNL     1      25.733  -0.155  53.878  1.00  0.00     0.246 C 
HETATM   27  O2  UNL     1      26.776  -0.821  53.876  1.00  0.00    -0.271 OA
HETATM   28  N7  UNL     1      24.473  -0.811  54.131  1.00  0.00    -0.322 N 
HETATM   29  H5  UNL     1      20.794   2.282  48.406  1.00  0.00     0.318 HD
HETATM   30  H10 UNL     1      24.046   2.778  51.175  1.00  0.00     0.189 HD
HETATM   31  H20 UNL     1      24.426  -1.712  54.683  1.00  0.00     0.169 HD
ENDROOT
BRANCH  17  32
HETATM   32  C13 UNL     1      23.880   5.215  52.448  1.00  0.00     0.437 C 
BRANCH  32  33
HETATM   33  N5  UNL     1      24.289   6.594  52.335  1.00  0.00     0.099 N 
HETATM   34  H13 UNL     1      24.002   7.187  53.118  1.00  0.00     0.315 HD
HETATM   35  H14 UNL     1      24.083   7.021  51.410  1.00  0.00     0.315 HD
ENDBRANCH  32  33
ENDBRANCH  17  32
TORSDOF 2
ENDMDL
MODEL 4
REMARK VINA RESULT:      -7.8      4.644      7.015
REMARK  2 active torsions:
REMARK  status: ('A' for Active; 'I' for Inactive)
REMARK    1  A    between atoms: N4_17  and  C13_18 
REMARK    2  A    between atoms: C13_18  and  N5_19 
ROOT
HETATM    1  C1  UNL     1      31.633  10.672  48.344  1.00  0.00     0.050 C 
HETATM    2  C2  UNL     1      30.347  10.753  49.167  1.00  0.00     0.279 C 
HETATM    3  N1  UNL     1      29.559   9.606  48.723  1.00  0.00     0.109 N 
HETATM    4  C3  UNL     1      28.604  10.161  47.762  1.00  0.00     0.300 C 
HETATM    5  S1  UNL     1      27.750   8.945  46.782  1.00  0.00    -0.091 SA
HETATM    6  C4  UNL     1      27.384   7.503  47.748  1.00  0.00     0.032 A 
HETATM    7  C5  UNL     1      28.401   6.553  47.593  1.00  0.00     0.023 A 
HETATM    8  C6  UNL     1      28.355   5.300  48.215  1.00  0.00     0.034 A 
HETATM    9  C7  UNL     1      27.255   5.025  49.001  1.00  0.00     0.072 A 
HETATM   10  N2  UNL     1      27.181   3.811  49.606  1.00  0.00    -0.258 NA
HETATM   11  C8  UNL     1      26.108   3.545  50.356  1.00  0.00     0.149 A 
HETATM   12  C9  UNL     1      25.095   4.468  50.518  1.00  0.00     0.087 A 
HETATM   13  C10 UNL     1      25.156   5.705  49.910  1.00  0.00     0.112 A 
HETATM   14  C11 UNL     1      26.264   5.975  49.140  1.00  0.00     0.058 A 
HETATM   15  C12 UNL     1      26.295   7.205  48.541  1.00  0.00     0.082 A 
HETATM   16  N3  UNL     1      25.326   8.200  48.702  1.00  0.00    -0.279 N 
HETATM   17  N4  UNL     1      24.928   9.165  47.735  1.00  0.00    -0.183 N 
HETATM   18  N6  UNL     1      26.037   9.895  48.085  1.00  0.00    -0.171 NA
HETATM   19  C14 UNL     1      26.337  11.099  47.988  1.00  0.00     0.125 C 
HETATM   20  C15 UNL     1      27.674  11.022  48.595  1.00  0.00     0.097 C 
HETATM   21  C16 UNL     1      28.363  12.367  48.672  1.00  0.00     0.026 C 
HETATM   22  C17 UNL     1      29.650  12.050  48.956  1.00  0.00     0.123 C 
HETATM   23  F1  UNL     1      30.603  13.015  49.110  1.00  0.00    -0.209 F 
HETATM   24  O1  UNL     1      24.063   6.495  50.177  1.00  0.00    -0.339 OA
HETATM   25  C18 UNL     1      22.798   5.918  50.427  1.00  0.00     0.278 C 
HETATM   26  C19 UNL     1      22.902   4.939  51.569  1.00  0.00     0.246 C 
HETATM   27  O2  UNL     1      22.213   4.826  52.590  1.00  0.00    -0.271 OA
HETATM   28  N7  UNL     1      24.003   4.030  51.353  1.00  0.00    -0.322 N 
HETATM   29  H5  UNL     1      29.024   9.268  49.554  1.00  0.00     0.318 HD
HETATM   30  H10 UNL     1      24.838   8.282  49.613  1.00  0.00     0.189 HD
HETATM   31  H20 UNL     1      24.014   3.069  51.794  1.00  0.00     0.169 HD
ENDROOT
BRANCH  17  32
HETATM   32  C13 UNL     1      23.708   8.678  47.133  1.00  0.00     0.437 C 
BRANCH  32  33
HETATM   33  N5  UNL     1      23.945   7.951  45.909  1.00  0.00     0.099 N 
HETATM   34  H13 UNL     1      23.099   7.721  45.382  1.00  0.00     0.315 HD
HETATM   35  H14 UNL     1      24.585   7.139  46.018  1.00  0.00     0.315 HD
ENDBRANCH  32  33
ENDBRANCH  17  32
TORSDOF 2
ENDMDL
MODEL 5
REMARK VINA RESULT:      -7.8      6.303      9.033
REMARK  2 active torsions:
REMARK  status: ('A' for Active; 'I' for Inactive)
REMARK    1  A    between atoms: N4_17  and  C13_18 
REMARK    2  A    between atoms: C13_18  and  N5_19 
ROOT
HETATM    1  C1  UNL     1      22.111  -1.101  53.171  1.00  0.00     0.050 C 
HETATM    2  C2  UNL     1      21.426   0.217  53.533  1.00  0.00     0.279 C 
HETATM    3  N1  UNL     1      20.106   0.122  52.915  1.00  0.00     0.109 N 
HETATM    4  C3  UNL     1      20.220   0.888  51.673  1.00  0.00     0.300 C 
HETATM    5  S1  UNL     1      18.877   0.650  50.530  1.00  0.00    -0.091 SA
HETATM    6  C4  UNL     1      17.337   0.484  51.396  1.00  0.00     0.032 A 
HETATM    7  C5  UNL     1      17.059  -0.869  51.622  1.00  0.00     0.023 A 
HETATM    8  C6  UNL     1      15.886  -1.296  52.257  1.00  0.00     0.034 A 
HETATM    9  C7  UNL     1      14.996  -0.323  52.660  1.00  0.00     0.072 A 
HETATM   10  N2  UNL     1      13.845  -0.712  53.267  1.00  0.00    -0.258 NA
HETATM   11  C8  UNL     1      12.981   0.234  53.644  1.00  0.00     0.149 A 
HETATM   12  C9  UNL     1      13.237   1.573  53.428  1.00  0.00     0.087 A 
HETATM   13  C10 UNL     1      14.402   1.983  52.812  1.00  0.00     0.112 A 
HETATM   14  C11 UNL     1      15.290   1.005  52.427  1.00  0.00     0.058 A 
HETATM   15  C12 UNL     1      16.432   1.439  51.811  1.00  0.00     0.082 A 
HETATM   16  N3  UNL     1      16.772   2.780  51.604  1.00  0.00    -0.279 N 
HETATM   17  N4  UNL     1      17.519   3.309  50.515  1.00  0.00    -0.183 N 
HETATM   18  N6  UNL     1      18.657   2.903  51.167  1.00  0.00    -0.171 NA
HETATM   19  C14 UNL     1      19.849   3.258  51.114  1.00  0.00     0.125 C 
HETATM   20  C15 UNL     1      20.380   2.327  52.121  1.00  0.00     0.097 C 
HETATM   21  C16 UNL     1      21.867   2.496  52.349  1.00  0.00     0.026 C 
HETATM   22  C17 UNL     1      22.209   1.385  53.047  1.00  0.00     0.123 C 
HETATM   23  F1  UNL     1      23.495   1.167  53.452  1.00  0.00    -0.209 F 
HETATM   24  O1  UNL     1      14.491   3.349  52.675  1.00  0.00    -0.339 OA
HETATM   25  C18 UNL     1      13.328   4.138  52.533  1.00  0.00     0.278 C 
HETATM   26  C19 UNL     1      12.398   3.888  53.695  1.00  0.00     0.246 C 
HETATM   27  O2  UNL     1      11.824   4.687  54.445  1.00  0.00    -0.271 OA
HETATM   28  N7  UNL     1      12.205   2.471  53.888  1.00  0.00    -0.322 N 
HETATM   29  H5  UNL     1      19.441   0.624  53.546  1.00  0.00     0.318 HD
HETATM   30  H10 UNL     1      16.480   3.485  52.305  1.00  0.00     0.189 HD
HETATM   31  H20 UNL     1      11.334   2.095  54.355  1.00  0.00     0.169 HD
ENDROOT
BRANCH  17  32
HETATM   32  C13 UNL     1      16.564   3.855  49.577  1.00  0.00     0.437 C 
BRANCH  32  33
HETATM   33  N5  UNL     1      15.647   4.781  50.197  1.00  0.00     0.099 N 
HETATM   34  H13 UNL     1      14.659   4.554  50.061  1.00  0.00     0.315 HD
HETATM   35  H14 UNL     1      15.860   5.780  50.005  1.00  0.00     0.315 HD
ENDBRANCH  32  33
ENDBRANCH  17  32
TORSDOF 2
ENDMDL
MODEL 6
REMARK VINA RESULT:      -7.6     22.640     25.766
REMARK  2 active torsions:
REMARK  status: ('A' for Active; 'I' for Inactive)
REMARK    1  A    between atoms: N4_17  and  C13_18 
REMARK    2  A    between atoms: C13_18  and  N5_19 
ROOT
HETATM    1  C1  UNL     1      43.717   7.634  69.930  1.00  0.00     0.050 C 
HETATM    2  C2  UNL     1      43.345   6.726  68.758  1.00  0.00     0.279 C 
HETATM    3  N1  UNL     1      42.817   5.519  69.387  1.00  0.00     0.109 N 
HETATM    4  C3  UNL     1      43.929   4.568  69.360  1.00  0.00     0.300 C 
HETATM    5  S1  UNL     1      43.699   3.130  70.382  1.00  0.00    -0.091 SA
HETATM    6  C4  UNL     1      42.005   2.600  70.350  1.00  0.00     0.032 A 
HETATM    7  C5  UNL     1      41.306   3.169  71.420  1.00  0.00     0.023 A 
HETATM    8  C6  UNL     1      39.954   2.895  71.662  1.00  0.00     0.034 A 
HETATM    9  C7  UNL     1      39.321   2.029  70.794  1.00  0.00     0.072 A 
HETATM   10  N2  UNL     1      38.013   1.738  71.013  1.00  0.00    -0.258 NA
HETATM   11  C8  UNL     1      37.408   0.890  70.177  1.00  0.00     0.149 A 
HETATM   12  C9  UNL     1      38.082   0.317  69.118  1.00  0.00     0.087 A 
HETATM   13  C10 UNL     1      39.411   0.604  68.882  1.00  0.00     0.112 A 
HETATM   14  C11 UNL     1      40.029   1.480  69.745  1.00  0.00     0.058 A 
HETATM   15  C12 UNL     1      41.349   1.739  69.494  1.00  0.00     0.082 A 
HETATM   16  N3  UNL     1      42.076   1.229  68.414  1.00  0.00    -0.279 N 
HETATM   17  N4  UNL     1      43.463   0.914  68.394  1.00  0.00    -0.183 N 
HETATM   18  N6  UNL     1      43.710   2.250  68.200  1.00  0.00    -0.171 NA
HETATM   19  C14 UNL     1      44.667   2.884  67.720  1.00  0.00     0.125 C 
HETATM   20  C15 UNL     1      44.118   4.237  67.892  1.00  0.00     0.097 C 
HETATM   21  C16 UNL     1      45.041   5.317  67.371  1.00  0.00     0.026 C 
HETATM   22  C17 UNL     1      44.521   6.458  67.887  1.00  0.00     0.123 C 
HETATM   23  F1  UNL     1      45.086   7.675  67.636  1.00  0.00    -0.209 F 
HETATM   24  O1  UNL     1      39.923  -0.055  67.789  1.00  0.00    -0.339 OA
HETATM   25  C18 UNL     1      39.417  -1.316  67.403  1.00  0.00     0.278 C 
HETATM   26  C19 UNL     1      37.927  -1.222  67.183  1.00  0.00     0.246 C 
HETATM   27  O2  UNL     1      37.236  -1.598  66.228  1.00  0.00    -0.271 OA
HETATM   28  N7  UNL     1      37.292  -0.580  68.309  1.00  0.00    -0.322 N 
HETATM   29  H5  UNL     1      42.064   5.157  68.760  1.00  0.00     0.318 HD
HETATM   30  H10 UNL     1      41.588   1.068  67.513  1.00  0.00     0.189 HD
HETATM   31  H20 UNL     1      36.276  -0.759  68.540  1.00  0.00     0.169 HD
ENDROOT
BRANCH  17  32
HETATM   32  C13 UNL     1      43.571  -0.515  68.584  1.00  0.00     0.437 C 
BRANCH  32  33
HETATM   33  N5  UNL     1      44.632  -0.874  69.494  1.00  0.00     0.099 N 
HETATM   34  H13 UNL     1      44.487  -1.761  69.984  1.00  0.00     0.315 HD
HETATM   35  H14 UNL     1      44.921  -0.105  70.131  1.00  0.00     0.315 HD
ENDBRANCH  32  33
ENDBRANCH  17  32
TORSDOF 2
ENDMDL
MODEL 7
REMARK VINA RESULT:      -7.6      4.611      7.053
REMARK  2 active torsions:
REMARK  status: ('A' for Active; 'I' for Inactive)
REMARK    1  A    between atoms: N4_17  and  C13_18 
REMARK    2  A    between atoms: C13_18  and  N5_19 
ROOT
HETATM    1  C1  UNL     1      20.060   4.310  47.042  1.00  0.00     0.050 C 
HETATM    2  C2  UNL     1      20.362   2.869  47.453  1.00  0.00     0.279 C 
HETATM    3  N1  UNL     1      19.604   2.678  48.687  1.00  0.00     0.109 N 
HETATM    4  C3  UNL     1      20.587   2.855  49.758  1.00  0.00     0.300 C 
HETATM    5  S1  UNL     1      19.886   3.039  51.384  1.00  0.00    -0.091 SA
HETATM    6  C4  UNL     1      18.462   1.998  51.575  1.00  0.00     0.032 A 
HETATM    7  C5  UNL     1      17.300   2.715  51.262  1.00  0.00     0.023 A 
HETATM    8  C6  UNL     1      16.023   2.150  51.361  1.00  0.00     0.034 A 
HETATM    9  C7  UNL     1      15.943   0.840  51.785  1.00  0.00     0.072 A 
HETATM   10  N2  UNL     1      14.715   0.273  51.900  1.00  0.00    -0.258 NA
HETATM   11  C8  UNL     1      14.642  -0.993  52.322  1.00  0.00     0.149 A 
HETATM   12  C9  UNL     1      15.776  -1.714  52.637  1.00  0.00     0.087 A 
HETATM   13  C10 UNL     1      17.030  -1.151  52.524  1.00  0.00     0.112 A 
HETATM   14  C11 UNL     1      17.100   0.151  52.087  1.00  0.00     0.058 A 
HETATM   15  C12 UNL     1      18.356   0.688  51.994  1.00  0.00     0.082 A 
HETATM   16  N3  UNL     1      19.544  -0.002  52.253  1.00  0.00    -0.279 N 
HETATM   17  N4  UNL     1      20.747   0.544  52.781  1.00  0.00    -0.183 N 
HETATM   18  N6  UNL     1      21.037   0.991  51.515  1.00  0.00    -0.171 NA
HETATM   19  C14 UNL     1      22.093   1.302  50.936  1.00  0.00     0.125 C 
HETATM   20  C15 UNL     1      21.511   1.659  49.634  1.00  0.00     0.097 C 
HETATM   21  C16 UNL     1      22.553   2.083  48.622  1.00  0.00     0.026 C 
HETATM   22  C17 UNL     1      21.822   2.651  47.631  1.00  0.00     0.123 C 
HETATM   23  F1  UNL     1      22.415   3.165  46.514  1.00  0.00    -0.209 F 
HETATM   24  O1  UNL     1      18.044  -2.010  52.881  1.00  0.00    -0.339 OA
HETATM   25  C18 UNL     1      17.831  -3.017  53.849  1.00  0.00     0.278 C 
HETATM   26  C19 UNL     1      16.667  -3.883  53.434  1.00  0.00     0.246 C 
HETATM   27  O2  UNL     1      16.574  -5.115  53.363  1.00  0.00    -0.271 OA
HETATM   28  N7  UNL     1      15.532  -3.065  53.083  1.00  0.00    -0.322 N 
HETATM   29  H5  UNL     1      19.290   1.682  48.697  1.00  0.00     0.318 HD
HETATM   30  H10 UNL     1      19.594  -1.014  52.034  1.00  0.00     0.189 HD
HETATM   31  H20 UNL     1      14.545  -3.441  53.147  1.00  0.00     0.169 HD
ENDROOT
BRANCH  17  32
HETATM   32  C13 UNL     1      20.765   0.233  54.192  1.00  0.00     0.437 C 
BRANCH  32  33
HETATM   33  N5  UNL     1      20.754  -1.188  54.446  1.00  0.00     0.099 N 
HETATM   34  H13 UNL     1      21.681  -1.604  54.567  1.00  0.00     0.315 HD
HETATM   35  H14 UNL     1      20.153  -1.729  53.793  1.00  0.00     0.315 HD
ENDBRANCH  32  33
ENDBRANCH  17  32
TORSDOF 2
ENDMDL
MODEL 8
REMARK VINA RESULT:      -7.6      3.657      7.446
REMARK  2 active torsions:
REMARK  status: ('A' for Active; 'I' for Inactive)
REMARK    1  A    between atoms: N4_17  and  C13_18 
REMARK    2  A    between atoms: C13_18  and  N5_19 
ROOT
HETATM    1  C1  UNL     1      18.789   1.165  51.734  1.00  0.00     0.050 C 
HETATM    2  C2  UNL     1      19.942   1.960  52.348  1.00  0.00     0.279 C 
HETATM    3  N1  UNL     1      20.617   2.563  51.202  1.00  0.00     0.109 N 
HETATM    4  C3  UNL     1      21.768   1.695  50.950  1.00  0.00     0.300 C 
HETATM    5  S1  UNL     1      22.576   1.972  49.388  1.00  0.00    -0.091 SA
HETATM    6  C4  UNL     1      22.594   3.701  48.988  1.00  0.00     0.032 A 
HETATM    7  C5  UNL     1      21.487   4.019  48.192  1.00  0.00     0.023 A 
HETATM    8  C6  UNL     1      21.268   5.310  47.697  1.00  0.00     0.034 A 
HETATM    9  C7  UNL     1      22.194   6.278  48.026  1.00  0.00     0.072 A 
HETATM   10  N2  UNL     1      22.010   7.536  47.548  1.00  0.00    -0.258 NA
HETATM   11  C8  UNL     1      22.916   8.467  47.859  1.00  0.00     0.149 A 
HETATM   12  C9  UNL     1      24.015   8.171  48.641  1.00  0.00     0.087 A 
HETATM   13  C10 UNL     1      24.215   6.898  49.133  1.00  0.00     0.112 A 
HETATM   14  C11 UNL     1      23.277   5.943  48.812  1.00  0.00     0.058 A 
HETATM   15  C12 UNL     1      23.505   4.687  49.305  1.00  0.00     0.082 A 
HETATM   16  N3  UNL     1      24.571   4.334  50.138  1.00  0.00    -0.279 N 
HETATM   17  N4  UNL     1      25.234   3.076  50.184  1.00  0.00    -0.183 N 
HETATM   18  N6  UNL     1      24.199   2.619  50.963  1.00  0.00    -0.171 NA
HETATM   19  C14 UNL     1      24.088   1.687  51.780  1.00  0.00     0.125 C 
HETATM   20  C15 UNL     1      22.680   1.906  52.143  1.00  0.00     0.097 C 
HETATM   21  C16 UNL     1      22.182   0.926  53.184  1.00  0.00     0.026 C 
HETATM   22  C17 UNL     1      20.836   1.084  53.151  1.00  0.00     0.123 C 
HETATM   23  F1  UNL     1      20.015   0.360  53.967  1.00  0.00    -0.209 F 
HETATM   24  O1  UNL     1      25.358   6.782  49.888  1.00  0.00    -0.339 OA
HETATM   25  C18 UNL     1      26.481   7.599  49.630  1.00  0.00     0.278 C 
HETATM   26  C19 UNL     1      26.078   9.052  49.691  1.00  0.00     0.246 C 
HETATM   27  O2  UNL     1      26.591   9.998  50.301  1.00  0.00    -0.271 OA
HETATM   28  N7  UNL     1      24.904   9.282  48.884  1.00  0.00    -0.322 N 
HETATM   29  H5  UNL     1      20.975   3.492  51.518  1.00  0.00     0.318 HD
HETATM   30  H10 UNL     1      24.929   5.031  50.817  1.00  0.00     0.189 HD
HETATM   31  H20 UNL     1      24.695  10.237  48.480  1.00  0.00     0.169 HD
ENDROOT
BRANCH  17  32
HETATM   32  C13 UNL     1      26.448   3.213  49.413  1.00  0.00     0.437 C 
BRANCH  32  33
HETATM   33  N5  UNL     1      27.188   4.404  49.752  1.00  0.00     0.099 N 
HETATM   34  H13 UNL     1      26.856   4.884  50.592  1.00  0.00     0.315 HD
HETATM   35  H14 UNL     1      27.338   5.051  48.952  1.00  0.00     0.315 HD
ENDBRANCH  32  33
ENDBRANCH  17  32
TORSDOF 2
ENDMDL
MODEL 9
REMARK VINA RESULT:      -7.6     10.168     12.885
REMARK  2 active torsions:
REMARK  status: ('A' for Active; 'I' for Inactive)
REMARK    1  A    between atoms: N4_17  and  C13_18 
REMARK    2  A    between atoms: C13_18  and  N5_19 
ROOT
HETATM    1  C1  UNL     1      27.573   5.440  48.595  1.00  0.00     0.050 C 
HETATM    2  C2  UNL     1      28.157   6.675  47.907  1.00  0.00     0.279 C 
HETATM    3  N1  UNL     1      29.513   6.277  47.538  1.00  0.00     0.109 N 
HETATM    4  C3  UNL     1      30.365   6.847  48.584  1.00  0.00     0.300 C 
HETATM    5  S1  UNL     1      32.032   6.224  48.602  1.00  0.00    -0.091 SA
HETATM    6  C4  UNL     1      32.621   5.957  46.949  1.00  0.00     0.032 A 
HETATM    7  C5  UNL     1      32.391   4.629  46.569  1.00  0.00     0.023 A 
HETATM    8  C6  UNL     1      32.789   4.127  45.324  1.00  0.00     0.034 A 
HETATM    9  C7  UNL     1      33.426   5.000  44.466  1.00  0.00     0.072 A 
HETATM   10  N2  UNL     1      33.831   4.535  43.257  1.00  0.00    -0.258 NA
HETATM   11  C8  UNL     1      34.459   5.380  42.434  1.00  0.00     0.149 A 
HETATM   12  C9  UNL     1      34.696   6.692  42.793  1.00  0.00     0.087 A 
HETATM   13  C10 UNL     1      34.289   7.179  44.018  1.00  0.00     0.112 A 
HETATM   14  C11 UNL     1      33.642   6.304  44.860  1.00  0.00     0.058 A 
HETATM   15  C12 UNL     1      33.258   6.810  46.073  1.00  0.00     0.082 A 
HETATM   16  N3  UNL     1      33.426   8.139  46.477  1.00  0.00    -0.279 N 
HETATM   17  N4  UNL     1      33.654   8.601  47.803  1.00  0.00    -0.183 N 
HETATM   18  N6  UNL     1      32.303   8.487  48.018  1.00  0.00    -0.171 NA
HETATM   19  C14 UNL     1      31.515   9.012  48.827  1.00  0.00     0.125 C 
HETATM   20  C15 UNL     1      30.286   8.346  48.371  1.00  0.00     0.097 C 
HETATM   21  C16 UNL     1      29.061   8.780  49.147  1.00  0.00     0.026 C 
HETATM   22  C17 UNL     1      28.126   7.860  48.805  1.00  0.00     0.123 C 
HETATM   23  F1  UNL     1      26.858   7.914  49.309  1.00  0.00    -0.209 F 
HETATM   24  O1  UNL     1      34.609   8.503  44.209  1.00  0.00    -0.339 OA
HETATM   25  C18 UNL     1      35.748   9.067  43.593  1.00  0.00     0.278 C 
HETATM   26  C19 UNL     1      35.675   8.859  42.100  1.00  0.00     0.246 C 
HETATM   27  O2  UNL     1      35.821   9.666  41.174  1.00  0.00    -0.271 OA
HETATM   28  N7  UNL     1      35.387   7.477  41.799  1.00  0.00    -0.322 N 
HETATM   29  H5  UNL     1      29.735   6.761  46.640  1.00  0.00     0.318 HD
HETATM   30  H10 UNL     1      33.368   8.890  45.766  1.00  0.00     0.189 HD
HETATM   31  H20 UNL     1      35.673   7.047  40.876  1.00  0.00     0.169 HD
ENDROOT
BRANCH  17  32
HETATM   32  C13 UNL     1      35.074   8.837  47.927  1.00  0.00     0.437 C 
BRANCH  32  33
HETATM   33  N5  UNL     1      35.751   7.779  48.637  1.00  0.00     0.099 N 
HETATM   34  H13 UNL     1      36.751   7.938  48.782  1.00  0.00     0.315 HD
HETATM   35  H14 UNL     1      35.544   6.827  48.275  1.00  0.00     0.315 HD
ENDBRANCH  32  33
ENDBRANCH  17  32
TORSDOF 2
ENDMDL
