MODEL 1
REMARK VINA RESULT:      -7.6      0.000      0.000
REMARK  7 active torsions:
REMARK  status: ('A' for Active; 'I' for Inactive)
REMARK    1  A    between atoms: N1_1  and  C1_2 
REMARK    2  A    between atoms: C1_2  and  C2_3 
REMARK    3  A    between atoms: C2_3  and  C3_4 
REMARK    4  A    between atoms: C3_4  and  C4_5 
REMARK    5  A    between atoms: C5_6  and  C6_8 
REMARK    6  A    between atoms: C6_8  and  C7_10 
REMARK    7  A    between atoms: C7_10  and  C8_11 
ROOT
HETATM    1  C4  UNL     1      26.117   2.063  52.676  1.00  0.00    -0.002 C 
HETATM    2  C5  UNL     1      24.878   2.467  52.328  1.00  0.00     0.042 C 
HETATM    3 CL1  UNL     1      24.007   3.805  53.101  1.00  0.00    -0.086 Cl
ENDROOT
BRANCH   1   4
HETATM    4  C3  UNL     1      27.178   1.082  52.360  1.00  0.00     0.064 C 
BRANCH   4   5
HETATM    5  C2  UNL     1      27.261  -0.016  53.412  1.00  0.00     0.088 A 
HETATM    6  C14 UNL     1      26.577  -1.245  52.873  1.00  0.00     0.082 A 
HETATM    7  C15 UNL     1      27.447  -2.424  52.757  1.00  0.00     0.093 A 
HETATM    8  N2  UNL     1      28.695  -2.482  53.068  1.00  0.00    -0.259 NA
HETATM    9  C16 UNL     1      29.301  -1.310  53.568  1.00  0.00     0.226 A 
HETATM   10  N3  UNL     1      28.651  -0.231  53.713  1.00  0.00    -0.270 NA
BRANCH   5  11
HETATM   11  C1  UNL     1      26.568   0.478  54.638  1.00  0.00     0.300 C 
BRANCH  11  12
HETATM   12  N1  UNL     1      25.977  -0.582  55.426  1.00  0.00     0.080 N 
HETATM   13  H1  UNL     1      25.161  -1.024  54.954  1.00  0.00     0.312 HD
HETATM   14  H2  UNL     1      25.847  -0.341  56.412  1.00  0.00     0.312 HD
ENDBRANCH  11  12
ENDBRANCH   5  11
ENDBRANCH   4   5
ENDBRANCH   1   4
BRANCH   2  15
HETATM   15  C6  UNL     1      24.076   1.841  51.250  1.00  0.00     0.218 C 
HETATM   16  F1  UNL     1      24.260   2.504  50.043  1.00  0.00    -0.243 F 
BRANCH  15  17
HETATM   17  C7  UNL     1      22.603   1.768  51.598  1.00  0.00     0.081 C 
BRANCH  17  18
HETATM   18  C8  UNL     1      22.328   0.782  52.666  1.00  0.00    -0.055 A 
HETATM   19  C9  UNL     1      23.072  -0.305  53.065  1.00  0.00     0.007 A 
HETATM   20  C10 UNL     1      22.636  -1.109  54.097  1.00  0.00     0.001 A 
HETATM   21  C11 UNL     1      21.456  -0.867  54.768  1.00  0.00     0.000 A 
HETATM   22  C12 UNL     1      20.685   0.210  54.399  1.00  0.00     0.001 A 
HETATM   23  C13 UNL     1      21.137   1.007  53.359  1.00  0.00     0.007 A 
ENDBRANCH  17  18
ENDBRANCH  15  17
ENDBRANCH   2  15
TORSDOF 7
ENDMDL
MODEL 2
REMARK VINA RESULT:      -7.5      1.103      2.100
REMARK  7 active torsions:
REMARK  status: ('A' for Active; 'I' for Inactive)
REMARK    1  A    between atoms: N1_1  and  C1_2 
REMARK    2  A    between atoms: C1_2  and  C2_3 
REMARK    3  A    between atoms: C2_3  and  C3_4 
REMARK    4  A    between atoms: C3_4  and  C4_5 
REMARK    5  A    between atoms: C5_6  and  C6_8 
REMARK    6  A    between atoms: C6_8  and  C7_10 
REMARK    7  A    between atoms: C7_10  and  C8_11 
ROOT
HETATM    1  C4  UNL     1      25.961   1.184  52.256  1.00  0.00    -0.002 C 
HETATM    2  C5  UNL     1      24.798   1.868  52.228  1.00  0.00     0.042 C 
HETATM    3 CL1  UNL     1      24.534   3.427  53.030  1.00  0.00    -0.086 Cl
ENDROOT
BRANCH   1   4
HETATM    4  C3  UNL     1      26.622  -0.052  51.784  1.00  0.00     0.064 C 
BRANCH   4   5
HETATM    5  C2  UNL     1      27.127  -0.899  52.944  1.00  0.00     0.088 A 
HETATM    6  C14 UNL     1      28.512  -0.434  53.306  1.00  0.00     0.082 A 
HETATM    7  C15 UNL     1      28.647   0.062  54.683  1.00  0.00     0.093 A 
HETATM    8  N2  UNL     1      27.710   0.125  55.564  1.00  0.00    -0.259 NA
HETATM    9  C16 UNL     1      26.425  -0.319  55.186  1.00  0.00     0.226 A 
HETATM   10  N3  UNL     1      26.187  -0.769  54.025  1.00  0.00    -0.270 NA
BRANCH   5  11
HETATM   11  C1  UNL     1      27.151  -2.321  52.489  1.00  0.00     0.300 C 
BRANCH  11  12
HETATM   12  N1  UNL     1      28.259  -3.076  53.033  1.00  0.00     0.080 N 
HETATM   13  H1  UNL     1      28.248  -3.110  54.074  1.00  0.00     0.312 HD
HETATM   14  H2  UNL     1      29.160  -2.856  52.602  1.00  0.00     0.312 HD
ENDBRANCH  11  12
ENDBRANCH   5  11
ENDBRANCH   4   5
ENDBRANCH   1   4
BRANCH   2  15
HETATM   15  C6  UNL     1      23.582   1.403  51.519  1.00  0.00     0.218 C 
HETATM   16  F1  UNL     1      23.503   1.955  50.247  1.00  0.00    -0.243 F 
BRANCH  15  17
HETATM   17  C7  UNL     1      22.317   1.688  52.303  1.00  0.00     0.081 C 
BRANCH  17  18
HETATM   18  C8  UNL     1      21.843   0.504  53.052  1.00  0.00    -0.055 A 
HETATM   19  C9  UNL     1      22.542  -0.345  53.879  1.00  0.00     0.007 A 
HETATM   20  C10 UNL     1      21.905  -1.403  54.492  1.00  0.00     0.001 A 
HETATM   21  C11 UNL     1      20.562  -1.657  54.311  1.00  0.00     0.000 A 
HETATM   22  C12 UNL     1      19.828  -0.830  53.493  1.00  0.00     0.001 A 
HETATM   23  C13 UNL     1      20.484   0.227  52.884  1.00  0.00     0.007 A 
ENDBRANCH  17  18
ENDBRANCH  15  17
ENDBRANCH   2  15
TORSDOF 7
ENDMDL
MODEL 3
REMARK VINA RESULT:      -7.5      2.363      4.003
REMARK  7 active torsions:
REMARK  status: ('A' for Active; 'I' for Inactive)
REMARK    1  A    between atoms: N1_1  and  C1_2 
REMARK    2  A    between atoms: C1_2  and  C2_3 
REMARK    3  A    between atoms: C2_3  and  C3_4 
REMARK    4  A    between atoms: C3_4  and  C4_5 
REMARK    5  A    between atoms: C5_6  and  C6_8 
REMARK    6  A    between atoms: C6_8  and  C7_10 
REMARK    7  A    between atoms: C7_10  and  C8_11 
ROOT
HETATM    1  C4  UNL     1      24.175  -0.468  53.460  1.00  0.00    -0.002 C 
HETATM    2  C5  UNL     1      22.860  -0.322  53.719  1.00  0.00     0.042 C 
HETATM    3 CL1  UNL     1      21.952  -1.311  54.878  1.00  0.00    -0.086 Cl
ENDROOT
BRANCH   1   4
HETATM    4  C3  UNL     1      25.291   0.065  52.649  1.00  0.00     0.064 C 
BRANCH   4   5
HETATM    5  C2  UNL     1      26.630  -0.522  53.077  1.00  0.00     0.088 A 
HETATM    6  C14 UNL     1      27.729   0.337  52.511  1.00  0.00     0.082 A 
HETATM    7  C15 UNL     1      28.605   0.948  53.521  1.00  0.00     0.093 A 
HETATM    8  N2  UNL     1      28.506   0.811  54.797  1.00  0.00    -0.259 NA
HETATM    9  C16 UNL     1      27.462  -0.000  55.289  1.00  0.00     0.226 A 
HETATM   10  N3  UNL     1      26.644  -0.581  54.514  1.00  0.00    -0.270 NA
BRANCH   5  11
HETATM   11  C1  UNL     1      26.712  -1.909  52.532  1.00  0.00     0.300 C 
BRANCH  11  12
HETATM   12  N1  UNL     1      27.820  -2.669  53.068  1.00  0.00     0.080 N 
HETATM   13  H1  UNL     1      28.200  -2.258  53.946  1.00  0.00     0.312 HD
HETATM   14  H2  UNL     1      28.512  -2.942  52.366  1.00  0.00     0.312 HD
ENDBRANCH  11  12
ENDBRANCH   5  11
ENDBRANCH   4   5
ENDBRANCH   1   4
BRANCH   2  15
HETATM   15  C6  UNL     1      21.996   0.690  53.067  1.00  0.00     0.218 C 
HETATM   16  F1  UNL     1      20.914   1.018  53.874  1.00  0.00    -0.243 F 
BRANCH  15  17
HETATM   17  C7  UNL     1      21.523   0.244  51.698  1.00  0.00     0.081 C 
BRANCH  17  18
HETATM   18  C8  UNL     1      22.025   1.123  50.618  1.00  0.00    -0.055 A 
HETATM   19  C9  UNL     1      22.975   2.116  50.671  1.00  0.00     0.007 A 
HETATM   20  C10 UNL     1      23.307   2.826  49.536  1.00  0.00     0.001 A 
HETATM   21  C11 UNL     1      22.714   2.579  48.316  1.00  0.00     0.000 A 
HETATM   22  C12 UNL     1      21.760   1.593  48.223  1.00  0.00     0.001 A 
HETATM   23  C13 UNL     1      21.438   0.891  49.373  1.00  0.00     0.007 A 
ENDBRANCH  17  18
ENDBRANCH  15  17
ENDBRANCH   2  15
TORSDOF 7
ENDMDL
MODEL 4
REMARK VINA RESULT:      -7.3      3.079      5.194
REMARK  7 active torsions:
REMARK  status: ('A' for Active; 'I' for Inactive)
REMARK    1  A    between atoms: N1_1  and  C1_2 
REMARK    2  A    between atoms: C1_2  and  C2_3 
REMARK    3  A    between atoms: C2_3  and  C3_4 
REMARK    4  A    between atoms: C3_4  and  C4_5 
REMARK    5  A    between atoms: C5_6  and  C6_8 
REMARK    6  A    between atoms: C6_8  and  C7_10 
REMARK    7  A    between atoms: C7_10  and  C8_11 
ROOT
HETATM    1  C4  UNL     1      25.597   1.126  51.779  1.00  0.00    -0.002 C 
HETATM    2  C5  UNL     1      24.690   2.002  51.301  1.00  0.00     0.042 C 
HETATM    3 CL1  UNL     1      23.025   1.577  50.858  1.00  0.00    -0.086 Cl
ENDROOT
BRANCH   1   4
HETATM    4  C3  UNL     1      26.993   1.004  52.253  1.00  0.00     0.064 C 
BRANCH   4   5
HETATM    5  C2  UNL     1      27.127  -0.047  53.347  1.00  0.00     0.088 A 
HETATM    6  C14 UNL     1      26.569  -1.346  52.831  1.00  0.00     0.082 A 
HETATM    7  C15 UNL     1      27.538  -2.450  52.791  1.00  0.00     0.093 A 
HETATM    8  N2  UNL     1      28.774  -2.392  53.148  1.00  0.00    -0.259 NA
HETATM    9  C16 UNL     1      29.260  -1.156  53.625  1.00  0.00     0.226 A 
HETATM   10  N3  UNL     1      28.518  -0.132  53.706  1.00  0.00    -0.270 NA
BRANCH   5  11
HETATM   11  C1  UNL     1      26.348   0.429  54.529  1.00  0.00     0.300 C 
BRANCH  11  12
HETATM   12  N1  UNL     1      26.082  -0.615  55.494  1.00  0.00     0.080 N 
HETATM   13  H1  UNL     1      26.570  -0.457  56.400  1.00  0.00     0.312 HD
HETATM   14  H2  UNL     1      26.147  -1.561  55.109  1.00  0.00     0.312 HD
ENDBRANCH  11  12
ENDBRANCH   5  11
ENDBRANCH   4   5
ENDBRANCH   1   4
BRANCH   2  15
HETATM   15  C6  UNL     1      24.965   3.441  51.081  1.00  0.00     0.218 C 
HETATM   16  F1  UNL     1      24.254   4.228  51.978  1.00  0.00    -0.243 F 
BRANCH  15  17
HETATM   17  C7  UNL     1      24.680   3.870  49.656  1.00  0.00     0.081 C 
BRANCH  17  18
HETATM   18  C8  UNL     1      25.691   4.821  49.144  1.00  0.00    -0.055 A 
HETATM   19  C9  UNL     1      25.539   6.131  48.752  1.00  0.00     0.007 A 
HETATM   20  C10 UNL     1      26.623   6.855  48.301  1.00  0.00     0.001 A 
HETATM   21  C11 UNL     1      27.887   6.312  48.223  1.00  0.00     0.000 A 
HETATM   22  C12 UNL     1      28.080   5.005  48.607  1.00  0.00     0.001 A 
HETATM   23  C13 UNL     1      26.981   4.292  49.056  1.00  0.00     0.007 A 
ENDBRANCH  17  18
ENDBRANCH  15  17
ENDBRANCH   2  15
TORSDOF 7
ENDMDL
MODEL 5
REMARK VINA RESULT:      -7.3      3.086      5.267
REMARK  7 active torsions:
REMARK  status: ('A' for Active; 'I' for Inactive)
REMARK    1  A    between atoms: N1_1  and  C1_2 
REMARK    2  A    between atoms: C1_2  and  C2_3 
REMARK    3  A    between atoms: C2_3  and  C3_4 
REMARK    4  A    between atoms: C3_4  and  C4_5 
REMARK    5  A    between atoms: C5_6  and  C6_8 
REMARK    6  A    between atoms: C6_8  and  C7_10 
REMARK    7  A    between atoms: C7_10  and  C8_11 
ROOT
HETATM    1  C4  UNL     1      22.380   1.626  52.272  1.00  0.00    -0.002 C 
HETATM    2  C5  UNL     1      22.294   0.596  53.138  1.00  0.00     0.042 C 
HETATM    3 CL1  UNL     1      21.090   0.476  54.436  1.00  0.00    -0.086 Cl
ENDROOT
BRANCH   1   4
HETATM    4  C3  UNL     1      23.143   2.143  51.115  1.00  0.00     0.064 C 
BRANCH   4   5
HETATM    5  C2  UNL     1      24.211   3.140  51.544  1.00  0.00     0.088 A 
HETATM    6  C14 UNL     1      25.364   2.377  52.138  1.00  0.00     0.082 A 
HETATM    7  C15 UNL     1      26.642   2.561  51.435  1.00  0.00     0.093 A 
HETATM    8  N2  UNL     1      26.839   3.294  50.395  1.00  0.00    -0.259 NA
HETATM    9  C16 UNL     1      25.733   3.992  49.867  1.00  0.00     0.226 A 
HETATM   10  N3  UNL     1      24.580   3.913  50.388  1.00  0.00    -0.270 NA
BRANCH   5  11
HETATM   11  C1  UNL     1      23.601   4.048  52.560  1.00  0.00     0.300 C 
BRANCH  11  12
HETATM   12  N1  UNL     1      23.990   5.431  52.398  1.00  0.00     0.080 N 
HETATM   13  H1  UNL     1      23.801   6.003  53.247  1.00  0.00     0.312 HD
HETATM   14  H2  UNL     1      23.697   5.841  51.507  1.00  0.00     0.312 HD
ENDBRANCH  11  12
ENDBRANCH   5  11
ENDBRANCH   4   5
ENDBRANCH   1   4
BRANCH   2  15
HETATM   15  C6  UNL     1      23.199  -0.578  53.120  1.00  0.00     0.218 C 
HETATM   16  F1  UNL     1      22.482  -1.759  52.983  1.00  0.00    -0.243 F 
BRANCH  15  17
HETATM   17  C7  UNL     1      24.090  -0.634  54.345  1.00  0.00     0.081 C 
BRANCH  17  18
HETATM   18  C8  UNL     1      25.527  -0.604  53.995  1.00  0.00    -0.055 A 
HETATM   19  C9  UNL     1      26.172  -1.139  52.904  1.00  0.00     0.007 A 
HETATM   20  C10 UNL     1      27.536  -0.996  52.760  1.00  0.00     0.001 A 
HETATM   21  C11 UNL     1      28.305  -0.323  53.685  1.00  0.00     0.000 A 
HETATM   22  C12 UNL     1      27.697   0.227  54.789  1.00  0.00     0.001 A 
HETATM   23  C13 UNL     1      26.326   0.073  54.918  1.00  0.00     0.007 A 
ENDBRANCH  17  18
ENDBRANCH  15  17
ENDBRANCH   2  15
TORSDOF 7
ENDMDL
MODEL 6
REMARK VINA RESULT:      -7.3      2.612      4.615
REMARK  7 active torsions:
REMARK  status: ('A' for Active; 'I' for Inactive)
REMARK    1  A    between atoms: N1_1  and  C1_2 
REMARK    2  A    between atoms: C1_2  and  C2_3 
REMARK    3  A    between atoms: C2_3  and  C3_4 
REMARK    4  A    between atoms: C3_4  and  C4_5 
REMARK    5  A    between atoms: C5_6  and  C6_8 
REMARK    6  A    between atoms: C6_8  and  C7_10 
REMARK    7  A    between atoms: C7_10  and  C8_11 
ROOT
HETATM    1  C4  UNL     1      24.032   0.809  52.708  1.00  0.00    -0.002 C 
HETATM    2  C5  UNL     1      23.089   1.306  51.882  1.00  0.00     0.042 C 
HETATM    3 CL1  UNL     1      21.653   0.413  51.348  1.00  0.00    -0.086 Cl
ENDROOT
BRANCH   1   4
HETATM    4  C3  UNL     1      25.305   1.132  53.387  1.00  0.00     0.064 C 
BRANCH   4   5
HETATM    5  C2  UNL     1      25.928  -0.098  54.034  1.00  0.00     0.088 A 
HETATM    6  C14 UNL     1      26.537  -0.949  52.951  1.00  0.00     0.082 A 
HETATM    7  C15 UNL     1      27.985  -1.158  53.085  1.00  0.00     0.093 A 
HETATM    8  N2  UNL     1      28.739  -0.689  54.017  1.00  0.00    -0.259 NA
HETATM    9  C16 UNL     1      28.132   0.105  55.012  1.00  0.00     0.226 A 
HETATM   10  N3  UNL     1      26.889   0.355  55.004  1.00  0.00    -0.270 NA
BRANCH   5  11
HETATM   11  C1  UNL     1      24.840  -0.839  54.737  1.00  0.00     0.300 C 
BRANCH  11  12
HETATM   12  N1  UNL     1      25.213  -1.278  56.064  1.00  0.00     0.080 N 
HETATM   13  H1  UNL     1      24.533  -0.977  56.792  1.00  0.00     0.312 HD
HETATM   14  H2  UNL     1      26.201  -1.130  56.286  1.00  0.00     0.312 HD
ENDBRANCH  11  12
ENDBRANCH   5  11
ENDBRANCH   4   5
ENDBRANCH   1   4
BRANCH   2  15
HETATM   15  C6  UNL     1      23.129   2.673  51.309  1.00  0.00     0.218 C 
HETATM   16  F1  UNL     1      21.938   3.348  51.544  1.00  0.00    -0.243 F 
BRANCH  15  17
HETATM   17  C7  UNL     1      23.452   2.665  49.829  1.00  0.00     0.081 C 
BRANCH  17  18
HETATM   18  C8  UNL     1      24.459   3.688  49.470  1.00  0.00    -0.055 A 
HETATM   19  C9  UNL     1      24.274   4.980  49.033  1.00  0.00     0.007 A 
HETATM   20  C10 UNL     1      25.359   5.784  48.751  1.00  0.00     0.001 A 
HETATM   21  C11 UNL     1      26.657   5.340  48.890  1.00  0.00     0.000 A 
HETATM   22  C12 UNL     1      26.883   4.055  49.325  1.00  0.00     0.001 A 
HETATM   23  C13 UNL     1      25.782   3.262  49.603  1.00  0.00     0.007 A 
ENDBRANCH  17  18
ENDBRANCH  15  17
ENDBRANCH   2  15
TORSDOF 7
ENDMDL
MODEL 7
REMARK VINA RESULT:      -7.3      3.100      5.197
REMARK  7 active torsions:
REMARK  status: ('A' for Active; 'I' for Inactive)
REMARK    1  A    between atoms: N1_1  and  C1_2 
REMARK    2  A    between atoms: C1_2  and  C2_3 
REMARK    3  A    between atoms: C2_3  and  C3_4 
REMARK    4  A    between atoms: C3_4  and  C4_5 
REMARK    5  A    between atoms: C5_6  and  C6_8 
REMARK    6  A    between atoms: C6_8  and  C7_10 
REMARK    7  A    between atoms: C7_10  and  C8_11 
ROOT
HETATM    1  C4  UNL     1      25.363   1.834  52.465  1.00  0.00    -0.002 C 
HETATM    2  C5  UNL     1      24.771   2.922  51.930  1.00  0.00     0.042 C 
HETATM    3 CL1  UNL     1      23.867   4.131  52.862  1.00  0.00    -0.086 Cl
ENDROOT
BRANCH   1   4
HETATM    4  C3  UNL     1      26.163   0.636  52.134  1.00  0.00     0.064 C 
BRANCH   4   5
HETATM    5  C2  UNL     1      26.699  -0.048  53.385  1.00  0.00     0.088 A 
HETATM    6  C14 UNL     1      27.546  -1.219  52.963  1.00  0.00     0.082 A 
HETATM    7  C15 UNL     1      28.947  -1.144  53.399  1.00  0.00     0.093 A 
HETATM    8  N2  UNL     1      29.482  -0.195  54.085  1.00  0.00    -0.259 NA
HETATM    9  C16 UNL     1      28.656   0.886  54.460  1.00  0.00     0.226 A 
HETATM   10  N3  UNL     1      27.430   0.933  54.142  1.00  0.00    -0.270 NA
BRANCH   5  11
HETATM   11  C1  UNL     1      25.527  -0.507  54.187  1.00  0.00     0.300 C 
BRANCH  11  12
HETATM   12  N1  UNL     1      25.846  -0.751  55.577  1.00  0.00     0.080 N 
HETATM   13  H1  UNL     1      25.616  -1.721  55.876  1.00  0.00     0.312 HD
HETATM   14  H2  UNL     1      25.544  -0.004  56.207  1.00  0.00     0.312 HD
ENDBRANCH  11  12
ENDBRANCH   5  11
ENDBRANCH   4   5
ENDBRANCH   1   4
BRANCH   2  15
HETATM   15  C6  UNL     1      24.797   3.251  50.485  1.00  0.00     0.218 C 
HETATM   16  F1  UNL     1      23.933   2.432  49.770  1.00  0.00    -0.243 F 
BRANCH  15  17
HETATM   17  C7  UNL     1      26.195   3.183  49.906  1.00  0.00     0.081 C 
BRANCH  17  18
HETATM   18  C8  UNL     1      26.592   4.448  49.250  1.00  0.00    -0.055 A 
HETATM   19  C9  UNL     1      27.816   4.825  48.746  1.00  0.00     0.007 A 
HETATM   20  C10 UNL     1      27.979   6.064  48.163  1.00  0.00     0.001 A 
HETATM   21  C11 UNL     1      26.944   6.968  48.057  1.00  0.00     0.000 A 
HETATM   22  C12 UNL     1      25.705   6.628  48.548  1.00  0.00     0.001 A 
HETATM   23  C13 UNL     1      25.559   5.380  49.132  1.00  0.00     0.007 A 
ENDBRANCH  17  18
ENDBRANCH  15  17
ENDBRANCH   2  15
TORSDOF 7
ENDMDL
MODEL 8
REMARK VINA RESULT:      -7.1      3.290      6.381
REMARK  7 active torsions:
REMARK  status: ('A' for Active; 'I' for Inactive)
REMARK    1  A    between atoms: N1_1  and  C1_2 
REMARK    2  A    between atoms: C1_2  and  C2_3 
REMARK    3  A    between atoms: C2_3  and  C3_4 
REMARK    4  A    between atoms: C3_4  and  C4_5 
REMARK    5  A    between atoms: C5_6  and  C6_8 
REMARK    6  A    between atoms: C6_8  and  C7_10 
REMARK    7  A    between atoms: C7_10  and  C8_11 
ROOT
HETATM    1  C4  UNL     1      23.754   1.441  53.050  1.00  0.00    -0.002 C 
HETATM    2  C5  UNL     1      23.813   0.125  53.341  1.00  0.00     0.042 C 
HETATM    3 CL1  UNL     1      22.394  -0.923  53.526  1.00  0.00    -0.086 Cl
ENDROOT
BRANCH   1   4
HETATM    4  C3  UNL     1      24.584   2.642  52.812  1.00  0.00     0.064 C 
BRANCH   4   5
HETATM    5  C2  UNL     1      24.194   3.352  51.523  1.00  0.00     0.088 A 
HETATM    6  C14 UNL     1      23.050   2.601  50.893  1.00  0.00     0.082 A 
HETATM    7  C15 UNL     1      21.820   3.389  50.734  1.00  0.00     0.093 A 
HETATM    8  N2  UNL     1      21.654   4.619  51.077  1.00  0.00    -0.259 NA
HETATM    9  C16 UNL     1      22.748   5.288  51.665  1.00  0.00     0.226 A 
HETATM   10  N3  UNL     1      23.862   4.712  51.854  1.00  0.00    -0.270 NA
BRANCH   5  11
HETATM   11  C1  UNL     1      25.386   3.346  50.624  1.00  0.00     0.300 C 
BRANCH  11  12
HETATM   12  N1  UNL     1      26.635   3.181  51.334  1.00  0.00     0.080 N 
HETATM   13  H1  UNL     1      26.505   2.784  52.287  1.00  0.00     0.312 HD
HETATM   14  H2  UNL     1      27.259   3.990  51.267  1.00  0.00     0.312 HD
ENDBRANCH  11  12
ENDBRANCH   5  11
ENDBRANCH   4   5
ENDBRANCH   1   4
BRANCH   2  15
HETATM   15  C6  UNL     1      25.077  -0.621  53.545  1.00  0.00     0.218 C 
HETATM   16  F1  UNL     1      25.649  -0.308  54.772  1.00  0.00    -0.243 F 
BRANCH  15  17
HETATM   17  C7  UNL     1      26.067  -0.392  52.422  1.00  0.00     0.081 C 
BRANCH  17  18
HETATM   18  C8  UNL     1      27.468  -0.422  52.896  1.00  0.00    -0.055 A 
HETATM   19  C9  UNL     1      28.274   0.615  53.306  1.00  0.00     0.007 A 
HETATM   20  C10 UNL     1      29.568   0.373  53.718  1.00  0.00     0.001 A 
HETATM   21  C11 UNL     1      30.106  -0.896  53.740  1.00  0.00     0.000 A 
HETATM   22  C12 UNL     1      29.332  -1.959  53.338  1.00  0.00     0.001 A 
HETATM   23  C13 UNL     1      28.036  -1.698  52.926  1.00  0.00     0.007 A 
ENDBRANCH  17  18
ENDBRANCH  15  17
ENDBRANCH   2  15
TORSDOF 7
ENDMDL
MODEL 9
REMARK VINA RESULT:      -7.1      3.622      6.255
REMARK  7 active torsions:
REMARK  status: ('A' for Active; 'I' for Inactive)
REMARK    1  A    between atoms: N1_1  and  C1_2 
REMARK    2  A    between atoms: C1_2  and  C2_3 
REMARK    3  A    between atoms: C2_3  and  C3_4 
REMARK    4  A    between atoms: C3_4  and  C4_5 
REMARK    5  A    between atoms: C5_6  and  C6_8 
REMARK    6  A    between atoms: C6_8  and  C7_10 
REMARK    7  A    between atoms: C7_10  and  C8_11 
ROOT
HETATM    1  C4  UNL     1      23.503   1.493  52.986  1.00  0.00    -0.002 C 
HETATM    2  C5  UNL     1      23.661   0.163  53.149  1.00  0.00     0.042 C 
HETATM    3 CL1  UNL     1      22.344  -1.021  53.049  1.00  0.00    -0.086 Cl
ENDROOT
BRANCH   1   4
HETATM    4  C3  UNL     1      24.228   2.782  52.976  1.00  0.00     0.064 C 
BRANCH   4   5
HETATM    5  C2  UNL     1      23.737   3.697  51.863  1.00  0.00     0.088 A 
HETATM    6  C14 UNL     1      24.878   3.948  50.913  1.00  0.00     0.082 A 
HETATM    7  C15 UNL     1      24.632   3.500  49.535  1.00  0.00     0.093 A 
HETATM    8  N2  UNL     1      23.561   2.935  49.098  1.00  0.00    -0.259 NA
HETATM    9  C16 UNL     1      22.515   2.715  50.019  1.00  0.00     0.226 A 
HETATM   10  N3  UNL     1      22.610   3.059  51.235  1.00  0.00    -0.270 NA
BRANCH   5  11
HETATM   11  C1  UNL     1      23.285   4.973  52.492  1.00  0.00     0.300 C 
BRANCH  11  12
HETATM   12  N1  UNL     1      24.093   6.113  52.116  1.00  0.00     0.080 N 
HETATM   13  H1  UNL     1      24.658   5.938  51.259  1.00  0.00     0.312 HD
HETATM   14  H2  UNL     1      24.591   6.543  52.900  1.00  0.00     0.312 HD
ENDBRANCH  11  12
ENDBRANCH   5  11
ENDBRANCH   4   5
ENDBRANCH   1   4
BRANCH   2  15
HETATM   15  C6  UNL     1      24.962  -0.486  53.433  1.00  0.00     0.218 C 
HETATM   16  F1  UNL     1      25.392  -0.200  54.722  1.00  0.00    -0.243 F 
BRANCH  15  17
HETATM   17  C7  UNL     1      26.025  -0.108  52.422  1.00  0.00     0.081 C 
BRANCH  17  18
HETATM   18  C8  UNL     1      27.375  -0.550  52.837  1.00  0.00    -0.055 A 
HETATM   19  C9  UNL     1      27.907  -1.818  52.876  1.00  0.00     0.007 A 
HETATM   20  C10 UNL     1      29.205  -2.018  53.297  1.00  0.00     0.001 A 
HETATM   21  C11 UNL     1      30.018  -0.978  53.692  1.00  0.00     0.000 A 
HETATM   22  C12 UNL     1      29.523   0.305  53.666  1.00  0.00     0.001 A 
HETATM   23  C13 UNL     1      28.217   0.489  53.241  1.00  0.00     0.007 A 
ENDBRANCH  17  18
ENDBRANCH  15  17
ENDBRANCH   2  15
TORSDOF 7
ENDMDL
