MODEL 1
REMARK VINA RESULT:      -7.7      0.000      0.000
REMARK  7 active torsions:
REMARK  status: ('A' for Active; 'I' for Inactive)
REMARK    1  A    between atoms: N1_1  and  C1_2 
REMARK    2  A    between atoms: C2_4  and  N3_5 
REMARK    3  A    between atoms: N3_5  and  C3_6 
REMARK    4  A    between atoms: C6_9  and  S1_10 
REMARK    5  A    between atoms: S1_10  and  N4_11 
REMARK    6  A    between atoms: N5_16  and  C9_17 
REMARK    7  A    between atoms: C9_17  and  N6_18 
ROOT
HETATM    1  C1  UNL     1      25.885   1.769  52.123  1.00  0.00     0.700 A 
HETATM    2  N2  UNL     1      24.754   2.004  51.669  1.00  0.00    -0.061 NA
HETATM    3  C2  UNL     1      24.114   0.902  52.301  1.00  0.00     0.354 A 
HETATM    4  N5  UNL     1      25.432   0.651  52.813  1.00  0.00    -0.128 N 
ENDROOT
BRANCH   3   5
HETATM    5  N3  UNL     1      23.161   1.225  53.333  1.00  0.00    -0.350 N 
HETATM    6  H4  UNL     1      23.164   1.766  54.225  1.00  0.00     0.163 HD
BRANCH   5   7
HETATM    7  C3  UNL     1      21.835   0.683  53.149  1.00  0.00     0.030 A 
HETATM    8  C4  UNL     1      20.968   0.987  52.107  1.00  0.00     0.031 A 
HETATM    9  C5  UNL     1      19.704   0.482  51.928  1.00  0.00     0.027 A 
HETATM   10  C6  UNL     1      19.244  -0.412  52.864  1.00  0.00     0.074 A 
HETATM   11  C7  UNL     1      20.022  -0.775  53.929  1.00  0.00     0.027 A 
HETATM   12  C8  UNL     1      21.278  -0.226  54.041  1.00  0.00     0.031 A 
BRANCH  10  13
HETATM   13  S1  UNL     1      17.640  -1.053  52.636  1.00  0.00     0.239 S 
HETATM   14  O1  UNL     1      17.302  -1.023  51.182  1.00  0.00    -0.206 OA
HETATM   15  O2  UNL     1      16.637  -0.168  53.331  1.00  0.00    -0.206 OA
BRANCH  13  16
HETATM   16  N4  UNL     1      17.599  -2.657  53.250  1.00  0.00    -0.225 NA
HETATM   17  H7  UNL     1      16.749  -3.159  52.951  1.00  0.00     0.136 HD
HETATM   18  H8  UNL     1      18.480  -3.197  53.006  1.00  0.00     0.136 HD
ENDBRANCH  13  16
ENDBRANCH  10  13
ENDBRANCH   5   7
ENDBRANCH   3   5
BRANCH   4  19
HETATM   19  C9  UNL     1      26.260  -0.187  53.630  1.00  0.00     0.333 A 
HETATM   20  C10 UNL     1      27.305  -0.946  52.937  1.00  0.00     0.156 A 
HETATM   21  F1  UNL     1      26.610  -1.544  51.921  1.00  0.00    -0.206 F 
HETATM   22  C11 UNL     1      28.598  -1.189  53.011  1.00  0.00     0.042 A 
HETATM   23  C12 UNL     1      29.196  -0.484  54.136  1.00  0.00     0.002 A 
HETATM   24  C13 UNL     1      28.320   0.233  54.814  1.00  0.00     0.015 A 
HETATM   25  C14 UNL     1      26.870   0.552  54.780  1.00  0.00     0.260 A 
HETATM   26  F2  UNL     1      26.277   0.269  55.986  1.00  0.00    -0.240 F 
BRANCH  19  27
HETATM   27  N6  UNL     1      25.392  -1.216  54.253  1.00  0.00     0.118 N 
HETATM   28  H11 UNL     1      24.621  -1.369  53.545  1.00  0.00     0.316 HD
HETATM   29  H12 UNL     1      25.977  -2.066  54.354  1.00  0.00     0.316 HD
ENDBRANCH  19  27
ENDBRANCH   4  19
BRANCH   1  30
HETATM   30  N1  UNL     1      27.007   2.588  51.816  1.00  0.00    -0.233 N 
HETATM   31  H1  UNL     1      27.671   2.027  51.231  1.00  0.00     0.174 HD
HETATM   32  H2  UNL     1      27.208   3.580  52.086  1.00  0.00     0.174 HD
ENDBRANCH   1  30
TORSDOF 7
ENDMDL
MODEL 2
REMARK VINA RESULT:      -7.6      6.155      8.078
REMARK  7 active torsions:
REMARK  status: ('A' for Active; 'I' for Inactive)
REMARK    1  A    between atoms: N1_1  and  C1_2 
REMARK    2  A    between atoms: C2_4  and  N3_5 
REMARK    3  A    between atoms: N3_5  and  C3_6 
REMARK    4  A    between atoms: C6_9  and  S1_10 
REMARK    5  A    between atoms: S1_10  and  N4_11 
REMARK    6  A    between atoms: N5_16  and  C9_17 
REMARK    7  A    between atoms: C9_17  and  N6_18 
ROOT
HETATM    1  C1  UNL     1      22.951   1.667  50.881  1.00  0.00     0.700 A 
HETATM    2  N2  UNL     1      22.634   2.632  50.166  1.00  0.00    -0.061 NA
HETATM    3  C2  UNL     1      23.739   3.450  50.532  1.00  0.00     0.354 A 
HETATM    4  N5  UNL     1      24.084   2.321  51.349  1.00  0.00    -0.128 N 
ENDROOT
BRANCH   3   5
HETATM    5  N3  UNL     1      24.707   3.712  49.497  1.00  0.00    -0.350 N 
HETATM    6  H4  UNL     1      25.127   3.185  48.701  1.00  0.00     0.163 HD
BRANCH   5   7
HETATM    7  C3  UNL     1      25.293   5.032  49.510  1.00  0.00     0.030 A 
HETATM    8  C4  UNL     1      26.395   5.442  48.770  1.00  0.00     0.031 A 
HETATM    9  C5  UNL     1      26.962   6.692  48.781  1.00  0.00     0.027 A 
HETATM   10  C6  UNL     1      26.391   7.635  49.600  1.00  0.00     0.074 A 
HETATM   11  C7  UNL     1      25.303   7.331  50.370  1.00  0.00     0.027 A 
HETATM   12  C8  UNL     1      24.791   6.056  50.305  1.00  0.00     0.031 A 
BRANCH  10  13
HETATM   13  S1  UNL     1      27.112   9.222  49.613  1.00  0.00     0.239 S 
HETATM   14  O1  UNL     1      26.083  10.231  49.222  1.00  0.00    -0.206 OA
HETATM   15  O2  UNL     1      28.202   9.293  48.575  1.00  0.00    -0.206 OA
BRANCH  13  16
HETATM   16  N4  UNL     1      27.720   9.535  51.190  1.00  0.00    -0.225 NA
HETATM   17  H7  UNL     1      26.967   9.794  51.844  1.00  0.00     0.136 HD
HETATM   18  H8  UNL     1      28.298   8.724  51.558  1.00  0.00     0.136 HD
ENDBRANCH  13  16
ENDBRANCH  10  13
ENDBRANCH   5   7
ENDBRANCH   3   5
BRANCH   4  19
HETATM   19  C9  UNL     1      25.014   1.761  52.286  1.00  0.00     0.333 A 
HETATM   20  C10 UNL     1      24.490   0.735  53.191  1.00  0.00     0.156 A 
HETATM   21  F1  UNL     1      23.369   1.334  53.698  1.00  0.00    -0.206 F 
HETATM   22  C11 UNL     1      24.768  -0.483  53.612  1.00  0.00     0.042 A 
HETATM   23  C12 UNL     1      25.982  -0.986  52.984  1.00  0.00     0.002 A 
HETATM   24  C13 UNL     1      26.519  -0.121  52.145  1.00  0.00     0.015 A 
HETATM   25  C14 UNL     1      26.255   1.246  51.626  1.00  0.00     0.260 A 
HETATM   26  F2  UNL     1      27.347   2.058  51.810  1.00  0.00    -0.240 F 
BRANCH  19  27
HETATM   27  N6  UNL     1      25.478   2.852  53.176  1.00  0.00     0.118 N 
HETATM   28  H11 UNL     1      26.466   3.048  52.854  1.00  0.00     0.316 HD
HETATM   29  H12 UNL     1      24.859   3.663  52.990  1.00  0.00     0.316 HD
ENDBRANCH  19  27
ENDBRANCH   4  19
BRANCH   1  30
HETATM   30  N1  UNL     1      22.172   0.478  50.933  1.00  0.00    -0.233 N 
HETATM   31  H1  UNL     1      21.358   0.649  51.570  1.00  0.00     0.174 HD
HETATM   32  H2  UNL     1      22.317  -0.441  50.453  1.00  0.00     0.174 HD
ENDBRANCH   1  30
TORSDOF 7
ENDMDL
MODEL 3
REMARK VINA RESULT:      -7.6      1.109      1.519
REMARK  7 active torsions:
REMARK  status: ('A' for Active; 'I' for Inactive)
REMARK    1  A    between atoms: N1_1  and  C1_2 
REMARK    2  A    between atoms: C2_4  and  N3_5 
REMARK    3  A    between atoms: N3_5  and  C3_6 
REMARK    4  A    between atoms: C6_9  and  S1_10 
REMARK    5  A    between atoms: S1_10  and  N4_11 
REMARK    6  A    between atoms: N5_16  and  C9_17 
REMARK    7  A    between atoms: C9_17  and  N6_18 
ROOT
HETATM    1  C1  UNL     1      26.021   1.842  52.147  1.00  0.00     0.700 A 
HETATM    2  N2  UNL     1      24.913   2.064  51.633  1.00  0.00    -0.061 NA
HETATM    3  C2  UNL     1      24.267   0.922  52.185  1.00  0.00     0.354 A 
HETATM    4  N5  UNL     1      25.558   0.688  52.768  1.00  0.00    -0.128 N 
ENDROOT
BRANCH   3   5
HETATM    5  N3  UNL     1      23.245   1.182  53.167  1.00  0.00    -0.350 N 
HETATM    6  H4  UNL     1      23.209   1.530  54.150  1.00  0.00     0.163 HD
BRANCH   5   7
HETATM    7  C3  UNL     1      21.891   0.902  52.747  1.00  0.00     0.030 A 
HETATM    8  C4  UNL     1      20.927   0.239  53.497  1.00  0.00     0.031 A 
HETATM    9  C5  UNL     1      19.641  -0.035  53.104  1.00  0.00     0.027 A 
HETATM   10  C6  UNL     1      19.261   0.382  51.851  1.00  0.00     0.074 A 
HETATM   11  C7  UNL     1      20.138   1.042  51.036  1.00  0.00     0.027 A 
HETATM   12  C8  UNL     1      21.411   1.281  51.499  1.00  0.00     0.031 A 
BRANCH  10  13
HETATM   13  S1  UNL     1      17.628   0.032  51.353  1.00  0.00     0.239 S 
HETATM   14  O1  UNL     1      16.725   1.119  51.837  1.00  0.00    -0.206 OA
HETATM   15  O2  UNL     1      17.159  -1.241  52.010  1.00  0.00    -0.206 OA
BRANCH  13  16
HETATM   16  N4  UNL     1      17.592  -0.090  49.640  1.00  0.00    -0.225 NA
HETATM   17  H7  UNL     1      17.693  -1.066  49.325  1.00  0.00     0.136 HD
HETATM   18  H8  UNL     1      16.726   0.367  49.229  1.00  0.00     0.136 HD
ENDBRANCH  13  16
ENDBRANCH  10  13
ENDBRANCH   5   7
ENDBRANCH   3   5
BRANCH   4  19
HETATM   19  C9  UNL     1      26.358  -0.159  53.603  1.00  0.00     0.333 A 
HETATM   20  C10 UNL     1      27.389  -0.954  52.931  1.00  0.00     0.156 A 
HETATM   21  F1  UNL     1      26.688  -1.549  51.919  1.00  0.00    -0.206 F 
HETATM   22  C11 UNL     1      28.676  -1.228  53.019  1.00  0.00     0.042 A 
HETATM   23  C12 UNL     1      29.283  -0.521  54.138  1.00  0.00     0.002 A 
HETATM   24  C13 UNL     1      28.420   0.227  54.798  1.00  0.00     0.015 A 
HETATM   25  C14 UNL     1      26.978   0.582  54.747  1.00  0.00     0.260 A 
HETATM   26  F2  UNL     1      26.369   0.332  55.952  1.00  0.00    -0.240 F 
BRANCH  19  27
HETATM   27  N6  UNL     1      25.461  -1.156  54.235  1.00  0.00     0.118 N 
HETATM   28  H11 UNL     1      26.060  -1.611  54.978  1.00  0.00     0.316 HD
HETATM   29  H12 UNL     1      24.683  -0.619  54.661  1.00  0.00     0.316 HD
ENDBRANCH  19  27
ENDBRANCH   4  19
BRANCH   1  30
HETATM   30  N1  UNL     1      27.135   2.701  51.940  1.00  0.00    -0.233 N 
HETATM   31  H1  UNL     1      27.335   2.734  50.911  1.00  0.00     0.174 HD
HETATM   32  H2  UNL     1      27.706   3.240  52.633  1.00  0.00     0.174 HD
ENDBRANCH   1  30
TORSDOF 7
ENDMDL
MODEL 4
REMARK VINA RESULT:      -7.4      5.264      7.079
REMARK  7 active torsions:
REMARK  status: ('A' for Active; 'I' for Inactive)
REMARK    1  A    between atoms: N1_1  and  C1_2 
REMARK    2  A    between atoms: C2_4  and  N3_5 
REMARK    3  A    between atoms: N3_5  and  C3_6 
REMARK    4  A    between atoms: C6_9  and  S1_10 
REMARK    5  A    between atoms: S1_10  and  N4_11 
REMARK    6  A    between atoms: N5_16  and  C9_17 
REMARK    7  A    between atoms: C9_17  and  N6_18 
ROOT
HETATM    1  C1  UNL     1      23.401   0.788  53.233  1.00  0.00     0.700 A 
HETATM    2  N2  UNL     1      23.024   1.805  52.629  1.00  0.00    -0.061 NA
HETATM    3  C2  UNL     1      24.319   2.203  52.196  1.00  0.00     0.354 A 
HETATM    4  N5  UNL     1      24.730   1.022  52.900  1.00  0.00    -0.128 N 
ENDROOT
BRANCH   3   5
HETATM    5  N3  UNL     1      24.567   2.129  50.778  1.00  0.00    -0.350 N 
HETATM    6  H4  UNL     1      24.391   1.441  50.014  1.00  0.00     0.163 HD
BRANCH   5   7
HETATM    7  C3  UNL     1      25.238   3.270  50.201  1.00  0.00     0.030 A 
HETATM    8  C4  UNL     1      26.497   3.263  49.613  1.00  0.00     0.031 A 
HETATM    9  C5  UNL     1      27.145   4.343  49.067  1.00  0.00     0.027 A 
HETATM   10  C6  UNL     1      26.492   5.552  49.101  1.00  0.00     0.074 A 
HETATM   11  C7  UNL     1      25.249   5.663  49.658  1.00  0.00     0.027 A 
HETATM   12  C8  UNL     1      24.664   4.536  50.186  1.00  0.00     0.031 A 
BRANCH  10  13
HETATM   13  S1  UNL     1      27.315   6.923  48.407  1.00  0.00     0.239 S 
HETATM   14  O1  UNL     1      26.471   7.502  47.319  1.00  0.00    -0.206 OA
HETATM   15  O2  UNL     1      28.600   6.470  47.762  1.00  0.00    -0.206 OA
BRANCH  13  16
HETATM   16  N4  UNL     1      27.604   8.074  49.649  1.00  0.00    -0.225 NA
HETATM   17  H7  UNL     1      26.724   8.429  50.052  1.00  0.00     0.136 HD
HETATM   18  H8  UNL     1      28.253   7.693  50.399  1.00  0.00     0.136 HD
ENDBRANCH  13  16
ENDBRANCH  10  13
ENDBRANCH   5   7
ENDBRANCH   3   5
BRANCH   4  19
HETATM   19  C9  UNL     1      25.822   0.178  53.289  1.00  0.00     0.333 A 
HETATM   20  C10 UNL     1      27.110   0.437  52.639  1.00  0.00     0.156 A 
HETATM   21  F1  UNL     1      26.771   0.459  51.314  1.00  0.00    -0.206 F 
HETATM   22  C11 UNL     1      28.377   0.636  52.944  1.00  0.00     0.042 A 
HETATM   23  C12 UNL     1      28.579   0.586  54.386  1.00  0.00     0.002 A 
HETATM   24  C13 UNL     1      27.461   0.361  55.051  1.00  0.00     0.015 A 
HETATM   25  C14 UNL     1      26.019   0.139  54.773  1.00  0.00     0.260 A 
HETATM   26  F2  UNL     1      25.582  -1.028  55.350  1.00  0.00    -0.240 F 
BRANCH  19  27
HETATM   27  N6  UNL     1      25.479  -1.215  52.912  1.00  0.00     0.118 N 
HETATM   28  H11 UNL     1      26.226  -1.801  53.376  1.00  0.00     0.316 HD
HETATM   29  H12 UNL     1      24.547  -1.406  53.323  1.00  0.00     0.316 HD
ENDBRANCH  19  27
ENDBRANCH   4  19
BRANCH   1  30
HETATM   30  N1  UNL     1      22.490  -0.070  53.909  1.00  0.00    -0.233 N 
HETATM   31  H1  UNL     1      23.045  -0.784  54.438  1.00  0.00     0.174 HD
HETATM   32  H2  UNL     1      21.442  -0.057  53.927  1.00  0.00     0.174 HD
ENDBRANCH   1  30
TORSDOF 7
ENDMDL
MODEL 5
REMARK VINA RESULT:      -7.4      4.945      7.379
REMARK  7 active torsions:
REMARK  status: ('A' for Active; 'I' for Inactive)
REMARK    1  A    between atoms: N1_1  and  C1_2 
REMARK    2  A    between atoms: C2_4  and  N3_5 
REMARK    3  A    between atoms: N3_5  and  C3_6 
REMARK    4  A    between atoms: C6_9  and  S1_10 
REMARK    5  A    between atoms: S1_10  and  N4_11 
REMARK    6  A    between atoms: N5_16  and  C9_17 
REMARK    7  A    between atoms: C9_17  and  N6_18 
ROOT
HETATM    1  C1  UNL     1      20.812   3.652  51.576  1.00  0.00     0.700 A 
HETATM    2  N2  UNL     1      21.724   4.474  51.756  1.00  0.00    -0.061 NA
HETATM    3  C2  UNL     1      22.680   3.529  52.222  1.00  0.00     0.354 A 
HETATM    4  N5  UNL     1      21.609   2.598  52.005  1.00  0.00    -0.128 N 
ENDROOT
BRANCH   3   5
HETATM    5  N3  UNL     1      23.813   3.295  51.363  1.00  0.00    -0.350 N 
HETATM    6  H4  UNL     1      24.037   3.420  50.352  1.00  0.00     0.163 HD
BRANCH   5   7
HETATM    7  C3  UNL     1      24.978   2.733  52.007  1.00  0.00     0.030 A 
HETATM    8  C4  UNL     1      26.151   2.343  51.372  1.00  0.00     0.031 A 
HETATM    9  C5  UNL     1      27.260   1.803  51.975  1.00  0.00     0.027 A 
HETATM   10  C6  UNL     1      27.215   1.629  53.337  1.00  0.00     0.074 A 
HETATM   11  C7  UNL     1      26.105   1.982  54.053  1.00  0.00     0.027 A 
HETATM   12  C8  UNL     1      25.032   2.516  53.379  1.00  0.00     0.031 A 
BRANCH  10  13
HETATM   13  S1  UNL     1      28.624   0.944  54.101  1.00  0.00     0.239 S 
HETATM   14  O1  UNL     1      29.413   0.187  53.085  1.00  0.00    -0.206 OA
HETATM   15  O2  UNL     1      28.198  -0.054  55.148  1.00  0.00    -0.206 OA
BRANCH  13  16
HETATM   16  N4  UNL     1      29.550   2.219  54.785  1.00  0.00    -0.225 NA
HETATM   17  H7  UNL     1      30.454   1.881  55.150  1.00  0.00     0.136 HD
HETATM   18  H8  UNL     1      29.678   3.024  54.105  1.00  0.00     0.136 HD
ENDBRANCH  13  16
ENDBRANCH  10  13
ENDBRANCH   5   7
ENDBRANCH   3   5
BRANCH   4  19
HETATM   19  C9  UNL     1      21.181   1.231  52.066  1.00  0.00     0.333 A 
HETATM   20  C10 UNL     1      22.212   0.237  52.377  1.00  0.00     0.156 A 
HETATM   21  F1  UNL     1      23.200   0.548  51.483  1.00  0.00    -0.206 F 
HETATM   22  C11 UNL     1      22.432  -0.772  53.196  1.00  0.00     0.042 A 
HETATM   23  C12 UNL     1      21.297  -0.979  54.084  1.00  0.00     0.002 A 
HETATM   24  C13 UNL     1      20.320  -0.117  53.873  1.00  0.00     0.015 A 
HETATM   25  C14 UNL     1      20.016   1.033  52.984  1.00  0.00     0.260 A 
HETATM   26  F2  UNL     1      18.827   0.841  52.323  1.00  0.00    -0.240 F 
BRANCH  19  27
HETATM   27  N6  UNL     1      20.679   0.850  50.723  1.00  0.00     0.118 N 
HETATM   28  H11 UNL     1      21.556   0.700  50.151  1.00  0.00     0.316 HD
HETATM   29  H12 UNL     1      20.160  -0.039  50.848  1.00  0.00     0.316 HD
ENDBRANCH  19  27
ENDBRANCH   4  19
BRANCH   1  30
HETATM   30  N1  UNL     1      19.533   4.037  51.087  1.00  0.00    -0.233 N 
HETATM   31  H1  UNL     1      19.426   5.070  51.231  1.00  0.00     0.174 HD
HETATM   32  H2  UNL     1      18.779   3.458  50.648  1.00  0.00     0.174 HD
ENDBRANCH   1  30
TORSDOF 7
ENDMDL
MODEL 6
REMARK VINA RESULT:      -7.4      2.181      3.500
REMARK  7 active torsions:
REMARK  status: ('A' for Active; 'I' for Inactive)
REMARK    1  A    between atoms: N1_1  and  C1_2 
REMARK    2  A    between atoms: C2_4  and  N3_5 
REMARK    3  A    between atoms: N3_5  and  C3_6 
REMARK    4  A    between atoms: C6_9  and  S1_10 
REMARK    5  A    between atoms: S1_10  and  N4_11 
REMARK    6  A    between atoms: N5_16  and  C9_17 
REMARK    7  A    between atoms: C9_17  and  N6_18 
ROOT
HETATM    1  C1  UNL     1      26.220  -0.103  54.549  1.00  0.00     0.700 A 
HETATM    2  N2  UNL     1      25.351  -0.929  54.867  1.00  0.00    -0.061 NA
HETATM    3  C2  UNL     1      24.273  -0.260  54.224  1.00  0.00     0.354 A 
HETATM    4  N5  UNL     1      25.297   0.682  53.867  1.00  0.00    -0.128 N 
ENDROOT
BRANCH   3   5
HETATM    5  N3  UNL     1      23.700  -0.927  53.082  1.00  0.00    -0.350 N 
HETATM    6  H4  UNL     1      23.986  -1.687  52.427  1.00  0.00     0.163 HD
BRANCH   5   7
HETATM    7  C3  UNL     1      22.391  -0.467  52.682  1.00  0.00     0.030 A 
HETATM    8  C4  UNL     1      21.215  -0.631  53.403  1.00  0.00     0.031 A 
HETATM    9  C5  UNL     1      19.966  -0.202  53.028  1.00  0.00     0.027 A 
HETATM   10  C6  UNL     1      19.859   0.453  51.826  1.00  0.00     0.074 A 
HETATM   11  C7  UNL     1      20.959   0.664  51.041  1.00  0.00     0.027 A 
HETATM   12  C8  UNL     1      22.178   0.205  51.484  1.00  0.00     0.031 A 
BRANCH  10  13
HETATM   13  S1  UNL     1      18.273   0.998  51.351  1.00  0.00     0.239 S 
HETATM   14  O1  UNL     1      18.116   2.436  51.722  1.00  0.00    -0.206 OA
HETATM   15  O2  UNL     1      17.224   0.236  52.121  1.00  0.00    -0.206 OA
BRANCH  13  16
HETATM   16  N4  UNL     1      18.101   0.771  49.656  1.00  0.00    -0.225 NA
HETATM   17  H7  UNL     1      17.112   0.674  49.383  1.00  0.00     0.136 HD
HETATM   18  H8  UNL     1      18.588   1.536  49.103  1.00  0.00     0.136 HD
ENDBRANCH  13  16
ENDBRANCH  10  13
ENDBRANCH   5   7
ENDBRANCH   3   5
BRANCH   4  19
HETATM   19  C9  UNL     1      25.618   1.900  53.184  1.00  0.00     0.333 A 
HETATM   20  C10 UNL     1      26.293   1.765  51.890  1.00  0.00     0.156 A 
HETATM   21  F1  UNL     1      27.325   0.917  52.184  1.00  0.00    -0.206 F 
HETATM   22  C11 UNL     1      26.193   2.189  50.646  1.00  0.00     0.042 A 
HETATM   23  C12 UNL     1      25.049   3.077  50.489  1.00  0.00     0.002 A 
HETATM   24  C13 UNL     1      24.379   3.250  51.613  1.00  0.00     0.015 A 
HETATM   25  C14 UNL     1      24.432   2.801  53.028  1.00  0.00     0.260 A 
HETATM   26  F2  UNL     1      24.448   3.876  53.882  1.00  0.00    -0.240 F 
BRANCH  19  27
HETATM   27  N6  UNL     1      26.568   2.661  54.031  1.00  0.00     0.118 N 
HETATM   28  H11 UNL     1      26.195   3.651  54.016  1.00  0.00     0.316 HD
HETATM   29  H12 UNL     1      26.502   2.253  54.982  1.00  0.00     0.316 HD
ENDBRANCH  19  27
ENDBRANCH   4  19
BRANCH   1  30
HETATM   30  N1  UNL     1      27.581  -0.252  54.934  1.00  0.00    -0.233 N 
HETATM   31  H1  UNL     1      28.175  -0.165  54.075  1.00  0.00     0.174 HD
HETATM   32  H2  UNL     1      27.997  -0.419  55.881  1.00  0.00     0.174 HD
ENDBRANCH   1  30
TORSDOF 7
ENDMDL
MODEL 7
REMARK VINA RESULT:      -7.3      2.172      3.337
REMARK  7 active torsions:
REMARK  status: ('A' for Active; 'I' for Inactive)
REMARK    1  A    between atoms: N1_1  and  C1_2 
REMARK    2  A    between atoms: C2_4  and  N3_5 
REMARK    3  A    between atoms: N3_5  and  C3_6 
REMARK    4  A    between atoms: C6_9  and  S1_10 
REMARK    5  A    between atoms: S1_10  and  N4_11 
REMARK    6  A    between atoms: N5_16  and  C9_17 
REMARK    7  A    between atoms: C9_17  and  N6_18 
ROOT
HETATM    1  C1  UNL     1      24.405  -0.941  55.008  1.00  0.00     0.700 A 
HETATM    2  N2  UNL     1      23.171  -0.827  54.934  1.00  0.00    -0.061 NA
HETATM    3  C2  UNL     1      23.167  -0.090  53.717  1.00  0.00     0.354 A 
HETATM    4  N5  UNL     1      24.591  -0.236  53.825  1.00  0.00    -0.128 N 
ENDROOT
BRANCH   3   5
HETATM    5  N3  UNL     1      22.617  -0.764  52.567  1.00  0.00    -0.350 N 
HETATM    6  H4  UNL     1      22.848  -1.610  52.003  1.00  0.00     0.163 HD
BRANCH   5   7
HETATM    7  C3  UNL     1      21.441  -0.155  51.991  1.00  0.00     0.030 A 
HETATM    8  C4  UNL     1      20.183  -0.096  52.579  1.00  0.00     0.031 A 
HETATM    9  C5  UNL     1      19.059   0.475  52.037  1.00  0.00     0.027 A 
HETATM   10  C6  UNL     1      19.180   1.046  50.793  1.00  0.00     0.074 A 
HETATM   11  C7  UNL     1      20.376   1.040  50.131  1.00  0.00     0.027 A 
HETATM   12  C8  UNL     1      21.458   0.448  50.739  1.00  0.00     0.031 A 
BRANCH  10  13
HETATM   13  S1  UNL     1      17.752   1.771  50.105  1.00  0.00     0.239 S 
HETATM   14  O1  UNL     1      18.144   2.984  49.327  1.00  0.00    -0.206 OA
HETATM   15  O2  UNL     1      16.841   2.243  51.209  1.00  0.00    -0.206 OA
BRANCH  13  16
HETATM   16  N4  UNL     1      16.978   0.611  49.101  1.00  0.00    -0.225 NA
HETATM   17  H7  UNL     1      17.079  -0.345  49.475  1.00  0.00     0.136 HD
HETATM   18  H8  UNL     1      15.961   0.857  48.923  1.00  0.00     0.136 HD
ENDBRANCH  13  16
ENDBRANCH  10  13
ENDBRANCH   5   7
ENDBRANCH   3   5
BRANCH   4  19
HETATM   19  C9  UNL     1      25.870   0.041  53.240  1.00  0.00     0.333 A 
HETATM   20  C10 UNL     1      26.799   0.837  54.047  1.00  0.00     0.156 A 
HETATM   21  F1  UNL     1      26.028   1.907  54.412  1.00  0.00    -0.206 F 
HETATM   22  C11 UNL     1      28.044   0.813  54.478  1.00  0.00     0.042 A 
HETATM   23  C12 UNL     1      28.733  -0.382  54.012  1.00  0.00     0.002 A 
HETATM   24  C13 UNL     1      27.963  -1.162  53.278  1.00  0.00     0.015 A 
HETATM   25  C14 UNL     1      26.568  -1.197  52.768  1.00  0.00     0.260 A 
HETATM   26  F2  UNL     1      26.548  -1.347  51.403  1.00  0.00    -0.240 F 
BRANCH  19  27
HETATM   27  N6  UNL     1      25.647   0.845  52.014  1.00  0.00     0.118 N 
HETATM   28  H11 UNL     1      25.917   0.195  51.224  1.00  0.00     0.316 HD
HETATM   29  H12 UNL     1      24.633   1.060  51.988  1.00  0.00     0.316 HD
ENDBRANCH  19  27
ENDBRANCH   4  19
BRANCH   1  30
HETATM   30  N1  UNL     1      25.037  -1.627  56.081  1.00  0.00    -0.233 N 
HETATM   31  H1  UNL     1      24.594  -2.573  56.170  1.00  0.00     0.174 HD
HETATM   32  H2  UNL     1      25.811  -1.316  56.714  1.00  0.00     0.174 HD
ENDBRANCH   1  30
TORSDOF 7
ENDMDL
MODEL 8
REMARK VINA RESULT:      -7.2      7.532     10.143
REMARK  7 active torsions:
REMARK  status: ('A' for Active; 'I' for Inactive)
REMARK    1  A    between atoms: N1_1  and  C1_2 
REMARK    2  A    between atoms: C2_4  and  N3_5 
REMARK    3  A    between atoms: N3_5  and  C3_6 
REMARK    4  A    between atoms: C6_9  and  S1_10 
REMARK    5  A    between atoms: S1_10  and  N4_11 
REMARK    6  A    between atoms: N5_16  and  C9_17 
REMARK    7  A    between atoms: C9_17  and  N6_18 
ROOT
HETATM    1  C1  UNL     1      23.309   6.407  51.032  1.00  0.00     0.700 A 
HETATM    2  N2  UNL     1      23.908   7.454  50.737  1.00  0.00    -0.061 NA
HETATM    3  C2  UNL     1      25.144   6.828  50.416  1.00  0.00     0.354 A 
HETATM    4  N5  UNL     1      24.430   5.631  50.762  1.00  0.00    -0.128 N 
ENDROOT
BRANCH   3   5
HETATM    5  N3  UNL     1      25.537   6.868  49.030  1.00  0.00    -0.350 N 
HETATM    6  H4  UNL     1      25.059   6.987  48.110  1.00  0.00     0.163 HD
BRANCH   5   7
HETATM    7  C3  UNL     1      26.949   6.700  48.776  1.00  0.00     0.030 A 
HETATM    8  C4  UNL     1      27.596   5.493  48.542  1.00  0.00     0.031 A 
HETATM    9  C5  UNL     1      28.938   5.324  48.306  1.00  0.00     0.027 A 
HETATM   10  C6  UNL     1      29.723   6.451  48.297  1.00  0.00     0.074 A 
HETATM   11  C7  UNL     1      29.181   7.686  48.518  1.00  0.00     0.027 A 
HETATM   12  C8  UNL     1      27.828   7.777  48.749  1.00  0.00     0.031 A 
BRANCH  10  13
HETATM   13  S1  UNL     1      31.427   6.235  47.997  1.00  0.00     0.239 S 
HETATM   14  O1  UNL     1      32.165   7.442  48.474  1.00  0.00    -0.206 OA
HETATM   15  O2  UNL     1      31.671   6.138  46.513  1.00  0.00    -0.206 OA
BRANCH  13  16
HETATM   16  N4  UNL     1      31.952   4.820  48.818  1.00  0.00    -0.225 NA
HETATM   17  H7  UNL     1      32.906   4.930  49.195  1.00  0.00     0.136 HD
HETATM   18  H8  UNL     1      31.265   4.520  49.569  1.00  0.00     0.136 HD
ENDBRANCH  13  16
ENDBRANCH  10  13
ENDBRANCH   5   7
ENDBRANCH   3   5
BRANCH   4  19
HETATM   19  C9  UNL     1      24.477   4.204  50.890  1.00  0.00     0.333 A 
HETATM   20  C10 UNL     1      23.690   3.620  51.980  1.00  0.00     0.156 A 
HETATM   21  F1  UNL     1      24.085   4.363  53.059  1.00  0.00    -0.206 F 
HETATM   22  C11 UNL     1      22.796   2.675  52.191  1.00  0.00     0.042 A 
HETATM   23  C12 UNL     1      22.476   1.976  50.953  1.00  0.00     0.002 A 
HETATM   24  C13 UNL     1      23.141   2.446  49.915  1.00  0.00     0.015 A 
HETATM   25  C14 UNL     1      24.142   3.500  49.612  1.00  0.00     0.260 A 
HETATM   26  F2  UNL     1      25.240   2.967  48.981  1.00  0.00    -0.240 F 
BRANCH  19  27
HETATM   27  N6  UNL     1      25.878   3.818  51.185  1.00  0.00     0.118 N 
HETATM   28  H11 UNL     1      26.442   4.679  50.940  1.00  0.00     0.316 HD
HETATM   29  H12 UNL     1      25.919   3.624  52.203  1.00  0.00     0.316 HD
ENDBRANCH  19  27
ENDBRANCH   4  19
BRANCH   1  30
HETATM   30  N1  UNL     1      21.952   6.407  51.455  1.00  0.00    -0.233 N 
HETATM   31  H1  UNL     1      21.501   5.527  51.106  1.00  0.00     0.174 HD
HETATM   32  H2  UNL     1      21.422   7.116  52.016  1.00  0.00     0.174 HD
ENDBRANCH   1  30
TORSDOF 7
ENDMDL
MODEL 9
REMARK VINA RESULT:      -7.1      4.833      7.817
REMARK  7 active torsions:
REMARK  status: ('A' for Active; 'I' for Inactive)
REMARK    1  A    between atoms: N1_1  and  C1_2 
REMARK    2  A    between atoms: C2_4  and  N3_5 
REMARK    3  A    between atoms: N3_5  and  C3_6 
REMARK    4  A    between atoms: C6_9  and  S1_10 
REMARK    5  A    between atoms: S1_10  and  N4_11 
REMARK    6  A    between atoms: N5_16  and  C9_17 
REMARK    7  A    between atoms: C9_17  and  N6_18 
ROOT
HETATM    1  C1  UNL     1      21.109   4.127  51.432  1.00  0.00     0.700 A 
HETATM    2  N2  UNL     1      22.072   4.784  51.860  1.00  0.00    -0.061 NA
HETATM    3  C2  UNL     1      22.869   3.658  52.209  1.00  0.00     0.354 A 
HETATM    4  N5  UNL     1      21.743   2.922  51.708  1.00  0.00    -0.128 N 
ENDROOT
BRANCH   3   5
HETATM    5  N3  UNL     1      24.065   3.459  51.429  1.00  0.00    -0.350 N 
HETATM    6  H4  UNL     1      24.424   3.770  50.500  1.00  0.00     0.163 HD
BRANCH   5   7
HETATM    7  C3  UNL     1      25.068   2.610  52.030  1.00  0.00     0.030 A 
HETATM    8  C4  UNL     1      25.118   2.228  53.364  1.00  0.00     0.031 A 
HETATM    9  C5  UNL     1      26.070   1.426  53.944  1.00  0.00     0.027 A 
HETATM   10  C6  UNL     1      27.072   0.952  53.134  1.00  0.00     0.074 A 
HETATM   11  C7  UNL     1      27.112   1.272  51.806  1.00  0.00     0.027 A 
HETATM   12  C8  UNL     1      26.123   2.081  51.296  1.00  0.00     0.031 A 
BRANCH  10  13
HETATM   13  S1  UNL     1      28.280  -0.066  53.871  1.00  0.00     0.239 S 
HETATM   14  O1  UNL     1      28.154  -1.451  53.326  1.00  0.00    -0.206 OA
HETATM   15  O2  UNL     1      28.027  -0.161  55.354  1.00  0.00    -0.206 OA
BRANCH  13  16
HETATM   16  N4  UNL     1      29.831   0.594  53.537  1.00  0.00    -0.225 NA
HETATM   17  H7  UNL     1      29.768   1.573  53.219  1.00  0.00     0.136 HD
HETATM   18  H8  UNL     1      30.491   0.492  54.362  1.00  0.00     0.136 HD
ENDBRANCH  13  16
ENDBRANCH  10  13
ENDBRANCH   5   7
ENDBRANCH   3   5
BRANCH   4  19
HETATM   19  C9  UNL     1      21.177   1.631  51.448  1.00  0.00     0.333 A 
HETATM   20  C10 UNL     1      20.004   1.261  52.245  1.00  0.00     0.156 A 
HETATM   21  F1  UNL     1      20.421   1.521  53.521  1.00  0.00    -0.206 F 
HETATM   22  C11 UNL     1      18.780   0.795  52.090  1.00  0.00     0.042 A 
HETATM   23  C12 UNL     1      18.482   0.571  50.682  1.00  0.00     0.002 A 
HETATM   24  C13 UNL     1      19.490   0.886  49.891  1.00  0.00     0.015 A 
HETATM   25  C14 UNL     1      20.873   1.417  49.998  1.00  0.00     0.260 A 
HETATM   26  F2  UNL     1      21.768   0.584  49.372  1.00  0.00    -0.240 F 
BRANCH  19  27
HETATM   27  N6  UNL     1      22.199   0.609  51.781  1.00  0.00     0.118 N 
HETATM   28  H11 UNL     1      22.138  -0.088  50.987  1.00  0.00     0.316 HD
HETATM   29  H12 UNL     1      23.113   1.099  51.775  1.00  0.00     0.316 HD
ENDBRANCH  19  27
ENDBRANCH   4  19
BRANCH   1  30
HETATM   30  N1  UNL     1      19.940   4.751  50.916  1.00  0.00    -0.233 N 
HETATM   31  H1  UNL     1      19.164   4.613  51.607  1.00  0.00     0.174 HD
HETATM   32  H2  UNL     1      19.797   5.273  50.019  1.00  0.00     0.174 HD
ENDBRANCH   1  30
TORSDOF 7
ENDMDL
