MODEL 1
REMARK VINA RESULT:      -7.6      0.000      0.000
REMARK  7 active torsions:
REMARK  status: ('A' for Active; 'I' for Inactive)
REMARK    1  A    between atoms: O1_2  and  C2_3 
REMARK    2  A    between atoms: C2_3  and  C3_4 
REMARK    3  A    between atoms: C5_6  and  C6_7 
REMARK    4  A    between atoms: C6_7  and  N1_8 
REMARK    5  A    between atoms: N1_8  and  C7_9 
REMARK    6  A    between atoms: C8_10  and  N2_11 
REMARK    7  A    between atoms: N2_11  and  C9_12 
ROOT
HETATM    1  N1  UNL     1      27.389   5.045  49.424  1.00  0.00    -0.393 N 
HETATM    2  H9  UNL     1      27.663   5.452  50.366  1.00  0.00     0.159 HD
ENDROOT
BRANCH   1   3
HETATM    3  C6  UNL     1      28.325   5.103  48.324  1.00  0.00     0.159 C 
BRANCH   3   4
HETATM    4  C5  UNL     1      29.207   6.272  48.432  1.00  0.00    -0.016 C 
HETATM    5  C4  UNL     1      30.510   5.991  48.697  1.00  0.00     0.040 C 
HETATM    6  C3  UNL     1      31.614   6.168  47.893  1.00  0.00     0.060 C 
HETATM    7  N4  UNL     1      31.549   7.355  47.294  1.00  0.00    -0.244 NA
HETATM    8  C17 UNL     1      31.241   8.521  47.914  1.00  0.00     0.235 C 
HETATM    9  N3  UNL     1      30.802   9.211  49.009  1.00  0.00    -0.230 NA
HETATM   10  C16 UNL     1      29.487   9.578  49.067  1.00  0.00     0.259 C 
HETATM   11  O2  UNL     1      28.659   8.543  49.210  1.00  0.00    -0.315 OA
HETATM   12  C15 UNL     1      28.845   7.596  48.294  1.00  0.00     0.152 C 
BRANCH   6  13
HETATM   13  C2  UNL     1      32.634   5.096  47.818  1.00  0.00     0.226 C 
BRANCH  13  14
HETATM   14  O1  UNL     1      32.086   3.828  47.860  1.00  0.00    -0.390 OA
HETATM   15  C1  UNL     1      31.989   3.224  46.616  1.00  0.00     0.201 C 
ENDBRANCH  13  14
ENDBRANCH   6  13
ENDBRANCH   3   4
ENDBRANCH   1   3
BRANCH   1  16
HETATM   16  C7  UNL     1      26.104   4.469  49.333  1.00  0.00     0.100 C 
HETATM   17  C8  UNL     1      25.831   3.594  50.284  1.00  0.00     0.105 C 
BRANCH  17  18
HETATM   18  N2  UNL     1      26.681   3.192  51.352  1.00  0.00    -0.365 N 
HETATM   19  H12 UNL     1      27.196   3.971  51.850  1.00  0.00     0.165 HD
BRANCH  18  20
HETATM   20  C9  UNL     1      27.153   2.065  52.077  1.00  0.00     0.033 A 
HETATM   21  C10 UNL     1      28.120   2.405  53.021  1.00  0.00     0.032 A 
HETATM   22  C11 UNL     1      28.685   1.426  53.814  1.00  0.00     0.046 A 
HETATM   23  C12 UNL     1      28.242   0.135  53.615  1.00  0.00     0.138 A 
HETATM   24  F1  UNL     1      28.797  -0.835  54.394  1.00  0.00    -0.204 F 
HETATM   25  C13 UNL     1      27.280  -0.219  52.678  1.00  0.00     0.074 A 
HETATM   26 CL1  UNL     1      26.763  -1.878  52.477  1.00  0.00    -0.081 Cl
HETATM   27  C14 UNL     1      26.736   0.764  51.907  1.00  0.00     0.056 A 
ENDBRANCH  18  20
ENDBRANCH  17  18
ENDBRANCH   1  16
TORSDOF 7
ENDMDL
MODEL 2
REMARK VINA RESULT:      -7.6      4.727      8.501
REMARK  7 active torsions:
REMARK  status: ('A' for Active; 'I' for Inactive)
REMARK    1  A    between atoms: O1_2  and  C2_3 
REMARK    2  A    between atoms: C2_3  and  C3_4 
REMARK    3  A    between atoms: C5_6  and  C6_7 
REMARK    4  A    between atoms: C6_7  and  N1_8 
REMARK    5  A    between atoms: N1_8  and  C7_9 
REMARK    6  A    between atoms: C8_10  and  N2_11 
REMARK    7  A    between atoms: N2_11  and  C9_12 
ROOT
HETATM    1  N1  UNL     1      24.706   3.445  52.017  1.00  0.00    -0.393 N 
HETATM    2  H9  UNL     1      25.027   3.987  52.872  1.00  0.00     0.159 HD
ENDROOT
BRANCH   1   3
HETATM    3  C6  UNL     1      25.445   2.277  51.595  1.00  0.00     0.159 C 
BRANCH   3   4
HETATM    4  C5  UNL     1      26.333   1.791  52.659  1.00  0.00    -0.016 C 
HETATM    5  C4  UNL     1      25.707   1.210  53.715  1.00  0.00     0.040 C 
HETATM    6  C3  UNL     1      25.735  -0.106  54.120  1.00  0.00     0.060 C 
HETATM    7  N4  UNL     1      26.981  -0.570  54.058  1.00  0.00    -0.244 NA
HETATM    8  C17 UNL     1      28.074   0.079  54.529  1.00  0.00     0.235 C 
HETATM    9  N3  UNL     1      28.670   1.194  55.046  1.00  0.00    -0.230 NA
HETATM   10  C16 UNL     1      29.331   2.036  54.198  1.00  0.00     0.259 C 
HETATM   11  O2  UNL     1      28.519   2.684  53.362  1.00  0.00    -0.315 OA
HETATM   12  C15 UNL     1      27.710   1.870  52.686  1.00  0.00     0.152 C 
BRANCH   6  13
HETATM   13  C2  UNL     1      24.472  -0.762  54.535  1.00  0.00     0.226 C 
BRANCH  13  14
HETATM   14  O1  UNL     1      23.549  -0.849  53.510  1.00  0.00    -0.390 OA
HETATM   15  C1  UNL     1      22.275  -0.443  53.875  1.00  0.00     0.201 C 
ENDBRANCH  13  14
ENDBRANCH   6  13
ENDBRANCH   3   4
ENDBRANCH   1   3
BRANCH   1  16
HETATM   16  C7  UNL     1      23.557   3.929  51.356  1.00  0.00     0.100 C 
HETATM   17  C8  UNL     1      23.742   5.061  50.700  1.00  0.00     0.105 C 
BRANCH  17  18
HETATM   18  N2  UNL     1      24.948   5.809  50.600  1.00  0.00    -0.365 N 
HETATM   19  H12 UNL     1      25.184   6.417  51.434  1.00  0.00     0.165 HD
BRANCH  18  20
HETATM   20  C9  UNL     1      26.055   6.088  49.754  1.00  0.00     0.033 A 
HETATM   21  C10 UNL     1      26.688   4.931  49.304  1.00  0.00     0.032 A 
HETATM   22  C11 UNL     1      27.785   5.023  48.471  1.00  0.00     0.046 A 
HETATM   23  C12 UNL     1      28.196   6.294  48.125  1.00  0.00     0.138 A 
HETATM   24  F1  UNL     1      29.277   6.391  47.303  1.00  0.00    -0.204 F 
HETATM   25  C13 UNL     1      27.576   7.456  48.566  1.00  0.00     0.074 A 
HETATM   26 CL1  UNL     1      28.150   9.039  48.090  1.00  0.00    -0.081 Cl
HETATM   27  C14 UNL     1      26.495   7.341  49.388  1.00  0.00     0.056 A 
ENDBRANCH  18  20
ENDBRANCH  17  18
ENDBRANCH   1  16
TORSDOF 7
ENDMDL
MODEL 3
REMARK VINA RESULT:      -7.4      4.973      7.893
REMARK  7 active torsions:
REMARK  status: ('A' for Active; 'I' for Inactive)
REMARK    1  A    between atoms: O1_2  and  C2_3 
REMARK    2  A    between atoms: C2_3  and  C3_4 
REMARK    3  A    between atoms: C5_6  and  C6_7 
REMARK    4  A    between atoms: C6_7  and  N1_8 
REMARK    5  A    between atoms: N1_8  and  C7_9 
REMARK    6  A    between atoms: C8_10  and  N2_11 
REMARK    7  A    between atoms: N2_11  and  C9_12 
ROOT
HETATM    1  N1  UNL     1      24.609   4.715  51.127  1.00  0.00    -0.393 N 
HETATM    2  H9  UNL     1      24.733   5.742  51.368  1.00  0.00     0.159 HD
ENDROOT
BRANCH   1   3
HETATM    3  C6  UNL     1      23.781   3.882  51.969  1.00  0.00     0.159 C 
BRANCH   3   4
HETATM    4  C5  UNL     1      23.040   2.891  51.178  1.00  0.00    -0.016 C 
HETATM    5  C4  UNL     1      23.321   1.593  51.466  1.00  0.00     0.040 C 
HETATM    6  C3  UNL     1      22.510   0.639  52.038  1.00  0.00     0.060 C 
HETATM    7  N4  UNL     1      21.294   0.700  51.500  1.00  0.00    -0.244 NA
HETATM    8  C17 UNL     1      21.037   0.784  50.172  1.00  0.00     0.235 C 
HETATM    9  N3  UNL     1      21.458   0.955  48.883  1.00  0.00    -0.230 NA
HETATM   10  C16 UNL     1      21.367   2.199  48.325  1.00  0.00     0.259 C 
HETATM   11  O2  UNL     1      22.208   3.080  48.867  1.00  0.00    -0.315 OA
HETATM   12  C15 UNL     1      22.109   3.148  50.193  1.00  0.00     0.152 C 
BRANCH   6  13
HETATM   13  C2  UNL     1      23.066  -0.249  53.086  1.00  0.00     0.226 C 
BRANCH  13  14
HETATM   14  O1  UNL     1      22.293  -1.374  53.304  1.00  0.00    -0.390 OA
HETATM   15  C1  UNL     1      21.813  -1.475  54.601  1.00  0.00     0.201 C 
ENDBRANCH  13  14
ENDBRANCH   6  13
ENDBRANCH   3   4
ENDBRANCH   1   3
BRANCH   1  16
HETATM   16  C7  UNL     1      25.281   4.249  49.977  1.00  0.00     0.100 C 
HETATM   17  C8  UNL     1      26.322   3.477  50.231  1.00  0.00     0.105 C 
BRANCH  17  18
HETATM   18  N2  UNL     1      26.811   3.085  51.508  1.00  0.00    -0.365 N 
HETATM   19  H12 UNL     1      26.858   3.850  52.239  1.00  0.00     0.165 HD
BRANCH  18  20
HETATM   20  C9  UNL     1      27.305   1.982  52.255  1.00  0.00     0.033 A 
HETATM   21  C10 UNL     1      28.252   2.362  53.204  1.00  0.00     0.032 A 
HETATM   22  C11 UNL     1      28.834   1.410  54.018  1.00  0.00     0.046 A 
HETATM   23  C12 UNL     1      28.428   0.105  53.834  1.00  0.00     0.138 A 
HETATM   24  F1  UNL     1      28.999  -0.838  54.634  1.00  0.00    -0.204 F 
HETATM   25  C13 UNL     1      27.486  -0.288  52.892  1.00  0.00     0.074 A 
HETATM   26 CL1  UNL     1      27.016  -1.964  52.710  1.00  0.00    -0.081 Cl
HETATM   27  C14 UNL     1      26.924   0.668  52.100  1.00  0.00     0.056 A 
ENDBRANCH  18  20
ENDBRANCH  17  18
ENDBRANCH   1  16
TORSDOF 7
ENDMDL
MODEL 4
REMARK VINA RESULT:      -7.4      5.540      8.552
REMARK  7 active torsions:
REMARK  status: ('A' for Active; 'I' for Inactive)
REMARK    1  A    between atoms: O1_2  and  C2_3 
REMARK    2  A    between atoms: C2_3  and  C3_4 
REMARK    3  A    between atoms: C5_6  and  C6_7 
REMARK    4  A    between atoms: C6_7  and  N1_8 
REMARK    5  A    between atoms: N1_8  and  C7_9 
REMARK    6  A    between atoms: C8_10  and  N2_11 
REMARK    7  A    between atoms: N2_11  and  C9_12 
ROOT
HETATM    1  N1  UNL     1      24.270   2.022  52.084  1.00  0.00    -0.393 N 
HETATM    2  H9  UNL     1      24.813   1.511  51.328  1.00  0.00     0.159 HD
ENDROOT
BRANCH   1   3
HETATM    3  C6  UNL     1      24.985   2.784  53.082  1.00  0.00     0.159 C 
BRANCH   3   4
HETATM    4  C5  UNL     1      26.088   2.007  53.662  1.00  0.00    -0.016 C 
HETATM    5  C4  UNL     1      25.719   1.070  54.574  1.00  0.00     0.040 C 
HETATM    6  C3  UNL     1      25.793  -0.302  54.482  1.00  0.00     0.060 C 
HETATM    7  N4  UNL     1      26.966  -0.656  53.961  1.00  0.00    -0.244 NA
HETATM    8  C17 UNL     1      28.167  -0.155  54.343  1.00  0.00     0.235 C 
HETATM    9  N3  UNL     1      28.916   0.744  55.049  1.00  0.00    -0.230 NA
HETATM   10  C16 UNL     1      29.380   1.856  54.406  1.00  0.00     0.259 C 
HETATM   11  O2  UNL     1      28.413   2.710  54.070  1.00  0.00    -0.315 OA
HETATM   12  C15 UNL     1      27.431   2.139  53.376  1.00  0.00     0.152 C 
BRANCH   6  13
HETATM   13  C2  UNL     1      24.647  -1.121  54.942  1.00  0.00     0.226 C 
BRANCH  13  14
HETATM   14  O1  UNL     1      23.479  -0.844  54.258  1.00  0.00    -0.390 OA
HETATM   15  C1  UNL     1      22.331  -1.165  54.966  1.00  0.00     0.201 C 
ENDBRANCH  13  14
ENDBRANCH   6  13
ENDBRANCH   3   4
ENDBRANCH   1   3
BRANCH   1  16
HETATM   16  C7  UNL     1      22.865   1.907  52.041  1.00  0.00     0.100 C 
HETATM   17  C8  UNL     1      22.284   2.675  51.136  1.00  0.00     0.105 C 
BRANCH  17  18
HETATM   18  N2  UNL     1      22.919   3.574  50.236  1.00  0.00    -0.365 N 
HETATM   19  H12 UNL     1      22.580   3.540  49.233  1.00  0.00     0.165 HD
BRANCH  18  20
HETATM   20  C9  UNL     1      23.913   4.586  50.139  1.00  0.00     0.033 A 
HETATM   21  C10 UNL     1      23.586   5.726  50.870  1.00  0.00     0.032 A 
HETATM   22  C11 UNL     1      24.445   6.807  50.885  1.00  0.00     0.046 A 
HETATM   23  C12 UNL     1      25.607   6.685  50.152  1.00  0.00     0.138 A 
HETATM   24  F1  UNL     1      26.458   7.748  50.162  1.00  0.00    -0.204 F 
HETATM   25  C13 UNL     1      25.945   5.555  49.418  1.00  0.00     0.074 A 
HETATM   26 CL1  UNL     1      27.438   5.467  48.508  1.00  0.00    -0.081 Cl
HETATM   27  C14 UNL     1      25.083   4.500  49.418  1.00  0.00     0.056 A 
ENDBRANCH  18  20
ENDBRANCH  17  18
ENDBRANCH   1  16
TORSDOF 7
ENDMDL
MODEL 5
REMARK VINA RESULT:      -7.4      5.840      8.611
REMARK  7 active torsions:
REMARK  status: ('A' for Active; 'I' for Inactive)
REMARK    1  A    between atoms: O1_2  and  C2_3 
REMARK    2  A    between atoms: C2_3  and  C3_4 
REMARK    3  A    between atoms: C5_6  and  C6_7 
REMARK    4  A    between atoms: C6_7  and  N1_8 
REMARK    5  A    between atoms: N1_8  and  C7_9 
REMARK    6  A    between atoms: C8_10  and  N2_11 
REMARK    7  A    between atoms: N2_11  and  C9_12 
ROOT
HETATM    1  N1  UNL     1      24.201  -0.351  54.377  1.00  0.00    -0.393 N 
HETATM    2  H9  UNL     1      24.235   0.620  54.806  1.00  0.00     0.159 HD
ENDROOT
BRANCH   1   3
HETATM    3  C6  UNL     1      24.863  -0.596  53.116  1.00  0.00     0.159 C 
BRANCH   3   4
HETATM    4  C5  UNL     1      26.241  -0.088  53.126  1.00  0.00    -0.016 C 
HETATM    5  C4  UNL     1      26.590   0.661  52.047  1.00  0.00     0.040 C 
HETATM    6  C3  UNL     1      26.889   2.003  51.986  1.00  0.00     0.060 C 
HETATM    7  N4  UNL     1      27.678   2.336  53.005  1.00  0.00    -0.244 NA
HETATM    8  C17 UNL     1      28.773   1.639  53.397  1.00  0.00     0.235 C 
HETATM    9  N3  UNL     1      29.571   0.532  53.329  1.00  0.00    -0.230 NA
HETATM   10  C16 UNL     1      29.403  -0.455  54.257  1.00  0.00     0.259 C 
HETATM   11  O2  UNL     1      28.247  -1.107  54.128  1.00  0.00    -0.315 OA
HETATM   12  C15 UNL     1      27.191  -0.295  54.104  1.00  0.00     0.152 C 
BRANCH   6  13
HETATM   13  C2  UNL     1      26.334   2.819  50.880  1.00  0.00     0.226 C 
BRANCH  13  14
HETATM   14  O1  UNL     1      24.976   2.632  50.703  1.00  0.00    -0.390 OA
HETATM   15  C1  UNL     1      24.202   3.656  51.227  1.00  0.00     0.201 C 
ENDBRANCH  13  14
ENDBRANCH   6  13
ENDBRANCH   3   4
ENDBRANCH   1   3
BRANCH   1  16
HETATM   16  C7  UNL     1      23.497  -1.338  55.099  1.00  0.00     0.100 C 
HETATM   17  C8  UNL     1      22.182  -1.242  55.011  1.00  0.00     0.105 C 
BRANCH  17  18
HETATM   18  N2  UNL     1      21.438  -0.273  54.283  1.00  0.00    -0.365 N 
HETATM   19  H12 UNL     1      21.204   0.618  54.805  1.00  0.00     0.165 HD
BRANCH  18  20
HETATM   20  C9  UNL     1      20.832  -0.004  53.026  1.00  0.00     0.033 A 
HETATM   21  C10 UNL     1      19.456  -0.224  53.040  1.00  0.00     0.032 A 
HETATM   22  C11 UNL     1      18.710  -0.010  51.897  1.00  0.00     0.046 A 
HETATM   23  C12 UNL     1      19.397   0.423  50.781  1.00  0.00     0.138 A 
HETATM   24  F1  UNL     1      18.667   0.636  49.652  1.00  0.00    -0.204 F 
HETATM   25  C13 UNL     1      20.768   0.646  50.753  1.00  0.00     0.074 A 
HETATM   26 CL1  UNL     1      21.577   1.195  49.302  1.00  0.00    -0.081 Cl
HETATM   27  C14 UNL     1      21.483   0.428  51.892  1.00  0.00     0.056 A 
ENDBRANCH  18  20
ENDBRANCH  17  18
ENDBRANCH   1  16
TORSDOF 7
ENDMDL
MODEL 6
REMARK VINA RESULT:      -7.3      5.220      8.849
REMARK  7 active torsions:
REMARK  status: ('A' for Active; 'I' for Inactive)
REMARK    1  A    between atoms: O1_2  and  C2_3 
REMARK    2  A    between atoms: C2_3  and  C3_4 
REMARK    3  A    between atoms: C5_6  and  C6_7 
REMARK    4  A    between atoms: C6_7  and  N1_8 
REMARK    5  A    between atoms: N1_8  and  C7_9 
REMARK    6  A    between atoms: C8_10  and  N2_11 
REMARK    7  A    between atoms: N2_11  and  C9_12 
ROOT
HETATM    1  N1  UNL     1      24.071   3.871  50.883  1.00  0.00    -0.393 N 
HETATM    2  H9  UNL     1      24.243   4.279  51.849  1.00  0.00     0.159 HD
ENDROOT
BRANCH   1   3
HETATM    3  C6  UNL     1      22.782   3.300  50.570  1.00  0.00     0.159 C 
BRANCH   3   4
HETATM    4  C5  UNL     1      22.421   2.238  51.518  1.00  0.00    -0.016 C 
HETATM    5  C4  UNL     1      21.179   2.340  52.057  1.00  0.00     0.040 C 
HETATM    6  C3  UNL     1      20.088   1.520  51.878  1.00  0.00     0.060 C 
HETATM    7  N4  UNL     1      20.469   0.246  51.931  1.00  0.00    -0.244 NA
HETATM    8  C17 UNL     1      21.288  -0.280  52.874  1.00  0.00     0.235 C 
HETATM    9  N3  UNL     1      22.142  -0.132  53.931  1.00  0.00    -0.230 NA
HETATM   10  C16 UNL     1      23.486  -0.121  53.690  1.00  0.00     0.259 C 
HETATM   11  O2  UNL     1      23.892   0.962  53.027  1.00  0.00    -0.315 OA
HETATM   12  C15 UNL     1      23.208   1.173  51.904  1.00  0.00     0.152 C 
BRANCH   6  13
HETATM   13  C2  UNL     1      18.752   2.127  51.670  1.00  0.00     0.226 C 
BRANCH  13  14
HETATM   14  O1  UNL     1      18.738   3.489  51.903  1.00  0.00    -0.390 OA
HETATM   15  C1  UNL     1      17.871   4.185  51.075  1.00  0.00     0.201 C 
ENDBRANCH  13  14
ENDBRANCH   6  13
ENDBRANCH   3   4
ENDBRANCH   1   3
BRANCH   1  16
HETATM   16  C7  UNL     1      25.147   3.930  49.972  1.00  0.00     0.100 C 
HETATM   17  C8  UNL     1      26.271   3.400  50.422  1.00  0.00     0.105 C 
BRANCH  17  18
HETATM   18  N2  UNL     1      26.490   2.799  51.692  1.00  0.00    -0.365 N 
HETATM   19  H12 UNL     1      25.966   3.232  52.504  1.00  0.00     0.165 HD
BRANCH  18  20
HETATM   20  C9  UNL     1      27.192   1.760  52.361  1.00  0.00     0.033 A 
HETATM   21  C10 UNL     1      28.173   2.248  53.221  1.00  0.00     0.032 A 
HETATM   22  C11 UNL     1      28.950   1.371  53.951  1.00  0.00     0.046 A 
HETATM   23  C12 UNL     1      28.697   0.026  53.777  1.00  0.00     0.138 A 
HETATM   24  F1  UNL     1      29.460  -0.844  54.494  1.00  0.00    -0.204 F 
HETATM   25  C13 UNL     1      27.723  -0.475  52.922  1.00  0.00     0.074 A 
HETATM   26 CL1  UNL     1      27.453  -2.195  52.748  1.00  0.00    -0.081 Cl
HETATM   27  C14 UNL     1      26.968   0.410  52.212  1.00  0.00     0.056 A 
ENDBRANCH  18  20
ENDBRANCH  17  18
ENDBRANCH   1  16
TORSDOF 7
ENDMDL
MODEL 7
REMARK VINA RESULT:      -7.2      6.162     10.077
REMARK  7 active torsions:
REMARK  status: ('A' for Active; 'I' for Inactive)
REMARK    1  A    between atoms: O1_2  and  C2_3 
REMARK    2  A    between atoms: C2_3  and  C3_4 
REMARK    3  A    between atoms: C5_6  and  C6_7 
REMARK    4  A    between atoms: C6_7  and  N1_8 
REMARK    5  A    between atoms: N1_8  and  C7_9 
REMARK    6  A    between atoms: C8_10  and  N2_11 
REMARK    7  A    between atoms: N2_11  and  C9_12 
ROOT
HETATM    1  N1  UNL     1      23.672   1.548  51.057  1.00  0.00    -0.393 N 
HETATM    2  H9  UNL     1      24.422   0.800  51.131  1.00  0.00     0.159 HD
ENDROOT
BRANCH   1   3
HETATM    3  C6  UNL     1      22.281   1.177  51.177  1.00  0.00     0.159 C 
BRANCH   3   4
HETATM    4  C5  UNL     1      22.036   0.402  52.401  1.00  0.00    -0.016 C 
HETATM    5  C4  UNL     1      20.800   0.554  52.944  1.00  0.00     0.040 C 
HETATM    6  C3  UNL     1      19.784  -0.369  53.051  1.00  0.00     0.060 C 
HETATM    7  N4  UNL     1      20.279  -1.541  53.443  1.00  0.00    -0.244 NA
HETATM    8  C17 UNL     1      21.160  -1.709  54.460  1.00  0.00     0.235 C 
HETATM    9  N3  UNL     1      22.018  -1.198  55.393  1.00  0.00    -0.230 NA
HETATM   10  C16 UNL     1      23.351  -1.148  55.099  1.00  0.00     0.259 C 
HETATM   11  O2  UNL     1      23.645  -0.269  54.141  1.00  0.00    -0.315 OA
HETATM   12  C15 UNL     1      22.923  -0.442  53.035  1.00  0.00     0.152 C 
BRANCH   6  13
HETATM   13  C2  UNL     1      18.395   0.045  52.740  1.00  0.00     0.226 C 
BRANCH  13  14
HETATM   14  O1  UNL     1      17.446  -0.765  53.335  1.00  0.00    -0.390 OA
HETATM   15  C1  UNL     1      16.234  -0.787  52.663  1.00  0.00     0.201 C 
ENDBRANCH  13  14
ENDBRANCH   6  13
ENDBRANCH   3   4
ENDBRANCH   1   3
BRANCH   1  16
HETATM   16  C7  UNL     1      24.117   2.870  50.845  1.00  0.00     0.100 C 
HETATM   17  C8  UNL     1      25.095   3.251  51.648  1.00  0.00     0.105 C 
BRANCH  17  18
HETATM   18  N2  UNL     1      25.718   2.481  52.669  1.00  0.00    -0.365 N 
HETATM   19  H12 UNL     1      25.338   2.618  53.648  1.00  0.00     0.165 HD
BRANCH  18  20
HETATM   20  C9  UNL     1      26.734   1.518  52.918  1.00  0.00     0.033 A 
HETATM   21  C10 UNL     1      27.889   2.088  53.450  1.00  0.00     0.032 A 
HETATM   22  C11 UNL     1      28.976   1.292  53.751  1.00  0.00     0.046 A 
HETATM   23  C12 UNL     1      28.845  -0.058  53.499  1.00  0.00     0.138 A 
HETATM   24  F1  UNL     1      29.914  -0.847  53.794  1.00  0.00    -0.204 F 
HETATM   25  C13 UNL     1      27.700  -0.639  52.969  1.00  0.00     0.074 A 
HETATM   26 CL1  UNL     1      27.601  -2.361  52.673  1.00  0.00    -0.081 Cl
HETATM   27  C14 UNL     1      26.640   0.166  52.679  1.00  0.00     0.056 A 
ENDBRANCH  18  20
ENDBRANCH  17  18
ENDBRANCH   1  16
TORSDOF 7
ENDMDL
MODEL 8
REMARK VINA RESULT:      -7.2      6.486      8.875
REMARK  7 active torsions:
REMARK  status: ('A' for Active; 'I' for Inactive)
REMARK    1  A    between atoms: O1_2  and  C2_3 
REMARK    2  A    between atoms: C2_3  and  C3_4 
REMARK    3  A    between atoms: C5_6  and  C6_7 
REMARK    4  A    between atoms: C6_7  and  N1_8 
REMARK    5  A    between atoms: N1_8  and  C7_9 
REMARK    6  A    between atoms: C8_10  and  N2_11 
REMARK    7  A    between atoms: N2_11  and  C9_12 
ROOT
HETATM    1  N1  UNL     1      24.353   3.004  52.373  1.00  0.00    -0.393 N 
HETATM    2  H9  UNL     1      23.915   2.819  53.323  1.00  0.00     0.159 HD
ENDROOT
BRANCH   1   3
HETATM    3  C6  UNL     1      25.285   2.048  51.820  1.00  0.00     0.159 C 
BRANCH   3   4
HETATM    4  C5  UNL     1      26.285   1.637  52.815  1.00  0.00    -0.016 C 
HETATM    5  C4  UNL     1      25.781   1.069  53.941  1.00  0.00     0.040 C 
HETATM    6  C3  UNL     1      25.903  -0.229  54.384  1.00  0.00     0.060 C 
HETATM    7  N4  UNL     1      27.158  -0.644  54.225  1.00  0.00    -0.244 NA
HETATM    8  C17 UNL     1      28.259   0.066  54.575  1.00  0.00     0.235 C 
HETATM    9  N3  UNL     1      28.848   1.223  55.000  1.00  0.00    -0.230 NA
HETATM   10  C16 UNL     1      29.393   2.060  54.069  1.00  0.00     0.259 C 
HETATM   11  O2  UNL     1      28.483   2.643  53.289  1.00  0.00    -0.315 OA
HETATM   12  C15 UNL     1      27.654   1.773  52.715  1.00  0.00     0.152 C 
BRANCH   6  13
HETATM   13  C2  UNL     1      24.712  -0.921  54.932  1.00  0.00     0.226 C 
BRANCH  13  14
HETATM   14  O1  UNL     1      23.557  -0.646  54.225  1.00  0.00    -0.390 OA
HETATM   15  C1  UNL     1      22.413  -1.174  54.803  1.00  0.00     0.201 C 
ENDBRANCH  13  14
ENDBRANCH   6  13
ENDBRANCH   3   4
ENDBRANCH   1   3
BRANCH   1  16
HETATM   16  C7  UNL     1      23.971   4.196  51.722  1.00  0.00     0.100 C 
HETATM   17  C8  UNL     1      22.672   4.433  51.739  1.00  0.00     0.105 C 
BRANCH  17  18
HETATM   18  N2  UNL     1      21.659   3.629  52.331  1.00  0.00    -0.365 N 
HETATM   19  H12 UNL     1      21.479   3.797  53.360  1.00  0.00     0.165 HD
BRANCH  18  20
HETATM   20  C9  UNL     1      20.712   2.602  52.067  1.00  0.00     0.033 A 
HETATM   21  C10 UNL     1      21.281   1.331  52.103  1.00  0.00     0.032 A 
HETATM   22  C11 UNL     1      20.499   0.217  51.867  1.00  0.00     0.046 A 
HETATM   23  C12 UNL     1      19.164   0.442  51.603  1.00  0.00     0.138 A 
HETATM   24  F1  UNL     1      18.388  -0.652  51.370  1.00  0.00    -0.204 F 
HETATM   25  C13 UNL     1      18.583   1.704  51.564  1.00  0.00     0.074 A 
HETATM   26 CL1  UNL     1      16.881   1.918  51.222  1.00  0.00    -0.081 Cl
HETATM   27  C14 UNL     1      19.374   2.788  51.800  1.00  0.00     0.056 A 
ENDBRANCH  18  20
ENDBRANCH  17  18
ENDBRANCH   1  16
TORSDOF 7
ENDMDL
MODEL 9
REMARK VINA RESULT:      -7.2      5.041      8.157
REMARK  7 active torsions:
REMARK  status: ('A' for Active; 'I' for Inactive)
REMARK    1  A    between atoms: O1_2  and  C2_3 
REMARK    2  A    between atoms: C2_3  and  C3_4 
REMARK    3  A    between atoms: C5_6  and  C6_7 
REMARK    4  A    between atoms: C6_7  and  N1_8 
REMARK    5  A    between atoms: N1_8  and  C7_9 
REMARK    6  A    between atoms: C8_10  and  N2_11 
REMARK    7  A    between atoms: N2_11  and  C9_12 
ROOT
HETATM    1  N1  UNL     1      26.031   3.968  50.821  1.00  0.00    -0.393 N 
HETATM    2  H9  UNL     1      25.957   4.430  51.775  1.00  0.00     0.159 HD
ENDROOT
BRANCH   1   3
HETATM    3  C6  UNL     1      26.189   2.535  50.734  1.00  0.00     0.159 C 
BRANCH   3   4
HETATM    4  C5  UNL     1      26.611   1.962  52.019  1.00  0.00    -0.016 C 
HETATM    5  C4  UNL     1      25.602   1.668  52.880  1.00  0.00     0.040 C 
HETATM    6  C3  UNL     1      25.175   0.436  53.323  1.00  0.00     0.060 C 
HETATM    7  N4  UNL     1      26.225  -0.323  53.625  1.00  0.00    -0.244 NA
HETATM    8  C17 UNL     1      27.291   0.084  54.358  1.00  0.00     0.235 C 
HETATM    9  N3  UNL     1      28.006   1.068  54.980  1.00  0.00    -0.230 NA
HETATM   10  C16 UNL     1      29.063   1.627  54.318  1.00  0.00     0.259 C 
HETATM   11  O2  UNL     1      28.696   2.361  53.267  1.00  0.00    -0.315 OA
HETATM   12  C15 UNL     1      27.903   1.703  52.423  1.00  0.00     0.152 C 
BRANCH   6  13
HETATM   13  C2  UNL     1      23.721   0.157  53.395  1.00  0.00     0.226 C 
BRANCH  13  14
HETATM   14  O1  UNL     1      23.414  -0.878  54.257  1.00  0.00    -0.390 OA
HETATM   15  C1  UNL     1      22.105  -0.851  54.714  1.00  0.00     0.201 C 
ENDBRANCH  13  14
ENDBRANCH   6  13
ENDBRANCH   3   4
ENDBRANCH   1   3
BRANCH   1  16
HETATM   16  C7  UNL     1      25.964   4.822  49.699  1.00  0.00     0.100 C 
HETATM   17  C8  UNL     1      24.736   5.138  49.329  1.00  0.00     0.105 C 
BRANCH  17  18
HETATM   18  N2  UNL     1      23.520   4.715  49.933  1.00  0.00    -0.365 N 
HETATM   19  H12 UNL     1      22.916   5.482  50.342  1.00  0.00     0.165 HD
BRANCH  18  20
HETATM   20  C9  UNL     1      22.726   3.574  50.232  1.00  0.00     0.033 A 
HETATM   21  C10 UNL     1      22.731   2.637  49.201  1.00  0.00     0.032 A 
HETATM   22  C11 UNL     1      22.010   1.467  49.328  1.00  0.00     0.046 A 
HETATM   23  C12 UNL     1      21.308   1.295  50.504  1.00  0.00     0.138 A 
HETATM   24  F1  UNL     1      20.595   0.143  50.634  1.00  0.00    -0.204 F 
HETATM   25  C13 UNL     1      21.294   2.221  51.539  1.00  0.00     0.074 A 
HETATM   26 CL1  UNL     1      20.381   1.941  53.006  1.00  0.00    -0.081 Cl
HETATM   27  C14 UNL     1      22.014   3.369  51.392  1.00  0.00     0.056 A 
ENDBRANCH  18  20
ENDBRANCH  17  18
ENDBRANCH   1  16
TORSDOF 7
ENDMDL
