MODEL 1
REMARK VINA RESULT:      -9.7      0.000      0.000
REMARK  3 active torsions:
REMARK  status: ('A' for Active; 'I' for Inactive)
REMARK    1  A    between atoms: O1_1  and  C1_2 
REMARK    2  A    between atoms: C8_12  and  N3_13 
REMARK    3  A    between atoms: N3_13  and  C9_14 
ROOT
HETATM    1  C1  UNL     1      17.500   0.932  50.446  1.00  0.00     0.164 C 
HETATM    2  C2  UNL     1      16.643   0.067  51.297  1.00  0.00     0.008 C 
HETATM    3  C3  UNL     1      16.788  -0.674  52.378  1.00  0.00     0.002 C 
HETATM    4  C4  UNL     1      18.050  -0.835  53.112  1.00  0.00     0.038 C 
HETATM    5  C5  UNL     1      19.278  -0.488  52.726  1.00  0.00     0.085 C 
HETATM    6  O2  UNL     1      20.029  -0.886  53.825  1.00  0.00    -0.289 OA
HETATM    7  C6  UNL     1      21.413  -0.797  53.956  1.00  0.00     0.202 A 
HETATM    8  N1  UNL     1      21.857  -1.414  55.086  1.00  0.00    -0.215 NA
HETATM    9  C7  UNL     1      23.168  -1.440  55.398  1.00  0.00     0.238 A 
HETATM   10  N2  UNL     1      24.098  -0.857  54.606  1.00  0.00    -0.222 NA
HETATM   11  C8  UNL     1      23.727  -0.222  53.458  1.00  0.00     0.160 A 
HETATM   12  C16 UNL     1      22.369  -0.200  53.144  1.00  0.00     0.129 A 
HETATM   13  N4  UNL     1      22.145   0.496  51.925  1.00  0.00    -0.379 N 
HETATM   14  C17 UNL     1      21.103   0.319  50.940  1.00  0.00     0.161 C 
HETATM   15  C18 UNL     1      19.757   0.139  51.501  1.00  0.00    -0.008 C 
HETATM   16  C19 UNL     1      18.941   0.700  50.621  1.00  0.00     0.020 C 
HETATM   17  H14 UNL     1      22.879   1.245  51.759  1.00  0.00     0.160 HD
ENDROOT
BRANCH  11  18
HETATM   18  N3  UNL     1      24.683   0.399  52.606  1.00  0.00    -0.348 N 
HETATM   19  H7  UNL     1      24.446   0.043  51.652  1.00  0.00     0.167 HD
BRANCH  18  20
HETATM   20  C9  UNL     1      25.679   1.279  53.051  1.00  0.00     0.101 C 
HETATM   21  C10 UNL     1      26.911   0.878  53.271  1.00  0.00    -0.020 A 
HETATM   22  C11 UNL     1      27.876   1.872  53.735  1.00  0.00     0.009 A 
HETATM   23  C15 UNL     1      27.250  -0.522  53.043  1.00  0.00     0.032 A 
HETATM   24  C12 UNL     1      29.100   1.408  53.937  1.00  0.00    -0.020 A 
HETATM   25  C13 UNL     1      29.633   0.033  53.764  1.00  0.00     0.078 A 
HETATM   26  C14 UNL     1      28.514  -0.821  53.293  1.00  0.00     0.016 A 
HETATM   27 CL1  UNL     1      29.142  -2.459  53.084  1.00  0.00    -0.089 Cl
ENDBRANCH  18  20
ENDBRANCH  11  18
BRANCH   1  28
HETATM   28  O1  UNL     1      17.165   0.723  49.102  1.00  0.00    -0.388 OA
HETATM   29  H1  UNL     1      16.730   1.561  48.791  1.00  0.00     0.210 HD
ENDBRANCH   1  28
TORSDOF 3
ENDMDL
MODEL 2
REMARK VINA RESULT:      -9.6      1.693      3.067
REMARK  3 active torsions:
REMARK  status: ('A' for Active; 'I' for Inactive)
REMARK    1  A    between atoms: O1_1  and  C1_2 
REMARK    2  A    between atoms: C8_12  and  N3_13 
REMARK    3  A    between atoms: N3_13  and  C9_14 
ROOT
HETATM    1  C1  UNL     1      18.229  -1.398  53.064  1.00  0.00     0.164 C 
HETATM    2  C2  UNL     1      17.485  -0.788  51.932  1.00  0.00     0.008 C 
HETATM    3  C3  UNL     1      17.749   0.026  50.930  1.00  0.00     0.002 C 
HETATM    4  C4  UNL     1      19.068   0.613  50.660  1.00  0.00     0.038 C 
HETATM    5  C5  UNL     1      20.137   0.638  51.456  1.00  0.00     0.085 C 
HETATM    6  O2  UNL     1      21.052   1.316  50.659  1.00  0.00    -0.289 OA
HETATM    7  C6  UNL     1      22.354   1.665  51.010  1.00  0.00     0.202 A 
HETATM    8  N1  UNL     1      22.938   2.457  50.068  1.00  0.00    -0.215 NA
HETATM    9  C7  UNL     1      24.200   2.905  50.218  1.00  0.00     0.238 A 
HETATM   10  N2  UNL     1      24.940   2.589  51.307  1.00  0.00    -0.222 NA
HETATM   11  C8  UNL     1      24.421   1.801  52.290  1.00  0.00     0.160 A 
HETATM   12  C16 UNL     1      23.115   1.343  52.125  1.00  0.00     0.129 A 
HETATM   13  N4  UNL     1      22.721   0.538  53.229  1.00  0.00    -0.379 N 
HETATM   14  C17 UNL     1      21.408   0.324  53.792  1.00  0.00     0.161 C 
HETATM   15  C18 UNL     1      20.344   0.115  52.800  1.00  0.00    -0.008 C 
HETATM   16  C19 UNL     1      19.497  -0.723  53.377  1.00  0.00     0.020 C 
HETATM   17  H14 UNL     1      23.550   0.042  53.671  1.00  0.00     0.160 HD
ENDROOT
BRANCH  11  18
HETATM   18  N3  UNL     1      25.176   1.453  53.446  1.00  0.00    -0.348 N 
HETATM   19  H7  UNL     1      24.528   0.853  54.004  1.00  0.00     0.167 HD
BRANCH  18  20
HETATM   20  C9  UNL     1      26.492   1.876  53.681  1.00  0.00     0.101 C 
HETATM   21  C10 UNL     1      27.509   1.046  53.621  1.00  0.00    -0.020 A 
HETATM   22  C11 UNL     1      28.841   1.585  53.883  1.00  0.00     0.009 A 
HETATM   23  C15 UNL     1      27.260  -0.354  53.297  1.00  0.00     0.032 A 
HETATM   24  C12 UNL     1      29.825   0.701  53.806  1.00  0.00    -0.020 A 
HETATM   25  C13 UNL     1      29.773  -0.750  53.494  1.00  0.00     0.078 A 
HETATM   26  C14 UNL     1      28.350  -1.103  53.260  1.00  0.00     0.016 A 
HETATM   27 CL1  UNL     1      28.281  -2.828  52.888  1.00  0.00    -0.089 Cl
ENDBRANCH  18  20
ENDBRANCH  11  18
BRANCH   1  28
HETATM   28  O1  UNL     1      17.413  -1.385  54.203  1.00  0.00    -0.388 OA
HETATM   29  H1  UNL     1      16.761  -0.647  54.069  1.00  0.00     0.210 HD
ENDBRANCH   1  28
TORSDOF 3
ENDMDL
MODEL 3
REMARK VINA RESULT:      -9.4      4.574      5.765
REMARK  3 active torsions:
REMARK  status: ('A' for Active; 'I' for Inactive)
REMARK    1  A    between atoms: O1_1  and  C1_2 
REMARK    2  A    between atoms: C8_12  and  N3_13 
REMARK    3  A    between atoms: N3_13  and  C9_14 
ROOT
HETATM    1  C1  UNL     1      19.683  -0.016  52.835  1.00  0.00     0.164 C 
HETATM    2  C2  UNL     1      20.069  -1.065  53.814  1.00  0.00     0.008 C 
HETATM    3  C3  UNL     1      21.173  -1.478  54.403  1.00  0.00     0.002 C 
HETATM    4  C4  UNL     1      22.501  -0.889  54.188  1.00  0.00     0.038 C 
HETATM    5  C5  UNL     1      22.879  -0.036  53.236  1.00  0.00     0.085 C 
HETATM    6  O2  UNL     1      24.219   0.147  53.553  1.00  0.00    -0.289 OA
HETATM    7  C6  UNL     1      25.135   0.929  52.853  1.00  0.00     0.202 A 
HETATM    8  N1  UNL     1      26.401   0.776  53.330  1.00  0.00    -0.215 NA
HETATM    9  C7  UNL     1      27.437   1.447  52.788  1.00  0.00     0.238 A 
HETATM   10  N2  UNL     1      27.265   2.298  51.749  1.00  0.00    -0.222 NA
HETATM   11  C8  UNL     1      26.026   2.500  51.219  1.00  0.00     0.160 A 
HETATM   12  C16 UNL     1      24.962   1.801  51.787  1.00  0.00     0.129 A 
HETATM   13  N4  UNL     1      23.743   2.118  51.127  1.00  0.00    -0.379 N 
HETATM   14  C17 UNL     1      22.557   1.313  50.945  1.00  0.00     0.161 C 
HETATM   15  C18 UNL     1      22.134   0.569  52.140  1.00  0.00    -0.008 C 
HETATM   16  C19 UNL     1      20.813   0.524  52.065  1.00  0.00     0.020 C 
HETATM   17  H14 UNL     1      23.756   3.102  50.727  1.00  0.00     0.160 HD
ENDROOT
BRANCH  11  18
HETATM   18  N3  UNL     1      25.816   3.389  50.127  1.00  0.00    -0.348 N 
HETATM   19  H7  UNL     1      24.778   3.507  50.088  1.00  0.00     0.167 HD
BRANCH  18  20
HETATM   20  C9  UNL     1      26.845   3.928  49.344  1.00  0.00     0.101 C 
HETATM   21  C10 UNL     1      26.906   5.211  49.065  1.00  0.00    -0.020 A 
HETATM   22  C11 UNL     1      28.019   5.675  48.240  1.00  0.00     0.009 A 
HETATM   23  C15 UNL     1      25.873   6.097  49.588  1.00  0.00     0.032 A 
HETATM   24  C12 UNL     1      28.026   6.976  47.995  1.00  0.00    -0.020 A 
HETATM   25  C13 UNL     1      27.074   8.028  48.433  1.00  0.00     0.078 A 
HETATM   26  C14 UNL     1      26.027   7.367  49.251  1.00  0.00     0.016 A 
HETATM   27 CL1  UNL     1      24.891   8.614  49.775  1.00  0.00    -0.089 Cl
ENDBRANCH  18  20
ENDBRANCH  11  18
BRANCH   1  28
HETATM   28  O1  UNL     1      18.739  -0.548  51.948  1.00  0.00    -0.388 OA
HETATM   29  H1  UNL     1      18.359   0.225  51.451  1.00  0.00     0.210 HD
ENDBRANCH   1  28
TORSDOF 3
ENDMDL
MODEL 4
REMARK VINA RESULT:      -9.2      5.870      7.884
REMARK  3 active torsions:
REMARK  status: ('A' for Active; 'I' for Inactive)
REMARK    1  A    between atoms: O1_1  and  C1_2 
REMARK    2  A    between atoms: C8_12  and  N3_13 
REMARK    3  A    between atoms: N3_13  and  C9_14 
ROOT
HETATM    1  C1  UNL     1      25.833  -0.658  53.063  1.00  0.00     0.164 C 
HETATM    2  C2  UNL     1      24.408  -0.692  53.478  1.00  0.00     0.008 C 
HETATM    3  C3  UNL     1      23.320   0.021  53.262  1.00  0.00     0.002 C 
HETATM    4  C4  UNL     1      23.266   1.218  52.412  1.00  0.00     0.038 C 
HETATM    5  C5  UNL     1      24.283   1.922  51.915  1.00  0.00     0.085 C 
HETATM    6  O2  UNL     1      23.609   2.911  51.211  1.00  0.00    -0.289 OA
HETATM    7  C6  UNL     1      24.187   3.967  50.510  1.00  0.00     0.202 A 
HETATM    8  N1  UNL     1      23.252   4.849  50.059  1.00  0.00    -0.215 NA
HETATM    9  C7  UNL     1      23.607   5.943  49.355  1.00  0.00     0.238 A 
HETATM   10  N2  UNL     1      24.902   6.212  49.067  1.00  0.00    -0.222 NA
HETATM   11  C8  UNL     1      25.892   5.374  49.487  1.00  0.00     0.160 A 
HETATM   12  C16 UNL     1      25.514   4.246  50.214  1.00  0.00     0.129 A 
HETATM   13  N4  UNL     1      26.654   3.477  50.577  1.00  0.00    -0.379 N 
HETATM   14  C17 UNL     1      26.862   2.619  51.720  1.00  0.00     0.161 C 
HETATM   15  C18 UNL     1      25.724   1.747  52.044  1.00  0.00    -0.008 C 
HETATM   16  C19 UNL     1      26.268   0.642  52.531  1.00  0.00     0.020 C 
HETATM   17  H14 UNL     1      27.441   3.583  49.871  1.00  0.00     0.160 HD
ENDROOT
BRANCH  11  18
HETATM   18  N3  UNL     1      27.261   5.633  49.199  1.00  0.00    -0.348 N 
HETATM   19  H7  UNL     1      27.782   4.943  49.787  1.00  0.00     0.167 HD
BRANCH  18  20
HETATM   20  C9  UNL     1      27.704   6.618  48.306  1.00  0.00     0.101 C 
HETATM   21  C10 UNL     1      28.918   6.603  47.802  1.00  0.00    -0.020 A 
HETATM   22  C11 UNL     1      29.283   7.676  46.879  1.00  0.00     0.009 A 
HETATM   23  C15 UNL     1      29.827   5.529  48.182  1.00  0.00     0.032 A 
HETATM   24  C12 UNL     1      30.517   7.606  46.404  1.00  0.00    -0.020 A 
HETATM   25  C13 UNL     1      31.579   6.602  46.670  1.00  0.00     0.078 A 
HETATM   26  C14 UNL     1      31.022   5.606  47.619  1.00  0.00     0.016 A 
HETATM   27 CL1  UNL     1      32.281   4.409  47.939  1.00  0.00    -0.089 Cl
ENDBRANCH  18  20
ENDBRANCH  11  18
BRANCH   1  28
HETATM   28  O1  UNL     1      26.635  -0.991  54.162  1.00  0.00    -0.388 OA
HETATM   29  H1  UNL     1      26.429  -1.938  54.379  1.00  0.00     0.210 HD
ENDBRANCH   1  28
TORSDOF 3
ENDMDL
MODEL 5
REMARK VINA RESULT:      -8.8      3.691      7.629
REMARK  3 active torsions:
REMARK  status: ('A' for Active; 'I' for Inactive)
REMARK    1  A    between atoms: O1_1  and  C1_2 
REMARK    2  A    between atoms: C8_12  and  N3_13 
REMARK    3  A    between atoms: N3_13  and  C9_14 
ROOT
HETATM    1  C1  UNL     1      28.544   1.817  53.042  1.00  0.00     0.164 C 
HETATM    2  C2  UNL     1      28.949   1.048  54.247  1.00  0.00     0.008 C 
HETATM    3  C3  UNL     1      28.388   0.198  55.084  1.00  0.00     0.002 C 
HETATM    4  C4  UNL     1      26.996  -0.260  54.996  1.00  0.00     0.038 C 
HETATM    5  C5  UNL     1      26.010   0.239  54.251  1.00  0.00     0.085 C 
HETATM    6  O2  UNL     1      24.959  -0.602  54.595  1.00  0.00    -0.289 OA
HETATM    7  C6  UNL     1      23.647  -0.517  54.134  1.00  0.00     0.202 A 
HETATM    8  N1  UNL     1      22.825  -1.391  54.778  1.00  0.00    -0.215 NA
HETATM    9  C7  UNL     1      21.513  -1.466  54.478  1.00  0.00     0.238 A 
HETATM   10  N2  UNL     1      20.957  -0.678  53.528  1.00  0.00    -0.222 NA
HETATM   11  C8  UNL     1      21.718   0.222  52.843  1.00  0.00     0.160 A 
HETATM   12  C16 UNL     1      23.074   0.290  53.161  1.00  0.00     0.129 A 
HETATM   13  N4  UNL     1      23.728   1.271  52.365  1.00  0.00    -0.379 N 
HETATM   14  C17 UNL     1      24.885   2.081  52.666  1.00  0.00     0.161 C 
HETATM   15  C18 UNL     1      25.985   1.357  53.317  1.00  0.00    -0.008 C 
HETATM   16  C19 UNL     1      27.088   1.941  52.875  1.00  0.00     0.020 C 
HETATM   17  H14 UNL     1      23.259   1.387  51.419  1.00  0.00     0.160 HD
ENDROOT
BRANCH  11  18
HETATM   18  N3  UNL     1      21.160   1.062  51.839  1.00  0.00    -0.348 N 
HETATM   19  H7  UNL     1      20.669   1.812  52.378  1.00  0.00     0.167 HD
BRANCH  18  20
HETATM   20  C9  UNL     1      21.298   0.842  50.462  1.00  0.00     0.101 C 
HETATM   21  C10 UNL     1      21.655   1.801  49.638  1.00  0.00    -0.020 A 
HETATM   22  C11 UNL     1      21.771   1.469  48.220  1.00  0.00     0.009 A 
HETATM   23  C15 UNL     1      21.915   3.132  50.174  1.00  0.00     0.032 A 
HETATM   24  C12 UNL     1      22.135   2.476  47.441  1.00  0.00    -0.020 A 
HETATM   25  C13 UNL     1      22.441   3.886  47.794  1.00  0.00     0.078 A 
HETATM   26  C14 UNL     1      22.269   4.023  49.262  1.00  0.00     0.016 A 
HETATM   27 CL1  UNL     1      22.631   5.698  49.690  1.00  0.00    -0.089 Cl
ENDBRANCH  18  20
ENDBRANCH  11  18
BRANCH   1  28
HETATM   28  O1  UNL     1      29.106   3.098  53.110  1.00  0.00    -0.388 OA
HETATM   29  H1  UNL     1      29.393   3.325  52.186  1.00  0.00     0.210 HD
ENDBRANCH   1  28
TORSDOF 3
ENDMDL
MODEL 6
REMARK VINA RESULT:      -8.7      3.904      7.956
REMARK  3 active torsions:
REMARK  status: ('A' for Active; 'I' for Inactive)
REMARK    1  A    between atoms: O1_1  and  C1_2 
REMARK    2  A    between atoms: C8_12  and  N3_13 
REMARK    3  A    between atoms: N3_13  and  C9_14 
ROOT
HETATM    1  C1  UNL     1      24.233   3.240  49.313  1.00  0.00     0.164 C 
HETATM    2  C2  UNL     1      25.631   3.314  49.811  1.00  0.00     0.008 C 
HETATM    3  C3  UNL     1      26.342   2.772  50.780  1.00  0.00     0.002 C 
HETATM    4  C4  UNL     1      25.820   1.803  51.752  1.00  0.00     0.038 C 
HETATM    5  C5  UNL     1      24.549   1.479  51.991  1.00  0.00     0.085 C 
HETATM    6  O2  UNL     1      24.696   0.529  52.995  1.00  0.00    -0.289 OA
HETATM    7  C6  UNL     1      23.669  -0.134  53.662  1.00  0.00     0.202 A 
HETATM    8  N1  UNL     1      24.139  -0.886  54.696  1.00  0.00    -0.215 NA
HETATM    9  C7  UNL     1      23.303  -1.608  55.469  1.00  0.00     0.238 A 
HETATM   10  N2  UNL     1      21.967  -1.616  55.255  1.00  0.00    -0.222 NA
HETATM   11  C8  UNL     1      21.426  -0.886  54.239  1.00  0.00     0.160 A 
HETATM   12  C16 UNL     1      22.298  -0.144  53.444  1.00  0.00     0.129 A 
HETATM   13  N4  UNL     1      21.585   0.559  52.435  1.00  0.00    -0.379 N 
HETATM   14  C17 UNL     1      21.900   1.809  51.784  1.00  0.00     0.161 C 
HETATM   15  C18 UNL     1      23.309   1.957  51.394  1.00  0.00    -0.008 C 
HETATM   16  C19 UNL     1      23.284   2.679  50.284  1.00  0.00     0.020 C 
HETATM   17  H14 UNL     1      20.697   0.048  52.152  1.00  0.00     0.160 HD
ENDROOT
BRANCH  11  18
HETATM   18  N3  UNL     1      20.024  -0.876  53.990  1.00  0.00    -0.348 N 
HETATM   19  H7  UNL     1      19.799   0.132  53.831  1.00  0.00     0.167 HD
BRANCH  18  20
HETATM   20  C9  UNL     1      19.219  -2.023  53.983  1.00  0.00     0.101 C 
HETATM   21  C10 UNL     1      18.039  -2.040  53.405  1.00  0.00    -0.020 A 
HETATM   22  C11 UNL     1      17.277  -3.286  53.453  1.00  0.00     0.009 A 
HETATM   23  C15 UNL     1      17.556  -0.829  52.752  1.00  0.00     0.032 A 
HETATM   24  C12 UNL     1      16.097  -3.240  52.853  1.00  0.00    -0.020 A 
HETATM   25  C13 UNL     1      15.438  -2.114  52.142  1.00  0.00     0.078 A 
HETATM   26  C14 UNL     1      16.359  -0.952  52.200  1.00  0.00     0.016 A 
HETATM   27 CL1  UNL     1      15.582   0.391  51.356  1.00  0.00    -0.089 Cl
ENDBRANCH  18  20
ENDBRANCH  11  18
BRANCH   1  28
HETATM   28  O1  UNL     1      23.811   4.526  48.953  1.00  0.00    -0.388 OA
HETATM   29  H1  UNL     1      24.497   4.878  48.326  1.00  0.00     0.210 HD
ENDBRANCH   1  28
TORSDOF 3
ENDMDL
MODEL 7
REMARK VINA RESULT:      -8.6      4.594      6.307
REMARK  3 active torsions:
REMARK  status: ('A' for Active; 'I' for Inactive)
REMARK    1  A    between atoms: O1_1  and  C1_2 
REMARK    2  A    between atoms: C8_12  and  N3_13 
REMARK    3  A    between atoms: N3_13  and  C9_14 
ROOT
HETATM    1  C1  UNL     1      25.886   6.959  48.702  1.00  0.00     0.164 C 
HETATM    2  C2  UNL     1      24.771   7.088  47.729  1.00  0.00     0.008 C 
HETATM    3  C3  UNL     1      23.620   6.489  47.494  1.00  0.00     0.002 C 
HETATM    4  C4  UNL     1      23.090   5.367  48.279  1.00  0.00     0.038 C 
HETATM    5  C5  UNL     1      23.729   4.615  49.176  1.00  0.00     0.085 C 
HETATM    6  O2  UNL     1      22.720   3.742  49.564  1.00  0.00    -0.289 OA
HETATM    7  C6  UNL     1      22.839   2.694  50.474  1.00  0.00     0.202 A 
HETATM    8  N1  UNL     1      21.712   1.932  50.520  1.00  0.00    -0.215 NA
HETATM    9  C7  UNL     1      21.623   0.865  51.340  1.00  0.00     0.238 A 
HETATM   10  N2  UNL     1      22.647   0.506  52.149  1.00  0.00    -0.222 NA
HETATM   11  C8  UNL     1      23.807   1.221  52.155  1.00  0.00     0.160 A 
HETATM   12  C16 UNL     1      23.888   2.323  51.304  1.00  0.00     0.129 A 
HETATM   13  N4  UNL     1      25.153   2.961  51.426  1.00  0.00    -0.379 N 
HETATM   14  C17 UNL     1      25.905   3.712  50.448  1.00  0.00     0.161 C 
HETATM   15  C18 UNL     1      25.105   4.654  49.654  1.00  0.00    -0.008 C 
HETATM   16  C19 UNL     1      25.918   5.669  49.405  1.00  0.00     0.020 C 
HETATM   17  H14 UNL     1      25.563   2.838  52.398  1.00  0.00     0.160 HD
ENDROOT
BRANCH  11  18
HETATM   18  N3  UNL     1      24.899   0.866  52.996  1.00  0.00    -0.348 N 
HETATM   19  H7  UNL     1      24.934   1.630  53.708  1.00  0.00     0.167 HD
BRANCH  18  20
HETATM   20  C9  UNL     1      25.688  -0.279  52.818  1.00  0.00     0.101 C 
HETATM   21  C10 UNL     1      26.962  -0.300  53.138  1.00  0.00    -0.020 A 
HETATM   22  C11 UNL     1      27.698  -1.543  52.914  1.00  0.00     0.009 A 
HETATM   23  C15 UNL     1      27.571   0.903  53.695  1.00  0.00     0.032 A 
HETATM   24  C12 UNL     1      28.977  -1.502  53.257  1.00  0.00    -0.020 A 
HETATM   25  C13 UNL     1      29.769  -0.385  53.832  1.00  0.00     0.078 A 
HETATM   26  C14 UNL     1      28.856   0.775  53.984  1.00  0.00     0.016 A 
HETATM   27 CL1  UNL     1      29.793   2.108  54.668  1.00  0.00    -0.089 Cl
ENDBRANCH  18  20
ENDBRANCH  11  18
BRANCH   1  28
HETATM   28  O1  UNL     1      27.100   7.140  48.027  1.00  0.00    -0.388 OA
HETATM   29  H1  UNL     1      27.209   8.121  47.910  1.00  0.00     0.210 HD
ENDBRANCH   1  28
TORSDOF 3
ENDMDL
MODEL 8
REMARK VINA RESULT:      -8.5      4.578      8.140
REMARK  3 active torsions:
REMARK  status: ('A' for Active; 'I' for Inactive)
REMARK    1  A    between atoms: O1_1  and  C1_2 
REMARK    2  A    between atoms: C8_12  and  N3_13 
REMARK    3  A    between atoms: N3_13  and  C9_14 
ROOT
HETATM    1  C1  UNL     1      28.395   1.761  53.303  1.00  0.00     0.164 C 
HETATM    2  C2  UNL     1      28.532   0.309  53.587  1.00  0.00     0.008 C 
HETATM    3  C3  UNL     1      27.745  -0.749  53.616  1.00  0.00     0.002 C 
HETATM    4  C4  UNL     1      26.307  -0.723  53.322  1.00  0.00     0.038 C 
HETATM    5  C5  UNL     1      25.507   0.338  53.211  1.00  0.00     0.085 C 
HETATM    6  O2  UNL     1      24.289  -0.269  52.930  1.00  0.00    -0.289 OA
HETATM    7  C6  UNL     1      23.067   0.375  52.750  1.00  0.00     0.202 A 
HETATM    8  N1  UNL     1      22.039  -0.511  52.642  1.00  0.00    -0.215 NA
HETATM    9  C7  UNL     1      20.770  -0.090  52.463  1.00  0.00     0.238 A 
HETATM   10  N2  UNL     1      20.465   1.226  52.383  1.00  0.00    -0.222 NA
HETATM   11  C8  UNL     1      21.443   2.170  52.484  1.00  0.00     0.160 A 
HETATM   12  C16 UNL     1      22.751   1.724  52.669  1.00  0.00     0.129 A 
HETATM   13  N4  UNL     1      23.650   2.823  52.755  1.00  0.00    -0.379 N 
HETATM   14  C17 UNL     1      24.903   2.935  53.463  1.00  0.00     0.161 C 
HETATM   15  C18 UNL     1      25.782   1.763  53.341  1.00  0.00    -0.008 C 
HETATM   16  C19 UNL     1      27.012   2.253  53.369  1.00  0.00     0.020 C 
HETATM   17  H14 UNL     1      23.303   3.659  52.199  1.00  0.00     0.160 HD
ENDROOT
BRANCH  11  18
HETATM   18  N3  UNL     1      21.150   3.561  52.404  1.00  0.00    -0.348 N 
HETATM   19  H7  UNL     1      21.598   3.966  53.257  1.00  0.00     0.167 HD
BRANCH  18  20
HETATM   20  C9  UNL     1      20.416   4.151  51.367  1.00  0.00     0.101 C 
HETATM   21  C10 UNL     1      20.812   5.258  50.779  1.00  0.00    -0.020 A 
HETATM   22  C11 UNL     1      19.976   5.794  49.707  1.00  0.00     0.009 A 
HETATM   23  C15 UNL     1      22.051   5.888  51.220  1.00  0.00     0.032 A 
HETATM   24  C12 UNL     1      20.427   6.910  49.154  1.00  0.00    -0.020 A 
HETATM   25  C13 UNL     1      21.652   7.692  49.461  1.00  0.00     0.078 A 
HETATM   26  C14 UNL     1      22.359   6.994  50.564  1.00  0.00     0.016 A 
HETATM   27 CL1  UNL     1      23.817   7.920  50.934  1.00  0.00    -0.089 Cl
ENDBRANCH  18  20
ENDBRANCH  11  18
BRANCH   1  28
HETATM   28  O1  UNL     1      29.177   2.477  54.219  1.00  0.00    -0.388 OA
HETATM   29  H1  UNL     1      30.096   2.105  54.150  1.00  0.00     0.210 HD
ENDBRANCH   1  28
TORSDOF 3
ENDMDL
MODEL 9
REMARK VINA RESULT:      -8.5      5.907      8.205
REMARK  3 active torsions:
REMARK  status: ('A' for Active; 'I' for Inactive)
REMARK    1  A    between atoms: O1_1  and  C1_2 
REMARK    2  A    between atoms: C8_12  and  N3_13 
REMARK    3  A    between atoms: N3_13  and  C9_14 
ROOT
HETATM    1  C1  UNL     1      28.648   7.423  47.501  1.00  0.00     0.164 C 
HETATM    2  C2  UNL     1      27.592   8.167  46.766  1.00  0.00     0.008 C 
HETATM    3  C3  UNL     1      26.276   8.241  46.778  1.00  0.00     0.002 C 
HETATM    4  C4  UNL     1      25.408   7.472  47.679  1.00  0.00     0.038 C 
HETATM    5  C5  UNL     1      25.733   6.432  48.448  1.00  0.00     0.085 C 
HETATM    6  O2  UNL     1      24.513   6.148  49.049  1.00  0.00    -0.289 OA
HETATM    7  C6  UNL     1      24.253   5.110  49.941  1.00  0.00     0.202 A 
HETATM    8  N1  UNL     1      22.926   5.009  50.228  1.00  0.00    -0.215 NA
HETATM    9  C7  UNL     1      22.464   4.065  51.073  1.00  0.00     0.238 A 
HETATM   10  N2  UNL     1      23.296   3.180  51.671  1.00  0.00    -0.222 NA
HETATM   11  C8  UNL     1      24.638   3.221  51.430  1.00  0.00     0.160 A 
HETATM   12  C16 UNL     1      25.104   4.201  50.554  1.00  0.00     0.129 A 
HETATM   13  N4  UNL     1      26.516   4.114  50.408  1.00  0.00    -0.379 N 
HETATM   14  C17 UNL     1      27.350   4.467  49.283  1.00  0.00     0.161 C 
HETATM   15  C18 UNL     1      27.002   5.743  48.642  1.00  0.00    -0.008 C 
HETATM   16  C19 UNL     1      28.154   6.236  48.213  1.00  0.00     0.020 C 
HETATM   17  H14 UNL     1      26.979   3.725  51.281  1.00  0.00     0.160 HD
ENDROOT
BRANCH  11  18
HETATM   18  N3  UNL     1      25.535   2.304  52.044  1.00  0.00    -0.348 N 
HETATM   19  H7  UNL     1      26.264   2.912  52.481  1.00  0.00     0.167 HD
BRANCH  18  20
HETATM   20  C9  UNL     1      25.381   0.911  52.011  1.00  0.00     0.101 C 
HETATM   21  C10 UNL     1      26.348   0.097  52.370  1.00  0.00    -0.020 A 
HETATM   22  C11 UNL     1      26.088  -1.339  52.298  1.00  0.00     0.009 A 
HETATM   23  C15 UNL     1      27.616   0.661  52.818  1.00  0.00     0.032 A 
HETATM   24  C12 UNL     1      27.099  -2.107  52.674  1.00  0.00    -0.020 A 
HETATM   25  C13 UNL     1      28.452  -1.726  53.155  1.00  0.00     0.078 A 
HETATM   26  C14 UNL     1      28.521  -0.243  53.157  1.00  0.00     0.016 A 
HETATM   27 CL1  UNL     1      30.128   0.217  53.728  1.00  0.00    -0.089 Cl
ENDBRANCH  18  20
ENDBRANCH  11  18
BRANCH   1  28
HETATM   28  O1  UNL     1      29.641   7.030  46.594  1.00  0.00    -0.388 OA
HETATM   29  H1  UNL     1      29.233   6.324  46.025  1.00  0.00     0.210 HD
ENDBRANCH   1  28
TORSDOF 3
ENDMDL
