MODEL 1
REMARK VINA RESULT:      -7.9      0.000      0.000
REMARK  5 active torsions:
REMARK  status: ('A' for Active; 'I' for Inactive)
REMARK    1  A    between atoms: C4_4  and  C5_5 
REMARK    2  A    between atoms: C6_6  and  N1_7 
REMARK       I    between atoms: N1_7  and  C7_8 
REMARK    3  A    between atoms: C7_8  and  C8_10 
REMARK    4  A    between atoms: C10_12  and  N2_13 
REMARK    5  A    between atoms: C13_17  and  C14_18 
ROOT
HETATM    1  C1  UNL     1      26.785   2.795  49.371  1.00  0.00     0.024 C 
HETATM    2  C2  UNL     1      26.454   4.065  49.380  1.00  0.00    -0.033 A 
HETATM    3  C3  UNL     1      27.410   4.962  48.747  1.00  0.00     0.021 A 
HETATM    4  C4  UNL     1      27.106   6.249  48.750  1.00  0.00    -0.018 A 
HETATM    5  C10 UNL     1      25.891   6.865  49.335  1.00  0.00     0.295 A 
HETATM    6  C11 UNL     1      25.035   5.823  49.929  1.00  0.00     0.071 A 
HETATM    7  C12 UNL     1      23.793   6.337  50.486  1.00  0.00     0.098 C 
HETATM    8  N3  UNL     1      22.787   6.733  50.930  1.00  0.00    -0.192 NA
HETATM    9  C13 UNL     1      25.193   4.517  50.008  1.00  0.00     0.003 A 
ENDROOT
BRANCH   5  10
HETATM   10  N2  UNL     1      26.389   7.719  50.426  1.00  0.00     0.092 N 
HETATM   11  H13 UNL     1      25.645   8.304  50.826  1.00  0.00     0.314 HD
HETATM   12  H14 UNL     1      26.768   7.081  51.177  1.00  0.00     0.314 HD
ENDBRANCH   5  10
BRANCH   9  13
HETATM   13  C14 UNL     1      24.367   3.529  50.634  1.00  0.00    -0.017 A 
HETATM   14  C15 UNL     1      24.584   3.347  52.005  1.00  0.00     0.013 A 
HETATM   15  C16 UNL     1      23.866   2.456  52.787  1.00  0.00     0.002 A 
HETATM   16  C17 UNL     1      22.889   1.731  52.128  1.00  0.00     0.019 A 
HETATM   17  C18 UNL     1      22.622   1.856  50.787  1.00  0.00     0.017 A 
HETATM   18 BR1  UNL     1      21.268   0.836  49.922  1.00  0.00    -0.051 Br
HETATM   19  C19 UNL     1      23.375   2.766  50.060  1.00  0.00    -0.034 A 
HETATM   20  C20 UNL     1      23.061   2.928  48.624  1.00  0.00     0.050 C 
ENDBRANCH   9  13
BRANCH   4  21
HETATM   21  C5  UNL     1      28.055   7.185  48.116  1.00  0.00     0.026 C 
HETATM   22  C6  UNL     1      29.362   7.225  48.362  1.00  0.00     0.091 C 
BRANCH  22  23
HETATM   23  N1  UNL     1      30.303   8.090  47.788  1.00  0.00    -0.337 N 
HETATM   24  C7  UNL     1      30.991   9.160  48.409  1.00  0.00     0.221 C 
HETATM   25  O1  UNL     1      30.770   9.417  49.635  1.00  0.00    -0.273 OA
HETATM   26  H6  UNL     1      30.389   7.769  46.789  1.00  0.00     0.168 HD
BRANCH  24  27
HETATM   27  C8  UNL     1      31.928   9.868  47.477  1.00  0.00     0.098 C 
HETATM   28  C9  UNL     1      31.817  11.361  47.620  1.00  0.00     0.014 C 
ENDBRANCH  24  27
ENDBRANCH  22  23
ENDBRANCH   4  21
TORSDOF 5
ENDMDL
MODEL 2
REMARK VINA RESULT:      -7.9      6.779      8.020
REMARK  5 active torsions:
REMARK  status: ('A' for Active; 'I' for Inactive)
REMARK    1  A    between atoms: C4_4  and  C5_5 
REMARK    2  A    between atoms: C6_6  and  N1_7 
REMARK       I    between atoms: N1_7  and  C7_8 
REMARK    3  A    between atoms: C7_8  and  C8_10 
REMARK    4  A    between atoms: C10_12  and  N2_13 
REMARK    5  A    between atoms: C13_17  and  C14_18 
ROOT
HETATM    1  C1  UNL     1      20.545   0.447  54.124  1.00  0.00     0.024 C 
HETATM    2  C2  UNL     1      21.410   0.684  53.166  1.00  0.00    -0.033 A 
HETATM    3  C3  UNL     1      22.811   0.577  53.551  1.00  0.00     0.021 A 
HETATM    4  C4  UNL     1      23.704   0.819  52.607  1.00  0.00    -0.018 A 
HETATM    5  C10 UNL     1      23.419   1.189  51.200  1.00  0.00     0.295 A 
HETATM    6  C11 UNL     1      21.963   1.250  50.980  1.00  0.00     0.071 A 
HETATM    7  C12 UNL     1      21.594   1.562  49.607  1.00  0.00     0.098 C 
HETATM    8  N3  UNL     1      21.281   1.803  48.508  1.00  0.00    -0.192 NA
HETATM    9  C13 UNL     1      20.957   1.040  51.804  1.00  0.00     0.003 A 
ENDROOT
BRANCH   5  10
HETATM   10  N2  UNL     1      23.958   2.551  51.052  1.00  0.00     0.092 N 
HETATM   11  H13 UNL     1      23.247   3.269  51.242  1.00  0.00     0.314 HD
HETATM   12  H14 UNL     1      24.747   2.655  51.745  1.00  0.00     0.314 HD
ENDBRANCH   5  10
BRANCH   9  13
HETATM   13  C14 UNL     1      19.547   1.153  51.577  1.00  0.00    -0.017 A 
HETATM   14  C15 UNL     1      18.875  -0.057  51.366  1.00  0.00     0.013 A 
HETATM   15  C16 UNL     1      17.509  -0.153  51.156  1.00  0.00     0.002 A 
HETATM   16  C17 UNL     1      16.814   1.044  51.166  1.00  0.00     0.019 A 
HETATM   17  C18 UNL     1      17.405   2.266  51.367  1.00  0.00     0.017 A 
HETATM   18 BR1  UNL     1      16.410   3.888  51.373  1.00  0.00    -0.051 Br
HETATM   19  C19 UNL     1      18.777   2.295  51.572  1.00  0.00    -0.034 A 
HETATM   20  C20 UNL     1      19.408   3.608  51.826  1.00  0.00     0.050 C 
ENDBRANCH   9  13
BRANCH   4  21
HETATM   21  C5  UNL     1      25.132   0.719  52.965  1.00  0.00     0.026 C 
HETATM   22  C6  UNL     1      25.995  -0.137  52.424  1.00  0.00     0.091 C 
BRANCH  22  23
HETATM   23  N1  UNL     1      27.356  -0.271  52.727  1.00  0.00    -0.337 N 
HETATM   24  C7  UNL     1      28.057  -1.451  53.074  1.00  0.00     0.221 C 
HETATM   25  O1  UNL     1      27.429  -2.555  53.136  1.00  0.00    -0.273 OA
HETATM   26  H6  UNL     1      27.746   0.703  52.640  1.00  0.00     0.168 HD
BRANCH  24  27
HETATM   27  C8  UNL     1      29.514  -1.207  53.332  1.00  0.00     0.098 C 
HETATM   28  C9  UNL     1      29.768   0.222  53.723  1.00  0.00     0.014 C 
ENDBRANCH  24  27
ENDBRANCH  22  23
ENDBRANCH   4  21
TORSDOF 5
ENDMDL
MODEL 3
REMARK VINA RESULT:      -7.6      2.515      2.697
REMARK  5 active torsions:
REMARK  status: ('A' for Active; 'I' for Inactive)
REMARK    1  A    between atoms: C4_4  and  C5_5 
REMARK    2  A    between atoms: C6_6  and  N1_7 
REMARK       I    between atoms: N1_7  and  C7_8 
REMARK    3  A    between atoms: C7_8  and  C8_10 
REMARK    4  A    between atoms: C10_12  and  N2_13 
REMARK    5  A    between atoms: C13_17  and  C14_18 
ROOT
HETATM    1  C1  UNL     1      25.899   3.160  49.640  1.00  0.00     0.024 C 
HETATM    2  C2  UNL     1      26.162   4.407  49.326  1.00  0.00    -0.033 A 
HETATM    3  C3  UNL     1      27.494   4.646  48.790  1.00  0.00     0.021 A 
HETATM    4  C4  UNL     1      27.789   5.895  48.473  1.00  0.00    -0.018 A 
HETATM    5  C10 UNL     1      26.899   7.072  48.613  1.00  0.00     0.295 A 
HETATM    6  C11 UNL     1      25.597   6.656  49.164  1.00  0.00     0.071 A 
HETATM    7  C12 UNL     1      24.642   7.747  49.290  1.00  0.00     0.098 C 
HETATM    8  N3  UNL     1      23.861   8.610  49.390  1.00  0.00    -0.192 NA
HETATM    9  C13 UNL     1      25.153   5.470  49.527  1.00  0.00     0.003 A 
ENDROOT
BRANCH   5  10
HETATM   10  N2  UNL     1      27.560   7.930  49.610  1.00  0.00     0.092 N 
HETATM   11  H13 UNL     1      28.584   7.896  49.528  1.00  0.00     0.314 HD
HETATM   12  H14 UNL     1      27.233   8.919  49.441  1.00  0.00     0.314 HD
ENDBRANCH   5  10
BRANCH   9  13
HETATM   13  C14 UNL     1      23.897   5.098  50.106  1.00  0.00    -0.017 A 
HETATM   14  C15 UNL     1      23.837   5.164  51.503  1.00  0.00     0.013 A 
HETATM   15  C16 UNL     1      22.703   4.868  52.241  1.00  0.00     0.002 A 
HETATM   16  C17 UNL     1      21.591   4.492  51.508  1.00  0.00     0.019 A 
HETATM   17  C18 UNL     1      21.575   4.405  50.138  1.00  0.00     0.017 A 
HETATM   18 BR1  UNL     1      20.022   3.884  49.170  1.00  0.00    -0.051 Br
HETATM   19  C19 UNL     1      22.744   4.716  49.457  1.00  0.00    -0.034 A 
HETATM   20  C20 UNL     1      22.716   4.658  47.980  1.00  0.00     0.050 C 
ENDBRANCH   9  13
BRANCH   4  21
HETATM   21  C5  UNL     1      29.132   6.171  47.927  1.00  0.00     0.026 C 
HETATM   22  C6  UNL     1      30.276   5.795  48.492  1.00  0.00     0.091 C 
BRANCH  22  23
HETATM   23  N1  UNL     1      31.572   6.029  48.016  1.00  0.00    -0.337 N 
HETATM   24  C7  UNL     1      32.621   5.092  47.855  1.00  0.00     0.221 C 
HETATM   25  O1  UNL     1      32.423   3.875  48.162  1.00  0.00    -0.273 OA
HETATM   26  H6  UNL     1      31.597   7.060  47.803  1.00  0.00     0.168 HD
BRANCH  24  27
HETATM   27  C8  UNL     1      33.876   5.712  47.316  1.00  0.00     0.098 C 
HETATM   28  C9  UNL     1      34.070   7.104  47.848  1.00  0.00     0.014 C 
ENDBRANCH  24  27
ENDBRANCH  22  23
ENDBRANCH   4  21
TORSDOF 5
ENDMDL
MODEL 4
REMARK VINA RESULT:      -7.5      4.282      7.856
REMARK  5 active torsions:
REMARK  status: ('A' for Active; 'I' for Inactive)
REMARK    1  A    between atoms: C4_4  and  C5_5 
REMARK    2  A    between atoms: C6_6  and  N1_7 
REMARK       I    between atoms: N1_7  and  C7_8 
REMARK    3  A    between atoms: C7_8  and  C8_10 
REMARK    4  A    between atoms: C10_12  and  N2_13 
REMARK    5  A    between atoms: C13_17  and  C14_18 
ROOT
HETATM    1  C1  UNL     1      28.782   6.230  47.831  1.00  0.00     0.024 C 
HETATM    2  C2  UNL     1      27.650   5.947  48.432  1.00  0.00    -0.033 A 
HETATM    3  C3  UNL     1      27.545   4.594  48.958  1.00  0.00     0.021 A 
HETATM    4  C4  UNL     1      26.411   4.279  49.560  1.00  0.00    -0.018 A 
HETATM    5  C10 UNL     1      25.240   5.167  49.749  1.00  0.00     0.295 A 
HETATM    6  C11 UNL     1      25.512   6.492  49.165  1.00  0.00     0.071 A 
HETATM    7  C12 UNL     1      24.427   7.444  49.349  1.00  0.00     0.098 C 
HETATM    8  N3  UNL     1      23.569   8.224  49.496  1.00  0.00    -0.192 NA
HETATM    9  C13 UNL     1      26.575   6.957  48.539  1.00  0.00     0.003 A 
ENDROOT
BRANCH   5  10
HETATM   10  N2  UNL     1      24.160   4.540  48.969  1.00  0.00     0.092 N 
HETATM   11  H13 UNL     1      23.727   3.755  49.472  1.00  0.00     0.314 HD
HETATM   12  H14 UNL     1      23.430   5.281  48.791  1.00  0.00     0.314 HD
ENDBRANCH   5  10
BRANCH   9  13
HETATM   13  C14 UNL     1      26.797   8.237  47.937  1.00  0.00    -0.017 A 
HETATM   14  C15 UNL     1      26.353   8.364  46.616  1.00  0.00     0.013 A 
HETATM   15  C16 UNL     1      26.457   9.531  45.876  1.00  0.00     0.002 A 
HETATM   16  C17 UNL     1      27.039  10.604  46.527  1.00  0.00     0.019 A 
HETATM   17  C18 UNL     1      27.498  10.553  47.819  1.00  0.00     0.017 A 
HETATM   18 BR1  UNL     1      28.293  12.056  48.675  1.00  0.00    -0.051 Br
HETATM   19  C19 UNL     1      27.364   9.355  48.506  1.00  0.00    -0.034 A 
HETATM   20  C20 UNL     1      27.823   9.313  49.912  1.00  0.00     0.050 C 
ENDBRANCH   9  13
BRANCH   4  21
HETATM   21  C5  UNL     1      26.273   2.914  50.104  1.00  0.00     0.026 C 
HETATM   22  C6  UNL     1      26.377   2.593  51.390  1.00  0.00     0.091 C 
BRANCH  22  23
HETATM   23  N1  UNL     1      26.254   1.317  51.956  1.00  0.00    -0.337 N 
HETATM   24  C7  UNL     1      26.442   0.945  53.309  1.00  0.00     0.221 C 
HETATM   25  O1  UNL     1      26.763   1.831  54.162  1.00  0.00    -0.273 OA
HETATM   26  H6  UNL     1      25.989   0.692  51.152  1.00  0.00     0.168 HD
BRANCH  24  27
HETATM   27  C8  UNL     1      26.222  -0.519  53.545  1.00  0.00     0.098 C 
HETATM   28  C9  UNL     1      27.151  -1.354  52.707  1.00  0.00     0.014 C 
ENDBRANCH  24  27
ENDBRANCH  22  23
ENDBRANCH   4  21
TORSDOF 5
ENDMDL
MODEL 5
REMARK VINA RESULT:      -7.4      3.888      8.347
REMARK  5 active torsions:
REMARK  status: ('A' for Active; 'I' for Inactive)
REMARK    1  A    between atoms: C4_4  and  C5_5 
REMARK    2  A    between atoms: C6_6  and  N1_7 
REMARK       I    between atoms: N1_7  and  C7_8 
REMARK    3  A    between atoms: C7_8  and  C8_10 
REMARK    4  A    between atoms: C10_12  and  N2_13 
REMARK    5  A    between atoms: C13_17  and  C14_18 
ROOT
HETATM    1  C1  UNL     1      29.685   5.481  47.879  1.00  0.00     0.024 C 
HETATM    2  C2  UNL     1      28.515   5.844  48.352  1.00  0.00    -0.033 A 
HETATM    3  C3  UNL     1      27.614   4.752  48.692  1.00  0.00     0.021 A 
HETATM    4  C4  UNL     1      26.426   5.090  49.163  1.00  0.00    -0.018 A 
HETATM    5  C10 UNL     1      25.923   6.468  49.375  1.00  0.00     0.295 A 
HETATM    6  C11 UNL     1      26.954   7.446  48.985  1.00  0.00     0.071 A 
HETATM    7  C12 UNL     1      26.559   8.829  49.208  1.00  0.00     0.098 C 
HETATM    8  N3  UNL     1      26.260   9.944  49.388  1.00  0.00    -0.192 NA
HETATM    9  C13 UNL     1      28.169   7.274  48.506  1.00  0.00     0.003 A 
ENDROOT
BRANCH   5  10
HETATM   10  N2  UNL     1      24.792   6.605  48.442  1.00  0.00     0.092 N 
HETATM   11  H13 UNL     1      23.888   6.463  48.909  1.00  0.00     0.314 HD
HETATM   12  H14 UNL     1      24.827   7.584  48.047  1.00  0.00     0.314 HD
ENDBRANCH   5  10
BRANCH   9  13
HETATM   13  C14 UNL     1      29.137   8.244  48.089  1.00  0.00    -0.017 A 
HETATM   14  C15 UNL     1      30.025   8.672  49.084  1.00  0.00     0.013 A 
HETATM   15  C16 UNL     1      31.044   9.585  48.867  1.00  0.00     0.002 A 
HETATM   16  C17 UNL     1      31.150  10.070  47.576  1.00  0.00     0.019 A 
HETATM   17  C18 UNL     1      30.316   9.697  46.551  1.00  0.00     0.017 A 
HETATM   18 BR1  UNL     1      30.499  10.393  44.789  1.00  0.00    -0.051 Br
HETATM   19  C19 UNL     1      29.316   8.779  46.833  1.00  0.00    -0.034 A 
HETATM   20  C20 UNL     1      28.442   8.349  45.720  1.00  0.00     0.050 C 
ENDBRANCH   9  13
BRANCH   4  21
HETATM   21  C5  UNL     1      25.489   4.006  49.516  1.00  0.00     0.026 C 
HETATM   22  C6  UNL     1      25.391   3.447  50.719  1.00  0.00     0.091 C 
BRANCH  22  23
HETATM   23  N1  UNL     1      24.521   2.419  51.106  1.00  0.00    -0.337 N 
HETATM   24  C7  UNL     1      24.038   2.133  52.406  1.00  0.00     0.221 C 
HETATM   25  O1  UNL     1      24.403   2.861  53.382  1.00  0.00    -0.273 OA
HETATM   26  H6  UNL     1      24.303   1.903  50.215  1.00  0.00     0.168 HD
BRANCH  24  27
HETATM   27  C8  UNL     1      23.119   0.949  52.436  1.00  0.00     0.098 C 
HETATM   28  C9  UNL     1      23.682  -0.159  53.281  1.00  0.00     0.014 C 
ENDBRANCH  24  27
ENDBRANCH  22  23
ENDBRANCH   4  21
TORSDOF 5
ENDMDL
MODEL 6
REMARK VINA RESULT:      -7.4      7.490     10.287
REMARK  5 active torsions:
REMARK  status: ('A' for Active; 'I' for Inactive)
REMARK    1  A    between atoms: C4_4  and  C5_5 
REMARK    2  A    between atoms: C6_6  and  N1_7 
REMARK       I    between atoms: N1_7  and  C7_8 
REMARK    3  A    between atoms: C7_8  and  C8_10 
REMARK    4  A    between atoms: C10_12  and  N2_13 
REMARK    5  A    between atoms: C13_17  and  C14_18 
ROOT
HETATM    1  C1  UNL     1      23.541   1.509  50.857  1.00  0.00     0.024 C 
HETATM    2  C2  UNL     1      22.779   0.955  51.771  1.00  0.00    -0.033 A 
HETATM    3  C3  UNL     1      21.347   1.141  51.584  1.00  0.00     0.021 A 
HETATM    4  C4  UNL     1      20.556   0.601  52.495  1.00  0.00    -0.018 A 
HETATM    5  C10 UNL     1      20.984  -0.171  53.686  1.00  0.00     0.295 A 
HETATM    6  C11 UNL     1      22.454  -0.267  53.722  1.00  0.00     0.071 A 
HETATM    7  C12 UNL     1      22.959  -1.053  54.838  1.00  0.00     0.098 C 
HETATM    8  N3  UNL     1      23.381  -1.688  55.723  1.00  0.00    -0.192 NA
HETATM    9  C13 UNL     1      23.370   0.209  52.903  1.00  0.00     0.003 A 
ENDROOT
BRANCH   5  10
HETATM   10  N2  UNL     1      20.554   0.640  54.836  1.00  0.00     0.092 N 
HETATM   11  H13 UNL     1      20.254   0.057  55.628  1.00  0.00     0.314 HD
HETATM   12  H14 UNL     1      21.379   1.228  55.133  1.00  0.00     0.314 HD
ENDBRANCH   5  10
BRANCH   9  13
HETATM   13  C14 UNL     1      24.799   0.143  52.986  1.00  0.00    -0.017 A 
HETATM   14  C15 UNL     1      25.364  -1.088  52.633  1.00  0.00     0.013 A 
HETATM   15  C16 UNL     1      26.727  -1.337  52.626  1.00  0.00     0.002 A 
HETATM   16  C17 UNL     1      27.532  -0.274  52.996  1.00  0.00     0.019 A 
HETATM   17  C18 UNL     1      27.050   0.959  53.354  1.00  0.00     0.017 A 
HETATM   18 BR1  UNL     1      28.197   2.393  53.856  1.00  0.00    -0.051 Br
HETATM   19  C19 UNL     1      25.675   1.145  53.340  1.00  0.00    -0.034 A 
HETATM   20  C20 UNL     1      25.157   2.485  53.690  1.00  0.00     0.050 C 
ENDBRANCH   9  13
BRANCH   4  21
HETATM   21  C5  UNL     1      19.099   0.772  52.334  1.00  0.00     0.026 C 
HETATM   22  C6  UNL     1      18.520   1.721  51.603  1.00  0.00     0.091 C 
BRANCH  22  23
HETATM   23  N1  UNL     1      17.147   1.926  51.417  1.00  0.00    -0.337 N 
HETATM   24  C7  UNL     1      16.390   3.080  51.732  1.00  0.00     0.221 C 
HETATM   25  O1  UNL     1      16.971   4.086  52.248  1.00  0.00    -0.273 OA
HETATM   26  H6  UNL     1      16.798   1.029  50.990  1.00  0.00     0.168 HD
BRANCH  24  27
HETATM   27  C8  UNL     1      14.938   2.934  51.390  1.00  0.00     0.098 C 
HETATM   28  C9  UNL     1      14.503   1.496  51.452  1.00  0.00     0.014 C 
ENDBRANCH  24  27
ENDBRANCH  22  23
ENDBRANCH   4  21
TORSDOF 5
ENDMDL
MODEL 7
REMARK VINA RESULT:      -7.2      4.081      8.448
REMARK  5 active torsions:
REMARK  status: ('A' for Active; 'I' for Inactive)
REMARK    1  A    between atoms: C4_4  and  C5_5 
REMARK    2  A    between atoms: C6_6  and  N1_7 
REMARK       I    between atoms: N1_7  and  C7_8 
REMARK    3  A    between atoms: C7_8  and  C8_10 
REMARK    4  A    between atoms: C10_12  and  N2_13 
REMARK    5  A    between atoms: C13_17  and  C14_18 
ROOT
HETATM    1  C1  UNL     1      23.558   7.340  50.194  1.00  0.00     0.024 C 
HETATM    2  C2  UNL     1      24.300   6.270  50.024  1.00  0.00    -0.033 A 
HETATM    3  C3  UNL     1      23.693   5.017  50.450  1.00  0.00     0.021 A 
HETATM    4  C4  UNL     1      24.421   3.924  50.297  1.00  0.00    -0.018 A 
HETATM    5  C10 UNL     1      25.792   3.852  49.738  1.00  0.00     0.295 A 
HETATM    6  C11 UNL     1      26.252   5.199  49.356  1.00  0.00     0.071 A 
HETATM    7  C12 UNL     1      27.576   5.212  48.752  1.00  0.00     0.098 C 
HETATM    8  N3  UNL     1      28.634   5.240  48.257  1.00  0.00    -0.192 NA
HETATM    9  C13 UNL     1      25.657   6.371  49.443  1.00  0.00     0.003 A 
ENDROOT
BRANCH   5  10
HETATM   10  N2  UNL     1      26.631   3.385  50.854  1.00  0.00     0.092 N 
HETATM   11  H13 UNL     1      27.515   2.976  50.526  1.00  0.00     0.314 HD
HETATM   12  H14 UNL     1      26.842   4.223  51.461  1.00  0.00     0.314 HD
ENDBRANCH   5  10
BRANCH   9  13
HETATM   13  C14 UNL     1      26.145   7.675  49.109  1.00  0.00    -0.017 A 
HETATM   14  C15 UNL     1      26.907   8.303  50.101  1.00  0.00     0.013 A 
HETATM   15  C16 UNL     1      27.485   9.554  49.954  1.00  0.00     0.002 A 
HETATM   16  C17 UNL     1      27.268  10.175  48.736  1.00  0.00     0.019 A 
HETATM   17  C18 UNL     1      26.533   9.621  47.718  1.00  0.00     0.017 A 
HETATM   18 BR1  UNL     1      26.260  10.512  46.059  1.00  0.00    -0.051 Br
HETATM   19  C19 UNL     1      25.981   8.365  47.929  1.00  0.00    -0.034 A 
HETATM   20  C20 UNL     1      25.221   7.752  46.818  1.00  0.00     0.050 C 
ENDBRANCH   9  13
BRANCH   4  21
HETATM   21  C5  UNL     1      23.834   2.638  50.720  1.00  0.00     0.026 C 
HETATM   22  C6  UNL     1      23.162   2.444  51.852  1.00  0.00     0.091 C 
BRANCH  22  23
HETATM   23  N1  UNL     1      22.586   1.247  52.298  1.00  0.00    -0.337 N 
HETATM   24  C7  UNL     1      23.185   0.237  53.089  1.00  0.00     0.221 C 
HETATM   25  O1  UNL     1      24.389   0.375  53.472  1.00  0.00    -0.273 OA
HETATM   26  H6  UNL     1      21.606   1.263  51.915  1.00  0.00     0.168 HD
BRANCH  24  27
HETATM   27  C8  UNL     1      22.256  -0.906  53.372  1.00  0.00     0.098 C 
HETATM   28  C9  UNL     1      21.923  -0.991  54.835  1.00  0.00     0.014 C 
ENDBRANCH  24  27
ENDBRANCH  22  23
ENDBRANCH   4  21
TORSDOF 5
ENDMDL
MODEL 8
REMARK VINA RESULT:      -7.1      5.143      9.944
REMARK  5 active torsions:
REMARK  status: ('A' for Active; 'I' for Inactive)
REMARK    1  A    between atoms: C4_4  and  C5_5 
REMARK    2  A    between atoms: C6_6  and  N1_7 
REMARK       I    between atoms: N1_7  and  C7_8 
REMARK    3  A    between atoms: C7_8  and  C8_10 
REMARK    4  A    between atoms: C10_12  and  N2_13 
REMARK    5  A    between atoms: C13_17  and  C14_18 
ROOT
HETATM    1  C1  UNL     1      22.686   2.405  47.874  1.00  0.00     0.024 C 
HETATM    2  C2  UNL     1      22.415   2.385  49.158  1.00  0.00    -0.033 A 
HETATM    3  C3  UNL     1      21.487   1.346  49.582  1.00  0.00     0.021 A 
HETATM    4  C4  UNL     1      21.189   1.309  50.870  1.00  0.00    -0.018 A 
HETATM    5  C10 UNL     1      21.704   2.221  51.919  1.00  0.00     0.295 A 
HETATM    6  C11 UNL     1      22.627   3.204  51.323  1.00  0.00     0.071 A 
HETATM    7  C12 UNL     1      23.218   4.111  52.295  1.00  0.00     0.098 C 
HETATM    8  N3  UNL     1      23.708   4.842  53.064  1.00  0.00    -0.192 NA
HETATM    9  C13 UNL     1      23.021   3.372  50.077  1.00  0.00     0.003 A 
ENDROOT
BRANCH   5  10
HETATM   10  N2  UNL     1      20.519   2.947  52.404  1.00  0.00     0.092 N 
HETATM   11  H13 UNL     1      19.692   2.767  51.821  1.00  0.00     0.314 HD
HETATM   12  H14 UNL     1      20.327   2.614  53.388  1.00  0.00     0.314 HD
ENDBRANCH   5  10
BRANCH   9  13
HETATM   13  C14 UNL     1      23.884   4.368  49.515  1.00  0.00    -0.017 A 
HETATM   14  C15 UNL     1      23.251   5.548  49.106  1.00  0.00     0.013 A 
HETATM   15  C16 UNL     1      23.920   6.633  48.563  1.00  0.00     0.002 A 
HETATM   16  C17 UNL     1      25.291   6.492  48.441  1.00  0.00     0.019 A 
HETATM   17  C18 UNL     1      25.979   5.366  48.819  1.00  0.00     0.017 A 
HETATM   18 BR1  UNL     1      27.867   5.217  48.632  1.00  0.00    -0.051 Br
HETATM   19  C19 UNL     1      25.250   4.314  49.357  1.00  0.00    -0.034 A 
HETATM   20  C20 UNL     1      25.996   3.116  49.799  1.00  0.00     0.050 C 
ENDBRANCH   9  13
BRANCH   4  21
HETATM   21  C5  UNL     1      20.251   0.268  51.332  1.00  0.00     0.026 C 
HETATM   22  C6  UNL     1      18.936   0.287  51.136  1.00  0.00     0.091 C 
BRANCH  22  23
HETATM   23  N1  UNL     1      18.004  -0.673  51.552  1.00  0.00    -0.337 N 
HETATM   24  C7  UNL     1      17.807  -1.183  52.857  1.00  0.00     0.221 C 
HETATM   25  O1  UNL     1      18.531  -0.757  53.811  1.00  0.00    -0.273 OA
HETATM   26  H6  UNL     1      17.480  -0.934  50.677  1.00  0.00     0.168 HD
BRANCH  24  27
HETATM   27  C8  UNL     1      16.712  -2.205  52.922  1.00  0.00     0.098 C 
HETATM   28  C9  UNL     1      17.205  -3.499  53.507  1.00  0.00     0.014 C 
ENDBRANCH  24  27
ENDBRANCH  22  23
ENDBRANCH   4  21
TORSDOF 5
ENDMDL
MODEL 9
REMARK VINA RESULT:      -7.1      1.561      2.248
REMARK  5 active torsions:
REMARK  status: ('A' for Active; 'I' for Inactive)
REMARK    1  A    between atoms: C4_4  and  C5_5 
REMARK    2  A    between atoms: C6_6  and  N1_7 
REMARK       I    between atoms: N1_7  and  C7_8 
REMARK    3  A    between atoms: C7_8  and  C8_10 
REMARK    4  A    between atoms: C10_12  and  N2_13 
REMARK    5  A    between atoms: C13_17  and  C14_18 
ROOT
HETATM    1  C1  UNL     1      26.021   2.950  49.601  1.00  0.00     0.024 C 
HETATM    2  C2  UNL     1      25.467   4.120  49.815  1.00  0.00    -0.033 A 
HETATM    3  C3  UNL     1      26.321   5.271  49.554  1.00  0.00     0.021 A 
HETATM    4  C4  UNL     1      25.790   6.462  49.769  1.00  0.00    -0.018 A 
HETATM    5  C10 UNL     1      24.416   6.740  50.250  1.00  0.00     0.295 A 
HETATM    6  C11 UNL     1      23.691   5.474  50.460  1.00  0.00     0.071 A 
HETATM    7  C12 UNL     1      22.312   5.657  50.889  1.00  0.00     0.098 C 
HETATM    8  N3  UNL     1      21.200   5.786  51.225  1.00  0.00    -0.192 NA
HETATM    9  C13 UNL     1      24.072   4.224  50.295  1.00  0.00     0.003 A 
ENDROOT
BRANCH   5  10
HETATM   10  N2  UNL     1      24.597   7.382  51.563  1.00  0.00     0.092 N 
HETATM   11  H13 UNL     1      23.742   7.854  51.882  1.00  0.00     0.314 HD
HETATM   12  H14 UNL     1      24.850   6.623  52.252  1.00  0.00     0.314 HD
ENDBRANCH   5  10
BRANCH   9  13
HETATM   13  C14 UNL     1      23.362   3.006  50.552  1.00  0.00    -0.017 A 
HETATM   14  C15 UNL     1      22.618   2.508  49.477  1.00  0.00     0.013 A 
HETATM   15  C16 UNL     1      21.887   1.331  49.525  1.00  0.00     0.002 A 
HETATM   16  C17 UNL     1      21.929   0.648  50.727  1.00  0.00     0.019 A 
HETATM   17  C18 UNL     1      22.636   1.076  51.823  1.00  0.00     0.017 A 
HETATM   18 BR1  UNL     1      22.665   0.102  53.458  1.00  0.00    -0.051 Br
HETATM   19  C19 UNL     1      23.348   2.261  51.710  1.00  0.00    -0.034 A 
HETATM   20  C20 UNL     1      24.139   2.703  52.878  1.00  0.00     0.050 C 
ENDBRANCH   9  13
BRANCH   4  21
HETATM   21  C5  UNL     1      26.630   7.649  49.515  1.00  0.00     0.026 C 
HETATM   22  C6  UNL     1      27.295   7.883  48.387  1.00  0.00     0.091 C 
BRANCH  22  23
HETATM   23  N1  UNL     1      28.102   8.990  48.096  1.00  0.00    -0.337 N 
HETATM   24  C7  UNL     1      29.442   9.217  48.493  1.00  0.00     0.221 C 
HETATM   25  O1  UNL     1      30.039   8.347  49.201  1.00  0.00    -0.273 OA
HETATM   26  H6  UNL     1      27.492   9.621  47.514  1.00  0.00     0.168 HD
BRANCH  24  27
HETATM   27  C8  UNL     1      29.985  10.522  47.991  1.00  0.00     0.098 C 
HETATM   28  C9  UNL     1      29.203  11.019  46.807  1.00  0.00     0.014 C 
ENDBRANCH  24  27
ENDBRANCH  22  23
ENDBRANCH   4  21
TORSDOF 5
ENDMDL
