MODEL 1
REMARK VINA RESULT:      -8.1      0.000      0.000
REMARK  7 active torsions:
REMARK  status: ('A' for Active; 'I' for Inactive)
REMARK    1  A    between atoms: C1_2  and  C2_3 
REMARK    2  A    between atoms: C2_3  and  C3_4 
REMARK    3  A    between atoms: C3_4  and  C4_5 
REMARK    4  A    between atoms: C4_5  and  C5_6 
REMARK    5  A    between atoms: C5_6  and  N1_7 
REMARK    6  A    between atoms: N1_7  and  C6_8 
REMARK    7  A    between atoms: C11_15  and  C12_16 
ROOT
HETATM    1  C6  UNL     1      20.202   0.334  51.146  1.00  0.00     0.137 A 
HETATM    2  N2  UNL     1      18.881   0.128  51.254  1.00  0.00    -0.224 NA
HETATM    3  C7  UNL     1      18.385  -0.382  52.381  1.00  0.00     0.235 A 
HETATM    4  N3  UNL     1      19.187  -0.689  53.404  1.00  0.00    -0.241 NA
HETATM    5  C8  UNL     1      20.498  -0.525  53.400  1.00  0.00     0.072 A 
HETATM    6  C9  UNL     1      21.221  -0.882  54.516  1.00  0.00     0.033 A 
HETATM    7  C10 UNL     1      22.566  -0.707  54.485  1.00  0.00     0.014 A 
HETATM    8  C11 UNL     1      23.166  -0.190  53.370  1.00  0.00    -0.025 A 
HETATM    9  C19 UNL     1      22.403   0.150  52.286  1.00  0.00     0.030 A 
HETATM   10  C20 UNL     1      21.015   0.005  52.227  1.00  0.00     0.039 A 
ENDROOT
BRANCH   8  11
HETATM   11  C12 UNL     1      24.603  -0.011  53.361  1.00  0.00    -0.023 A 
HETATM   12  C13 UNL     1      25.141   0.525  52.203  1.00  0.00     0.015 A 
HETATM   13  C14 UNL     1      26.505   0.768  52.029  1.00  0.00     0.040 A 
HETATM   14  C15 UNL     1      27.339   0.455  53.066  1.00  0.00     0.105 A 
HETATM   15  C16 UNL     1      26.844  -0.076  54.226  1.00  0.00     0.105 A 
HETATM   16  O2  UNL     1      28.728   0.552  53.263  1.00  0.00    -0.323 OA
HETATM   17  C17 UNL     1      25.513  -0.308  54.383  1.00  0.00     0.052 A 
HETATM   18  O1  UNL     1      27.923  -0.294  55.104  1.00  0.00    -0.323 OA
HETATM   19  C18 UNL     1      28.991   0.545  54.667  1.00  0.00     0.352 C 
ENDBRANCH   8  11
BRANCH   1  20
HETATM   20  N1  UNL     1      20.967   0.859  50.080  1.00  0.00    -0.371 N 
HETATM   21  H6  UNL     1      20.670   1.884  50.207  1.00  0.00     0.161 HD
BRANCH  20  22
HETATM   22  C5  UNL     1      21.723   1.379  49.025  1.00  0.00     0.148 C 
BRANCH  22  23
HETATM   23  C4  UNL     1      22.713   2.445  49.346  1.00  0.00    -0.007 C 
BRANCH  23  24
HETATM   24  C3  UNL     1      22.912   3.214  50.402  1.00  0.00    -0.001 C 
BRANCH  24  25
HETATM   25  C2  UNL     1      24.065   3.810  51.065  1.00  0.00     0.024 C 
BRANCH  25  26
HETATM   26  C1  UNL     1      25.246   3.879  50.471  1.00  0.00     0.052 C 
HETATM   27  S1  UNL     1      26.384   4.385  49.419  1.00  0.00    -0.079 SA
ENDBRANCH  25  26
ENDBRANCH  24  25
ENDBRANCH  23  24
ENDBRANCH  22  23
ENDBRANCH  20  22
ENDBRANCH   1  20
TORSDOF 7
ENDMDL
MODEL 2
REMARK VINA RESULT:      -8.1      1.530      1.698
REMARK  7 active torsions:
REMARK  status: ('A' for Active; 'I' for Inactive)
REMARK    1  A    between atoms: C1_2  and  C2_3 
REMARK    2  A    between atoms: C2_3  and  C3_4 
REMARK    3  A    between atoms: C3_4  and  C4_5 
REMARK    4  A    between atoms: C4_5  and  C5_6 
REMARK    5  A    between atoms: C5_6  and  N1_7 
REMARK    6  A    between atoms: N1_7  and  C6_8 
REMARK    7  A    between atoms: C11_15  and  C12_16 
ROOT
HETATM    1  C6  UNL     1      20.135   0.277  51.158  1.00  0.00     0.137 A 
HETATM    2  N2  UNL     1      18.818   0.049  51.274  1.00  0.00    -0.224 NA
HETATM    3  C7  UNL     1      18.335  -0.454  52.410  1.00  0.00     0.235 A 
HETATM    4  N3  UNL     1      19.146  -0.732  53.434  1.00  0.00    -0.241 NA
HETATM    5  C8  UNL     1      20.454  -0.544  53.423  1.00  0.00     0.072 A 
HETATM    6  C9  UNL     1      21.187  -0.872  54.542  1.00  0.00     0.033 A 
HETATM    7  C10 UNL     1      22.529  -0.673  54.503  1.00  0.00     0.014 A 
HETATM    8  C11 UNL     1      23.115  -0.161  53.378  1.00  0.00    -0.025 A 
HETATM    9  C19 UNL     1      22.342   0.149  52.292  1.00  0.00     0.030 A 
HETATM   10  C20 UNL     1      20.958  -0.022  52.240  1.00  0.00     0.039 A 
ENDROOT
BRANCH   8  11
HETATM   11  C12 UNL     1      24.550   0.043  53.362  1.00  0.00    -0.023 A 
HETATM   12  C13 UNL     1      25.054   0.716  52.261  1.00  0.00     0.015 A 
HETATM   13  C14 UNL     1      26.410   1.002  52.089  1.00  0.00     0.040 A 
HETATM   14  C15 UNL     1      27.271   0.589  53.068  1.00  0.00     0.105 A 
HETATM   15  C16 UNL     1      26.809  -0.079  54.170  1.00  0.00     0.105 A 
HETATM   16  O2  UNL     1      28.662   0.688  53.247  1.00  0.00    -0.323 OA
HETATM   17  C17 UNL     1      25.486  -0.351  54.325  1.00  0.00     0.052 A 
HETATM   18  O1  UNL     1      27.909  -0.375  54.996  1.00  0.00    -0.323 OA
HETATM   19  C18 UNL     1      28.955   0.527  54.637  1.00  0.00     0.352 C 
ENDBRANCH   8  11
BRANCH   1  20
HETATM   20  N1  UNL     1      20.887   0.800  50.082  1.00  0.00    -0.371 N 
HETATM   21  H6  UNL     1      21.077  -0.139  49.595  1.00  0.00     0.161 HD
BRANCH  20  22
HETATM   22  C5  UNL     1      21.631   1.317  49.016  1.00  0.00     0.148 C 
BRANCH  22  23
HETATM   23  C4  UNL     1      22.500   2.496  49.288  1.00  0.00    -0.007 C 
BRANCH  23  24
HETATM   24  C3  UNL     1      22.916   3.082  50.398  1.00  0.00    -0.001 C 
BRANCH  24  25
HETATM   25  C2  UNL     1      22.286   3.684  51.567  1.00  0.00     0.024 C 
BRANCH  25  26
HETATM   26  C1  UNL     1      21.023   4.079  51.546  1.00  0.00     0.052 C 
HETATM   27  S1  UNL     1      19.416   3.999  51.283  1.00  0.00    -0.079 SA
ENDBRANCH  25  26
ENDBRANCH  24  25
ENDBRANCH  23  24
ENDBRANCH  22  23
ENDBRANCH  20  22
ENDBRANCH   1  20
TORSDOF 7
ENDMDL
MODEL 3
REMARK VINA RESULT:      -8.0      3.948      6.459
REMARK  7 active torsions:
REMARK  status: ('A' for Active; 'I' for Inactive)
REMARK    1  A    between atoms: C1_2  and  C2_3 
REMARK    2  A    between atoms: C2_3  and  C3_4 
REMARK    3  A    between atoms: C3_4  and  C4_5 
REMARK    4  A    between atoms: C4_5  and  C5_6 
REMARK    5  A    between atoms: C5_6  and  N1_7 
REMARK    6  A    between atoms: N1_7  and  C6_8 
REMARK    7  A    between atoms: C11_15  and  C12_16 
ROOT
HETATM    1  C6  UNL     1      27.365   2.129  52.657  1.00  0.00     0.137 A 
HETATM    2  N2  UNL     1      28.643   2.227  53.051  1.00  0.00    -0.224 NA
HETATM    3  C7  UNL     1      29.074   1.492  54.076  1.00  0.00     0.235 A 
HETATM    4  N3  UNL     1      28.248   0.659  54.715  1.00  0.00    -0.241 NA
HETATM    5  C8  UNL     1      26.974   0.489  54.407  1.00  0.00     0.072 A 
HETATM    6  C9  UNL     1      26.221  -0.399  55.142  1.00  0.00     0.033 A 
HETATM    7  C10 UNL     1      24.915  -0.553  54.808  1.00  0.00     0.014 A 
HETATM    8  C11 UNL     1      24.383   0.160  53.769  1.00  0.00    -0.025 A 
HETATM    9  C19 UNL     1      25.174   1.030  53.069  1.00  0.00     0.030 A 
HETATM   10  C20 UNL     1      26.525   1.254  53.341  1.00  0.00     0.039 A 
ENDROOT
BRANCH   8  11
HETATM   11  C12 UNL     1      22.986  -0.022  53.431  1.00  0.00    -0.023 A 
HETATM   12  C13 UNL     1      22.217  -0.693  54.367  1.00  0.00     0.015 A 
HETATM   13  C14 UNL     1      20.854  -0.948  54.203  1.00  0.00     0.040 A 
HETATM   14  C15 UNL     1      20.263  -0.505  53.052  1.00  0.00     0.105 A 
HETATM   15  C16 UNL     1      20.991   0.161  52.104  1.00  0.00     0.105 A 
HETATM   16  O2  UNL     1      18.955  -0.569  52.543  1.00  0.00    -0.323 OA
HETATM   17  C17 UNL     1      22.318   0.403  52.276  1.00  0.00     0.052 A 
HETATM   18  O1  UNL     1      20.129   0.491  51.041  1.00  0.00    -0.323 OA
HETATM   19  C18 UNL     1      18.798   0.454  51.558  1.00  0.00     0.352 C 
ENDBRANCH   8  11
BRANCH   1  20
HETATM   20  N1  UNL     1      26.671   2.783  51.614  1.00  0.00    -0.371 N 
HETATM   21  H6  UNL     1      27.355   2.522  50.828  1.00  0.00     0.161 HD
BRANCH  20  22
HETATM   22  C5  UNL     1      25.986   3.430  50.580  1.00  0.00     0.148 C 
BRANCH  22  23
HETATM   23  C4  UNL     1      26.714   3.647  49.300  1.00  0.00    -0.007 C 
BRANCH  23  24
HETATM   24  C3  UNL     1      27.429   4.650  48.818  1.00  0.00    -0.001 C 
BRANCH  24  25
HETATM   25  C2  UNL     1      27.180   6.042  48.462  1.00  0.00     0.024 C 
BRANCH  25  26
HETATM   26  C1  UNL     1      26.330   6.790  49.148  1.00  0.00     0.052 C 
HETATM   27  S1  UNL     1      25.348   7.230  50.372  1.00  0.00    -0.079 SA
ENDBRANCH  25  26
ENDBRANCH  24  25
ENDBRANCH  23  24
ENDBRANCH  22  23
ENDBRANCH  20  22
ENDBRANCH   1  20
TORSDOF 7
ENDMDL
MODEL 4
REMARK VINA RESULT:      -7.9      4.060      6.354
REMARK  7 active torsions:
REMARK  status: ('A' for Active; 'I' for Inactive)
REMARK    1  A    between atoms: C1_2  and  C2_3 
REMARK    2  A    between atoms: C2_3  and  C3_4 
REMARK    3  A    between atoms: C3_4  and  C4_5 
REMARK    4  A    between atoms: C4_5  and  C5_6 
REMARK    5  A    between atoms: C5_6  and  N1_7 
REMARK    6  A    between atoms: N1_7  and  C6_8 
REMARK    7  A    between atoms: C11_15  and  C12_16 
ROOT
HETATM    1  C6  UNL     1      27.311   2.104  52.521  1.00  0.00     0.137 A 
HETATM    2  N2  UNL     1      28.544   2.046  53.047  1.00  0.00    -0.224 NA
HETATM    3  C7  UNL     1      28.795   1.195  54.042  1.00  0.00     0.235 A 
HETATM    4  N3  UNL     1      27.834   0.400  54.520  1.00  0.00    -0.241 NA
HETATM    5  C8  UNL     1      26.591   0.380  54.074  1.00  0.00     0.072 A 
HETATM    6  C9  UNL     1      25.686  -0.485  54.650  1.00  0.00     0.033 A 
HETATM    7  C10 UNL     1      24.415  -0.484  54.175  1.00  0.00     0.014 A 
HETATM    8  C11 UNL     1      24.064   0.356  53.155  1.00  0.00    -0.025 A 
HETATM    9  C19 UNL     1      25.000   1.196  52.615  1.00  0.00     0.030 A 
HETATM   10  C20 UNL     1      26.328   1.265  53.038  1.00  0.00     0.039 A 
ENDROOT
BRANCH   8  11
HETATM   11  C12 UNL     1      22.700   0.338  52.665  1.00  0.00    -0.023 A 
HETATM   12  C13 UNL     1      22.520   0.757  51.357  1.00  0.00     0.015 A 
HETATM   13  C14 UNL     1      21.275   0.797  50.727  1.00  0.00     0.040 A 
HETATM   14  C15 UNL     1      20.187   0.396  51.452  1.00  0.00     0.105 A 
HETATM   15  C16 UNL     1      20.327  -0.025  52.747  1.00  0.00     0.105 A 
HETATM   16  O2  UNL     1      18.813   0.297  51.173  1.00  0.00    -0.323 OA
HETATM   17  C17 UNL     1      21.546  -0.059  53.349  1.00  0.00     0.052 A 
HETATM   18  O1  UNL     1      19.053  -0.372  53.235  1.00  0.00    -0.323 OA
HETATM   19  C18 UNL     1      18.224  -0.619  52.099  1.00  0.00     0.352 C 
ENDBRANCH   8  11
BRANCH   1  20
HETATM   20  N1  UNL     1      26.795   2.901  51.474  1.00  0.00    -0.371 N 
HETATM   21  H6  UNL     1      25.902   3.214  51.985  1.00  0.00     0.161 HD
BRANCH  20  22
HETATM   22  C5  UNL     1      26.282   3.690  50.439  1.00  0.00     0.148 C 
BRANCH  22  23
HETATM   23  C4  UNL     1      24.820   3.974  50.447  1.00  0.00    -0.007 C 
BRANCH  23  24
HETATM   24  C3  UNL     1      24.032   4.670  51.249  1.00  0.00    -0.001 C 
BRANCH  24  25
HETATM   25  C2  UNL     1      23.025   4.363  52.258  1.00  0.00     0.024 C 
BRANCH  25  26
HETATM   26  C1  UNL     1      21.738   4.306  51.955  1.00  0.00     0.052 C 
HETATM   27  S1  UNL     1      20.391   4.413  51.043  1.00  0.00    -0.079 SA
ENDBRANCH  25  26
ENDBRANCH  24  25
ENDBRANCH  23  24
ENDBRANCH  22  23
ENDBRANCH  20  22
ENDBRANCH   1  20
TORSDOF 7
ENDMDL
MODEL 5
REMARK VINA RESULT:      -7.8      1.929      2.559
REMARK  7 active torsions:
REMARK  status: ('A' for Active; 'I' for Inactive)
REMARK    1  A    between atoms: C1_2  and  C2_3 
REMARK    2  A    between atoms: C2_3  and  C3_4 
REMARK    3  A    between atoms: C3_4  and  C4_5 
REMARK    4  A    between atoms: C4_5  and  C5_6 
REMARK    5  A    between atoms: C5_6  and  N1_7 
REMARK    6  A    between atoms: N1_7  and  C6_8 
REMARK    7  A    between atoms: C11_15  and  C12_16 
ROOT
HETATM    1  C6  UNL     1      21.606   3.381  51.806  1.00  0.00     0.137 A 
HETATM    2  N2  UNL     1      20.267   3.424  51.736  1.00  0.00    -0.224 NA
HETATM    3  C7  UNL     1      19.553   2.375  52.145  1.00  0.00     0.235 A 
HETATM    4  N3  UNL     1      20.154   1.284  52.625  1.00  0.00    -0.241 NA
HETATM    5  C8  UNL     1      21.463   1.141  52.737  1.00  0.00     0.072 A 
HETATM    6  C9  UNL     1      21.967  -0.036  53.246  1.00  0.00     0.033 A 
HETATM    7  C10 UNL     1      23.315  -0.158  53.347  1.00  0.00     0.014 A 
HETATM    8  C11 UNL     1      24.130   0.866  52.951  1.00  0.00    -0.025 A 
HETATM    9  C19 UNL     1      23.579   2.016  52.452  1.00  0.00     0.030 A 
HETATM   10  C20 UNL     1      22.207   2.231  52.311  1.00  0.00     0.039 A 
ENDROOT
BRANCH   8  11
HETATM   11  C12 UNL     1      25.565   0.712  53.070  1.00  0.00    -0.023 A 
HETATM   12  C13 UNL     1      26.299   1.885  53.130  1.00  0.00     0.015 A 
HETATM   13  C14 UNL     1      27.690   1.917  53.251  1.00  0.00     0.040 A 
HETATM   14  C15 UNL     1      28.346   0.718  53.312  1.00  0.00     0.105 A 
HETATM   15  C16 UNL     1      27.654  -0.461  53.256  1.00  0.00     0.105 A 
HETATM   16  O2  UNL     1      29.698   0.353  53.432  1.00  0.00    -0.323 OA
HETATM   17  C17 UNL     1      26.299  -0.478  53.139  1.00  0.00     0.052 A 
HETATM   18  O1  UNL     1      28.581  -1.518  53.340  1.00  0.00    -0.323 OA
HETATM   19  C18 UNL     1      29.767  -0.985  53.929  1.00  0.00     0.352 C 
ENDBRANCH   8  11
BRANCH   1  20
HETATM   20  N1  UNL     1      22.577   4.344  51.449  1.00  0.00    -0.371 N 
HETATM   21  H6  UNL     1      22.411   5.003  52.281  1.00  0.00     0.161 HD
BRANCH  20  22
HETATM   22  C5  UNL     1      23.538   5.297  51.096  1.00  0.00     0.148 C 
BRANCH  22  23
HETATM   23  C4  UNL     1      24.564   4.903  50.091  1.00  0.00    -0.007 C 
BRANCH  23  24
HETATM   24  C3  UNL     1      25.517   3.987  50.074  1.00  0.00    -0.001 C 
BRANCH  24  25
HETATM   25  C2  UNL     1      26.765   3.783  49.349  1.00  0.00     0.024 C 
BRANCH  25  26
HETATM   26  C1  UNL     1      27.432   4.798  48.822  1.00  0.00     0.052 C 
HETATM   27  S1  UNL     1      28.708   5.639  48.254  1.00  0.00    -0.079 SA
ENDBRANCH  25  26
ENDBRANCH  24  25
ENDBRANCH  23  24
ENDBRANCH  22  23
ENDBRANCH  20  22
ENDBRANCH   1  20
TORSDOF 7
ENDMDL
MODEL 6
REMARK VINA RESULT:      -7.6      3.991      6.336
REMARK  7 active torsions:
REMARK  status: ('A' for Active; 'I' for Inactive)
REMARK    1  A    between atoms: C1_2  and  C2_3 
REMARK    2  A    between atoms: C2_3  and  C3_4 
REMARK    3  A    between atoms: C3_4  and  C4_5 
REMARK    4  A    between atoms: C4_5  and  C5_6 
REMARK    5  A    between atoms: C5_6  and  N1_7 
REMARK    6  A    between atoms: N1_7  and  C6_8 
REMARK    7  A    between atoms: C11_15  and  C12_16 
ROOT
HETATM    1  C6  UNL     1      27.312   2.070  52.524  1.00  0.00     0.137 A 
HETATM    2  N2  UNL     1      28.554   2.053  53.029  1.00  0.00    -0.224 NA
HETATM    3  C7  UNL     1      28.828   1.278  54.077  1.00  0.00     0.235 A 
HETATM    4  N3  UNL     1      27.880   0.517  54.631  1.00  0.00    -0.241 NA
HETATM    5  C8  UNL     1      26.628   0.460  54.211  1.00  0.00     0.072 A 
HETATM    6  C9  UNL     1      25.739  -0.362  54.867  1.00  0.00     0.033 A 
HETATM    7  C10 UNL     1      24.459  -0.399  54.418  1.00  0.00     0.014 A 
HETATM    8  C11 UNL     1      24.084   0.363  53.346  1.00  0.00    -0.025 A 
HETATM    9  C19 UNL     1      25.006   1.164  52.729  1.00  0.00     0.030 A 
HETATM   10  C20 UNL     1      26.342   1.268  53.120  1.00  0.00     0.039 A 
ENDROOT
BRANCH   8  11
HETATM   11  C12 UNL     1      22.712   0.306  52.885  1.00  0.00    -0.023 A 
HETATM   12  C13 UNL     1      22.488   0.739  51.588  1.00  0.00     0.015 A 
HETATM   13  C14 UNL     1      21.229   0.745  50.986  1.00  0.00     0.040 A 
HETATM   14  C15 UNL     1      20.172   0.296  51.728  1.00  0.00     0.105 A 
HETATM   15  C16 UNL     1      20.354  -0.141  53.012  1.00  0.00     0.105 A 
HETATM   16  O2  UNL     1      18.796   0.153  51.477  1.00  0.00    -0.323 OA
HETATM   17  C17 UNL     1      21.587  -0.141  53.588  1.00  0.00     0.052 A 
HETATM   18  O1  UNL     1      19.104  -0.538  53.522  1.00  0.00    -0.323 OA
HETATM   19  C18 UNL     1      18.260  -0.796  52.401  1.00  0.00     0.352 C 
ENDBRANCH   8  11
BRANCH   1  20
HETATM   20  N1  UNL     1      26.772   2.788  51.433  1.00  0.00    -0.371 N 
HETATM   21  H6  UNL     1      26.814   1.983  50.722  1.00  0.00     0.161 HD
BRANCH  20  22
HETATM   22  C5  UNL     1      26.237   3.497  50.352  1.00  0.00     0.148 C 
BRANCH  22  23
HETATM   23  C4  UNL     1      24.829   3.205  49.963  1.00  0.00    -0.007 C 
BRANCH  23  24
HETATM   24  C3  UNL     1      23.966   3.798  49.156  1.00  0.00    -0.001 C 
BRANCH  24  25
HETATM   25  C2  UNL     1      22.598   3.552  48.718  1.00  0.00     0.024 C 
BRANCH  25  26
HETATM   26  C1  UNL     1      22.180   3.918  47.517  1.00  0.00     0.052 C 
HETATM   27  S1  UNL     1      21.838   3.788  45.928  1.00  0.00    -0.079 SA
ENDBRANCH  25  26
ENDBRANCH  24  25
ENDBRANCH  23  24
ENDBRANCH  22  23
ENDBRANCH  20  22
ENDBRANCH   1  20
TORSDOF 7
ENDMDL
MODEL 7
REMARK VINA RESULT:      -7.5      2.013      2.602
REMARK  7 active torsions:
REMARK  status: ('A' for Active; 'I' for Inactive)
REMARK    1  A    between atoms: C1_2  and  C2_3 
REMARK    2  A    between atoms: C2_3  and  C3_4 
REMARK    3  A    between atoms: C3_4  and  C4_5 
REMARK    4  A    between atoms: C4_5  and  C5_6 
REMARK    5  A    between atoms: C5_6  and  N1_7 
REMARK    6  A    between atoms: N1_7  and  C6_8 
REMARK    7  A    between atoms: C11_15  and  C12_16 
ROOT
HETATM    1  C6  UNL     1      21.225   3.497  52.113  1.00  0.00     0.137 A 
HETATM    2  N2  UNL     1      19.906   3.600  51.894  1.00  0.00    -0.224 NA
HETATM    3  C7  UNL     1      19.138   2.514  51.983  1.00  0.00     0.235 A 
HETATM    4  N3  UNL     1      19.665   1.326  52.288  1.00  0.00    -0.241 NA
HETATM    5  C8  UNL     1      20.949   1.117  52.522  1.00  0.00     0.072 A 
HETATM    6  C9  UNL     1      21.375  -0.157  52.825  1.00  0.00     0.033 A 
HETATM    7  C10 UNL     1      22.699  -0.345  53.057  1.00  0.00     0.014 A 
HETATM    8  C11 UNL     1      23.566   0.711  52.988  1.00  0.00    -0.025 A 
HETATM    9  C19 UNL     1      23.092   1.958  52.683  1.00  0.00     0.030 A 
HETATM   10  C20 UNL     1      21.750   2.246  52.429  1.00  0.00     0.039 A 
ENDROOT
BRANCH   8  11
HETATM   11  C12 UNL     1      24.974   0.484  53.241  1.00  0.00    -0.023 A 
HETATM   12  C13 UNL     1      25.476  -0.739  52.829  1.00  0.00     0.015 A 
HETATM   13  C14 UNL     1      26.810  -1.117  52.990  1.00  0.00     0.040 A 
HETATM   14  C15 UNL     1      27.653  -0.221  53.587  1.00  0.00     0.105 A 
HETATM   15  C16 UNL     1      27.193   0.999  54.006  1.00  0.00     0.105 A 
HETATM   16  O2  UNL     1      29.020  -0.237  53.913  1.00  0.00    -0.323 OA
HETATM   17  C17 UNL     1      25.891   1.354  53.844  1.00  0.00     0.052 A 
HETATM   18  O1  UNL     1      28.271   1.701  54.576  1.00  0.00    -0.323 OA
HETATM   19  C18 UNL     1      29.468   1.112  54.068  1.00  0.00     0.352 C 
ENDBRANCH   8  11
BRANCH   1  20
HETATM   20  N1  UNL     1      22.242   4.478  52.087  1.00  0.00    -0.371 N 
HETATM   21  H6  UNL     1      22.045   4.887  53.061  1.00  0.00     0.161 HD
BRANCH  20  22
HETATM   22  C5  UNL     1      23.247   5.450  52.062  1.00  0.00     0.148 C 
BRANCH  22  23
HETATM   23  C4  UNL     1      24.247   5.381  50.960  1.00  0.00    -0.007 C 
BRANCH  23  24
HETATM   24  C3  UNL     1      24.942   4.393  50.423  1.00  0.00    -0.001 C 
BRANCH  24  25
HETATM   25  C2  UNL     1      24.656   3.263  49.547  1.00  0.00     0.024 C 
BRANCH  25  26
HETATM   26  C1  UNL     1      23.450   3.071  49.036  1.00  0.00     0.052 C 
HETATM   27  S1  UNL     1      22.302   2.458  48.055  1.00  0.00    -0.079 SA
ENDBRANCH  25  26
ENDBRANCH  24  25
ENDBRANCH  23  24
ENDBRANCH  22  23
ENDBRANCH  20  22
ENDBRANCH   1  20
TORSDOF 7
ENDMDL
MODEL 8
REMARK VINA RESULT:      -7.1      3.762      5.716
REMARK  7 active torsions:
REMARK  status: ('A' for Active; 'I' for Inactive)
REMARK    1  A    between atoms: C1_2  and  C2_3 
REMARK    2  A    between atoms: C2_3  and  C3_4 
REMARK    3  A    between atoms: C3_4  and  C4_5 
REMARK    4  A    between atoms: C4_5  and  C5_6 
REMARK    5  A    between atoms: C5_6  and  N1_7 
REMARK    6  A    between atoms: N1_7  and  C6_8 
REMARK    7  A    between atoms: C11_15  and  C12_16 
ROOT
HETATM    1  C6  UNL     1      25.645   5.401  49.107  1.00  0.00     0.137 A 
HETATM    2  N2  UNL     1      24.762   6.292  48.632  1.00  0.00    -0.224 NA
HETATM    3  C7  UNL     1      23.498   6.254  49.054  1.00  0.00     0.235 A 
HETATM    4  N3  UNL     1      23.101   5.341  49.943  1.00  0.00    -0.241 NA
HETATM    5  C8  UNL     1      23.889   4.421  50.472  1.00  0.00     0.072 A 
HETATM    6  C9  UNL     1      23.362   3.530  51.380  1.00  0.00     0.033 A 
HETATM    7  C10 UNL     1      24.192   2.593  51.905  1.00  0.00     0.014 A 
HETATM    8  C11 UNL     1      25.508   2.554  51.532  1.00  0.00    -0.025 A 
HETATM    9  C19 UNL     1      25.982   3.463  50.626  1.00  0.00     0.030 A 
HETATM   10  C20 UNL     1      25.205   4.459  50.033  1.00  0.00     0.039 A 
ENDROOT
BRANCH   8  11
HETATM   11  C12 UNL     1      26.374   1.545  52.107  1.00  0.00    -0.023 A 
HETATM   12  C13 UNL     1      25.897   0.245  52.075  1.00  0.00     0.015 A 
HETATM   13  C14 UNL     1      26.605  -0.847  52.580  1.00  0.00     0.040 A 
HETATM   14  C15 UNL     1      27.832  -0.603  53.131  1.00  0.00     0.105 A 
HETATM   15  C16 UNL     1      28.337   0.668  53.180  1.00  0.00     0.105 A 
HETATM   16  O2  UNL     1      28.813  -1.417  53.723  1.00  0.00    -0.323 OA
HETATM   17  C17 UNL     1      27.636   1.723  52.685  1.00  0.00     0.052 A 
HETATM   18  O1  UNL     1      29.602   0.615  53.795  1.00  0.00    -0.323 OA
HETATM   19  C18 UNL     1      30.065  -0.730  53.677  1.00  0.00     0.352 C 
ENDBRANCH   8  11
BRANCH   1  20
HETATM   20  N1  UNL     1      27.021   5.233  48.831  1.00  0.00    -0.371 N 
HETATM   21  H6  UNL     1      26.933   4.282  48.339  1.00  0.00     0.161 HD
BRANCH  20  22
HETATM   22  C5  UNL     1      28.383   5.065  48.558  1.00  0.00     0.148 C 
BRANCH  22  23
HETATM   23  C4  UNL     1      29.103   6.201  47.918  1.00  0.00    -0.007 C 
BRANCH  23  24
HETATM   24  C3  UNL     1      28.713   7.224  47.177  1.00  0.00    -0.001 C 
BRANCH  24  25
HETATM   25  C2  UNL     1      28.162   8.551  47.425  1.00  0.00     0.024 C 
BRANCH  25  26
HETATM   26  C1  UNL     1      27.439   8.809  48.504  1.00  0.00     0.052 C 
HETATM   27  S1  UNL     1      27.115   9.098  50.075  1.00  0.00    -0.079 SA
ENDBRANCH  25  26
ENDBRANCH  24  25
ENDBRANCH  23  24
ENDBRANCH  22  23
ENDBRANCH  20  22
ENDBRANCH   1  20
TORSDOF 7
ENDMDL
MODEL 9
REMARK VINA RESULT:      -7.0      4.208      6.519
REMARK  7 active torsions:
REMARK  status: ('A' for Active; 'I' for Inactive)
REMARK    1  A    between atoms: C1_2  and  C2_3 
REMARK    2  A    between atoms: C2_3  and  C3_4 
REMARK    3  A    between atoms: C3_4  and  C4_5 
REMARK    4  A    between atoms: C4_5  and  C5_6 
REMARK    5  A    between atoms: C5_6  and  N1_7 
REMARK    6  A    between atoms: N1_7  and  C6_8 
REMARK    7  A    between atoms: C11_15  and  C12_16 
ROOT
HETATM    1  C6  UNL     1      26.348   1.850  52.267  1.00  0.00     0.137 A 
HETATM    2  N2  UNL     1      27.505   1.416  52.787  1.00  0.00    -0.224 NA
HETATM    3  C7  UNL     1      27.499   0.393  53.643  1.00  0.00     0.235 A 
HETATM    4  N3  UNL     1      26.355  -0.203  53.987  1.00  0.00    -0.241 NA
HETATM    5  C8  UNL     1      25.164   0.147  53.533  1.00  0.00     0.072 A 
HETATM    6  C9  UNL     1      24.054  -0.544  53.965  1.00  0.00     0.033 A 
HETATM    7  C10 UNL     1      22.843  -0.162  53.486  1.00  0.00     0.014 A 
HETATM    8  C11 UNL     1      22.749   0.878  52.603  1.00  0.00    -0.025 A 
HETATM    9  C19 UNL     1      23.884   1.532  52.205  1.00  0.00     0.030 A 
HETATM   10  C20 UNL     1      25.169   1.211  52.644  1.00  0.00     0.039 A 
ENDROOT
BRANCH   8  11
HETATM   11  C12 UNL     1      21.445   1.266  52.106  1.00  0.00    -0.023 A 
HETATM   12  C13 UNL     1      20.851   0.390  51.212  1.00  0.00     0.015 A 
HETATM   13  C14 UNL     1      19.595   0.608  50.642  1.00  0.00     0.040 A 
HETATM   14  C15 UNL     1      18.931   1.749  50.996  1.00  0.00     0.105 A 
HETATM   15  C16 UNL     1      19.486   2.638  51.876  1.00  0.00     0.105 A 
HETATM   16  O2  UNL     1      17.685   2.300  50.645  1.00  0.00    -0.323 OA
HETATM   17  C17 UNL     1      20.710   2.414  52.424  1.00  0.00     0.052 A 
HETATM   18  O1  UNL     1      18.585   3.705  52.049  1.00  0.00    -0.323 OA
HETATM   19  C18 UNL     1      17.297   3.231  51.657  1.00  0.00     0.352 C 
ENDBRANCH   8  11
BRANCH   1  20
HETATM   20  N1  UNL     1      26.085   2.894  51.351  1.00  0.00    -0.371 N 
HETATM   21  H6  UNL     1      26.351   2.349  50.463  1.00  0.00     0.161 HD
BRANCH  20  22
HETATM   22  C5  UNL     1      25.826   3.926  50.443  1.00  0.00     0.148 C 
BRANCH  22  23
HETATM   23  C4  UNL     1      24.454   4.013  49.870  1.00  0.00    -0.007 C 
BRANCH  23  24
HETATM   24  C3  UNL     1      23.803   3.310  48.959  1.00  0.00    -0.001 C 
BRANCH  24  25
HETATM   25  C2  UNL     1      22.474   2.720  48.840  1.00  0.00     0.024 C 
BRANCH  25  26
HETATM   26  C1  UNL     1      21.382   3.467  48.861  1.00  0.00     0.052 C 
HETATM   27  S1  UNL     1      20.078   4.258  48.286  1.00  0.00    -0.079 SA
ENDBRANCH  25  26
ENDBRANCH  24  25
ENDBRANCH  23  24
ENDBRANCH  22  23
ENDBRANCH  20  22
ENDBRANCH   1  20
TORSDOF 7
ENDMDL
