MODEL 1
REMARK VINA RESULT:      -9.0      0.000      0.000
REMARK  6 active torsions:
REMARK  status: ('A' for Active; 'I' for Inactive)
REMARK       I    between atoms: C1_2  and  N1_3 
REMARK       I    between atoms: C1_2  and  N2_10 
REMARK    1  A    between atoms: N1_3  and  C2_4 
REMARK    2  A    between atoms: N2_10  and  C8_11 
REMARK    3  A    between atoms: N2_10  and  C15_20 
REMARK    4  A    between atoms: C8_11  and  C9_12 
REMARK    5  A    between atoms: C9_12  and  C10_13 
REMARK    6  A    between atoms: C14_18  and  O2_19 
ROOT
HETATM    1  O1  UNL     1      24.352  -0.839  54.142  1.00  0.00    -0.247 OA
HETATM    2  C1  UNL     1      24.683   0.183  53.487  1.00  0.00     0.323 C 
HETATM    3  N1  UNL     1      23.604   0.808  52.815  1.00  0.00    -0.309 N 
HETATM    4  N2  UNL     1      26.025   0.710  53.392  1.00  0.00    -0.323 N 
HETATM    5  H1  UNL     1      23.915   1.641  52.266  1.00  0.00     0.170 HD
ENDROOT
BRANCH   4   6
HETATM    6  C8  UNL     1      26.578   1.881  52.727  1.00  0.00     0.133 C 
BRANCH   6   7
HETATM    7  C9  UNL     1      26.602   1.824  51.252  1.00  0.00     0.061 C 
BRANCH   7   8
HETATM    8  C10 UNL     1      25.916   2.882  50.513  1.00  0.00    -0.025 A 
HETATM    9  C11 UNL     1      24.581   2.949  50.354  1.00  0.00    -0.011 A 
HETATM   10  C12 UNL     1      24.136   4.108  49.577  1.00  0.00     0.082 A 
HETATM   11  C13 UNL     1      25.432   4.799  49.266  1.00  0.00     0.049 A 
HETATM   12 CL1  UNL     1      25.603   6.283  48.357  1.00  0.00    -0.086 Cl
HETATM   13  C14 UNL     1      26.384   4.066  49.815  1.00  0.00     0.089 A 
BRANCH  13  14
HETATM   14  O2  UNL     1      27.715   4.432  49.712  1.00  0.00    -0.359 OA
HETATM   15  H14 UNL     1      28.401   3.902  49.192  1.00  0.00     0.217 HD
ENDBRANCH  13  14
ENDBRANCH   7   8
ENDBRANCH   6   7
ENDBRANCH   4   6
BRANCH   4  16
HETATM   16  C15 UNL     1      27.004  -0.098  54.110  1.00  0.00     0.149 A 
HETATM   17  C16 UNL     1      28.081   0.816  54.571  1.00  0.00     0.001 A 
HETATM   18  C17 UNL     1      29.378   0.719  54.335  1.00  0.00    -0.002 A 
HETATM   19  C18 UNL     1      29.934  -0.367  53.539  1.00  0.00    -0.001 A 
HETATM   20  C19 UNL     1      28.995  -1.216  53.091  1.00  0.00     0.012 A 
HETATM   21  C20 UNL     1      27.514  -1.222  53.272  1.00  0.00     0.219 A 
HETATM   22  F1  UNL     1      26.908  -1.255  52.014  1.00  0.00    -0.243 F 
ENDBRANCH   4  16
BRANCH   3  23
HETATM   23  C2  UNL     1      22.227   0.509  52.744  1.00  0.00     0.036 A 
HETATM   24  C3  UNL     1      21.566   0.561  51.534  1.00  0.00     0.029 A 
HETATM   25  C4  UNL     1      20.229   0.283  51.391  1.00  0.00     0.002 A 
HETATM   26  C5  UNL     1      19.471  -0.069  52.475  1.00  0.00     0.000 A 
HETATM   27  C6  UNL     1      20.072  -0.139  53.708  1.00  0.00     0.002 A 
HETATM   28  C7  UNL     1      21.415   0.150  53.796  1.00  0.00     0.029 A 
ENDBRANCH   3  23
TORSDOF 6
ENDMDL
MODEL 2
REMARK VINA RESULT:      -8.5      3.026      5.188
REMARK  6 active torsions:
REMARK  status: ('A' for Active; 'I' for Inactive)
REMARK       I    between atoms: C1_2  and  N1_3 
REMARK       I    between atoms: C1_2  and  N2_10 
REMARK    1  A    between atoms: N1_3  and  C2_4 
REMARK    2  A    between atoms: N2_10  and  C8_11 
REMARK    3  A    between atoms: N2_10  and  C15_20 
REMARK    4  A    between atoms: C8_11  and  C9_12 
REMARK    5  A    between atoms: C9_12  and  C10_13 
REMARK    6  A    between atoms: C14_18  and  O2_19 
ROOT
HETATM    1  O1  UNL     1      22.245   1.474  49.968  1.00  0.00    -0.247 OA
HETATM    2  C1  UNL     1      22.735   1.980  51.010  1.00  0.00     0.323 C 
HETATM    3  N1  UNL     1      22.067   1.602  52.201  1.00  0.00    -0.309 N 
HETATM    4  N2  UNL     1      23.871   2.874  51.044  1.00  0.00    -0.323 N 
HETATM    5  H1  UNL     1      22.487   2.054  53.044  1.00  0.00     0.170 HD
ENDROOT
BRANCH   4   6
HETATM    6  C8  UNL     1      24.587   3.513  52.137  1.00  0.00     0.133 C 
BRANCH   6   7
HETATM    7  C9  UNL     1      24.871   2.652  53.303  1.00  0.00     0.061 C 
BRANCH   7   8
HETATM    8  C10 UNL     1      25.952   1.675  53.188  1.00  0.00    -0.025 A 
HETATM    9  C11 UNL     1      25.806   0.446  52.656  1.00  0.00    -0.011 A 
HETATM   10  C12 UNL     1      27.038  -0.345  52.650  1.00  0.00     0.082 A 
HETATM   11  C13 UNL     1      28.027   0.602  53.266  1.00  0.00     0.049 A 
HETATM   12 CL1  UNL     1      29.721   0.269  53.543  1.00  0.00    -0.086 Cl
HETATM   13  C14 UNL     1      27.359   1.708  53.544  1.00  0.00     0.089 A 
BRANCH  13  14
HETATM   14  O2  UNL     1      27.987   2.793  54.128  1.00  0.00    -0.359 OA
HETATM   15  H14 UNL     1      28.573   3.441  53.619  1.00  0.00     0.217 HD
ENDBRANCH  13  14
ENDBRANCH   7   8
ENDBRANCH   6   7
ENDBRANCH   4   6
BRANCH   4  16
HETATM   16  C15 UNL     1      24.389   3.184  49.716  1.00  0.00     0.149 A 
HETATM   17  C16 UNL     1      25.870   3.087  49.785  1.00  0.00     0.001 A 
HETATM   18  C17 UNL     1      26.755   4.014  49.459  1.00  0.00    -0.002 A 
HETATM   19  C18 UNL     1      26.349   5.322  48.965  1.00  0.00    -0.001 A 
HETATM   20  C19 UNL     1      25.015   5.461  48.894  1.00  0.00     0.012 A 
HETATM   21  C20 UNL     1      23.913   4.513  49.234  1.00  0.00     0.219 A 
HETATM   22  F1  UNL     1      23.059   5.128  50.151  1.00  0.00    -0.243 F 
ENDBRANCH   4  16
BRANCH   3  23
HETATM   23  C2  UNL     1      20.961   0.761  52.444  1.00  0.00     0.036 A 
HETATM   24  C3  UNL     1      21.020  -0.194  53.439  1.00  0.00     0.029 A 
HETATM   25  C4  UNL     1      19.984  -1.046  53.730  1.00  0.00     0.002 A 
HETATM   26  C5  UNL     1      18.811  -0.983  53.027  1.00  0.00     0.000 A 
HETATM   27  C6  UNL     1      18.691  -0.052  52.022  1.00  0.00     0.002 A 
HETATM   28  C7  UNL     1      19.761   0.777  51.771  1.00  0.00     0.029 A 
ENDBRANCH   3  23
TORSDOF 6
ENDMDL
MODEL 3
REMARK VINA RESULT:      -8.5      3.048      7.263
REMARK  6 active torsions:
REMARK  status: ('A' for Active; 'I' for Inactive)
REMARK       I    between atoms: C1_2  and  N1_3 
REMARK       I    between atoms: C1_2  and  N2_10 
REMARK    1  A    between atoms: N1_3  and  C2_4 
REMARK    2  A    between atoms: N2_10  and  C8_11 
REMARK    3  A    between atoms: N2_10  and  C15_20 
REMARK    4  A    between atoms: C8_11  and  C9_12 
REMARK    5  A    between atoms: C9_12  and  C10_13 
REMARK    6  A    between atoms: C14_18  and  O2_19 
ROOT
HETATM    1  O1  UNL     1      26.660   2.438  51.725  1.00  0.00    -0.247 OA
HETATM    2  C1  UNL     1      25.737   1.877  52.371  1.00  0.00     0.323 C 
HETATM    3  N1  UNL     1      26.152   0.725  53.083  1.00  0.00    -0.309 N 
HETATM    4  N2  UNL     1      24.363   2.324  52.413  1.00  0.00    -0.323 N 
HETATM    5  H1  UNL     1      25.359   0.274  53.592  1.00  0.00     0.170 HD
ENDROOT
BRANCH   4   6
HETATM    6  C8  UNL     1      23.191   1.835  53.123  1.00  0.00     0.133 C 
BRANCH   6   7
HETATM    7  C9  UNL     1      22.775   0.457  52.794  1.00  0.00     0.061 C 
BRANCH   7   8
HETATM    8  C10 UNL     1      21.351   0.202  52.587  1.00  0.00    -0.025 A 
HETATM    9  C11 UNL     1      20.660   0.610  51.506  1.00  0.00    -0.011 A 
HETATM   10  C12 UNL     1      19.246   0.229  51.529  1.00  0.00     0.082 A 
HETATM   11  C13 UNL     1      19.141  -0.522  52.825  1.00  0.00     0.049 A 
HETATM   12 CL1  UNL     1      17.690  -1.265  53.457  1.00  0.00    -0.086 Cl
HETATM   13  C14 UNL     1      20.346  -0.500  53.366  1.00  0.00     0.089 A 
BRANCH  13  14
HETATM   14  O2  UNL     1      20.594  -1.111  54.582  1.00  0.00    -0.359 OA
HETATM   15  H14 UNL     1      20.783  -2.098  54.684  1.00  0.00     0.217 HD
ENDBRANCH  13  14
ENDBRANCH   7   8
ENDBRANCH   6   7
ENDBRANCH   4   6
BRANCH   4  16
HETATM   16  C15 UNL     1      24.121   3.495  51.578  1.00  0.00     0.149 A 
HETATM   17  C16 UNL     1      23.230   4.406  52.341  1.00  0.00     0.001 A 
HETATM   18  C17 UNL     1      22.063   4.900  51.959  1.00  0.00    -0.002 A 
HETATM   19  C18 UNL     1      21.483   4.581  50.661  1.00  0.00    -0.001 A 
HETATM   20  C19 UNL     1      22.251   3.751  49.938  1.00  0.00     0.012 A 
HETATM   21  C20 UNL     1      23.568   3.118  50.245  1.00  0.00     0.219 A 
HETATM   22  F1  UNL     1      23.445   1.735  50.100  1.00  0.00    -0.243 F 
ENDBRANCH   4  16
BRANCH   3  23
HETATM   23  C2  UNL     1      27.404   0.088  53.212  1.00  0.00     0.036 A 
HETATM   24  C3  UNL     1      27.532  -1.258  52.934  1.00  0.00     0.029 A 
HETATM   25  C4  UNL     1      28.716  -1.942  53.039  1.00  0.00     0.002 A 
HETATM   26  C5  UNL     1      29.860  -1.300  53.434  1.00  0.00     0.000 A 
HETATM   27  C6  UNL     1      29.797   0.041  53.725  1.00  0.00     0.002 A 
HETATM   28  C7  UNL     1      28.583   0.679  53.605  1.00  0.00     0.029 A 
ENDBRANCH   3  23
TORSDOF 6
ENDMDL
MODEL 4
REMARK VINA RESULT:      -8.3      2.788      6.990
REMARK  6 active torsions:
REMARK  status: ('A' for Active; 'I' for Inactive)
REMARK       I    between atoms: C1_2  and  N1_3 
REMARK       I    between atoms: C1_2  and  N2_10 
REMARK    1  A    between atoms: N1_3  and  C2_4 
REMARK    2  A    between atoms: N2_10  and  C8_11 
REMARK    3  A    between atoms: N2_10  and  C15_20 
REMARK    4  A    between atoms: C8_11  and  C9_12 
REMARK    5  A    between atoms: C9_12  and  C10_13 
REMARK    6  A    between atoms: C14_18  and  O2_19 
ROOT
HETATM    1  O1  UNL     1      22.899   4.267  49.828  1.00  0.00    -0.247 OA
HETATM    2  C1  UNL     1      23.490   3.578  50.699  1.00  0.00     0.323 C 
HETATM    3  N1  UNL     1      24.892   3.780  50.737  1.00  0.00    -0.309 N 
HETATM    4  N2  UNL     1      22.846   2.649  51.600  1.00  0.00    -0.323 N 
HETATM    5  H1  UNL     1      25.353   3.181  51.457  1.00  0.00     0.170 HD
ENDROOT
BRANCH   4   6
HETATM    6  C8  UNL     1      23.353   1.812  52.678  1.00  0.00     0.133 C 
BRANCH   6   7
HETATM    7  C9  UNL     1      24.153   0.644  52.255  1.00  0.00     0.061 C 
BRANCH   7   8
HETATM    8  C10 UNL     1      25.558   0.594  52.656  1.00  0.00    -0.025 A 
HETATM    9  C11 UNL     1      26.325  -0.510  52.580  1.00  0.00    -0.011 A 
HETATM   10  C12 UNL     1      27.701  -0.306  53.038  1.00  0.00     0.082 A 
HETATM   11  C13 UNL     1      27.697   1.147  53.417  1.00  0.00     0.049 A 
HETATM   12 CL1  UNL     1      29.064   2.041  54.041  1.00  0.00    -0.086 Cl
HETATM   13  C14 UNL     1      26.475   1.589  53.181  1.00  0.00     0.089 A 
BRANCH  13  14
HETATM   14  O2  UNL     1      26.132   2.907  53.428  1.00  0.00    -0.359 OA
HETATM   15  H14 UNL     1      26.123   3.625  52.717  1.00  0.00     0.217 HD
ENDBRANCH  13  14
ENDBRANCH   7   8
ENDBRANCH   6   7
ENDBRANCH   4   6
BRANCH   4  16
HETATM   16  C15 UNL     1      21.409   2.542  51.374  1.00  0.00     0.149 A 
HETATM   17  C16 UNL     1      20.783   2.183  52.673  1.00  0.00     0.001 A 
HETATM   18  C17 UNL     1      19.999   1.150  52.932  1.00  0.00    -0.002 A 
HETATM   19  C18 UNL     1      19.640   0.182  51.904  1.00  0.00    -0.001 A 
HETATM   20  C19 UNL     1      20.192   0.461  50.712  1.00  0.00     0.012 A 
HETATM   21  C20 UNL     1      21.092   1.573  50.286  1.00  0.00     0.219 A 
HETATM   22  F1  UNL     1      22.245   1.025  49.719  1.00  0.00    -0.243 F 
ENDBRANCH   4  16
BRANCH   3  23
HETATM   23  C2  UNL     1      25.752   4.612  49.989  1.00  0.00     0.036 A 
HETATM   24  C3  UNL     1      26.840   4.073  49.331  1.00  0.00     0.029 A 
HETATM   25  C4  UNL     1      27.718   4.820  48.587  1.00  0.00     0.002 A 
HETATM   26  C5  UNL     1      27.548   6.173  48.460  1.00  0.00     0.000 A 
HETATM   27  C6  UNL     1      26.483   6.769  49.092  1.00  0.00     0.002 A 
HETATM   28  C7  UNL     1      25.633   5.973  49.826  1.00  0.00     0.029 A 
ENDBRANCH   3  23
TORSDOF 6
ENDMDL
MODEL 5
REMARK VINA RESULT:      -8.3      1.993      6.041
REMARK  6 active torsions:
REMARK  status: ('A' for Active; 'I' for Inactive)
REMARK       I    between atoms: C1_2  and  N1_3 
REMARK       I    between atoms: C1_2  and  N2_10 
REMARK    1  A    between atoms: N1_3  and  C2_4 
REMARK    2  A    between atoms: N2_10  and  C8_11 
REMARK    3  A    between atoms: N2_10  and  C15_20 
REMARK    4  A    between atoms: C8_11  and  C9_12 
REMARK    5  A    between atoms: C9_12  and  C10_13 
REMARK    6  A    between atoms: C14_18  and  O2_19 
ROOT
HETATM    1  O1  UNL     1      24.389   0.118  52.987  1.00  0.00    -0.247 OA
HETATM    2  C1  UNL     1      24.581   0.999  52.109  1.00  0.00     0.323 C 
HETATM    3  N1  UNL     1      25.925   1.437  52.020  1.00  0.00    -0.309 N 
HETATM    4  N2  UNL     1      23.559   1.548  51.248  1.00  0.00    -0.323 N 
HETATM    5  H1  UNL     1      26.046   2.180  51.296  1.00  0.00     0.170 HD
ENDROOT
BRANCH   4   6
HETATM    6  C8  UNL     1      23.602   2.524  50.169  1.00  0.00     0.133 C 
BRANCH   6   7
HETATM    7  C9  UNL     1      23.919   3.909  50.574  1.00  0.00     0.061 C 
BRANCH   7   8
HETATM    8  C10 UNL     1      24.901   4.647  49.783  1.00  0.00    -0.025 A 
HETATM    9  C11 UNL     1      24.603   5.706  49.006  1.00  0.00    -0.011 A 
HETATM   10  C12 UNL     1      25.761   6.277  48.315  1.00  0.00     0.082 A 
HETATM   11  C13 UNL     1      26.882   5.400  48.796  1.00  0.00     0.049 A 
HETATM   12 CL1  UNL     1      28.564   5.558  48.345  1.00  0.00    -0.086 Cl
HETATM   13  C14 UNL     1      26.337   4.513  49.609  1.00  0.00     0.089 A 
BRANCH  13  14
HETATM   14  O2  UNL     1      27.107   3.546  50.229  1.00  0.00    -0.359 OA
HETATM   15  H14 UNL     1      27.484   2.740  49.751  1.00  0.00     0.217 HD
ENDBRANCH  13  14
ENDBRANCH   7   8
ENDBRANCH   6   7
ENDBRANCH   4   6
BRANCH   4  16
HETATM   16  C15 UNL     1      22.233   1.008  51.524  1.00  0.00     0.149 A 
HETATM   17  C16 UNL     1      21.539   0.849  50.220  1.00  0.00     0.001 A 
HETATM   18  C17 UNL     1      20.370   1.354  49.861  1.00  0.00    -0.002 A 
HETATM   19  C18 UNL     1      19.581   2.179  50.765  1.00  0.00    -0.001 A 
HETATM   20  C19 UNL     1      20.173   2.359  51.956  1.00  0.00     0.012 A 
HETATM   21  C20 UNL     1      21.478   1.863  52.485  1.00  0.00     0.219 A 
HETATM   22  F1  UNL     1      22.231   2.956  52.919  1.00  0.00    -0.243 F 
ENDBRANCH   4  16
BRANCH   3  23
HETATM   23  C2  UNL     1      27.093   1.072  52.723  1.00  0.00     0.036 A 
HETATM   24  C3  UNL     1      27.515  -0.242  52.732  1.00  0.00     0.029 A 
HETATM   25  C4  UNL     1      28.639  -0.669  53.394  1.00  0.00     0.002 A 
HETATM   26  C5  UNL     1      29.414   0.215  54.094  1.00  0.00     0.000 A 
HETATM   27  C6  UNL     1      29.046   1.539  54.123  1.00  0.00     0.002 A 
HETATM   28  C7  UNL     1      27.909   1.914  53.442  1.00  0.00     0.029 A 
ENDBRANCH   3  23
TORSDOF 6
ENDMDL
MODEL 6
REMARK VINA RESULT:      -8.2      2.853      7.049
REMARK  6 active torsions:
REMARK  status: ('A' for Active; 'I' for Inactive)
REMARK       I    between atoms: C1_2  and  N1_3 
REMARK       I    between atoms: C1_2  and  N2_10 
REMARK    1  A    between atoms: N1_3  and  C2_4 
REMARK    2  A    between atoms: N2_10  and  C8_11 
REMARK    3  A    between atoms: N2_10  and  C15_20 
REMARK    4  A    between atoms: C8_11  and  C9_12 
REMARK    5  A    between atoms: C9_12  and  C10_13 
REMARK    6  A    between atoms: C14_18  and  O2_19 
ROOT
HETATM    1  O1  UNL     1      27.137   2.878  51.064  1.00  0.00    -0.247 OA
HETATM    2  C1  UNL     1      26.091   2.639  51.720  1.00  0.00     0.323 C 
HETATM    3  N1  UNL     1      26.205   1.538  52.604  1.00  0.00    -0.309 N 
HETATM    4  N2  UNL     1      24.858   3.387  51.616  1.00  0.00    -0.323 N 
HETATM    5  H1  UNL     1      25.314   1.356  53.117  1.00  0.00     0.170 HD
ENDROOT
BRANCH   4   6
HETATM    6  C8  UNL     1      23.583   3.283  52.310  1.00  0.00     0.133 C 
BRANCH   6   7
HETATM    7  C9  UNL     1      22.641   2.283  51.767  1.00  0.00     0.061 C 
BRANCH   7   8
HETATM    8  C10 UNL     1      22.073   1.304  52.691  1.00  0.00    -0.025 A 
HETATM    9  C11 UNL     1      20.790   1.307  53.100  1.00  0.00    -0.011 A 
HETATM   10  C12 UNL     1      20.462   0.219  54.024  1.00  0.00     0.082 A 
HETATM   11  C13 UNL     1      21.770  -0.509  54.135  1.00  0.00     0.049 A 
HETATM   12 CL1  UNL     1      22.061  -1.940  55.097  1.00  0.00    -0.086 Cl
HETATM   13  C14 UNL     1      22.625   0.145  53.370  1.00  0.00     0.089 A 
BRANCH  13  14
HETATM   14  O2  UNL     1      23.939  -0.272  53.249  1.00  0.00    -0.359 OA
HETATM   15  H14 UNL     1      24.209  -1.155  52.839  1.00  0.00     0.217 HD
ENDBRANCH  13  14
ENDBRANCH   7   8
ENDBRANCH   6   7
ENDBRANCH   4   6
BRANCH   4  16
HETATM   16  C15 UNL     1      24.920   4.449  50.618  1.00  0.00     0.149 A 
HETATM   17  C16 UNL     1      24.053   5.557  51.097  1.00  0.00     0.001 A 
HETATM   18  C17 UNL     1      23.045   6.126  50.457  1.00  0.00    -0.002 A 
HETATM   19  C18 UNL     1      22.644   5.698  49.124  1.00  0.00    -0.001 A 
HETATM   20  C19 UNL     1      23.395   4.690  48.652  1.00  0.00     0.012 A 
HETATM   21  C20 UNL     1      24.542   3.957  49.262  1.00  0.00     0.219 A 
HETATM   22  F1  UNL     1      24.253   2.590  49.262  1.00  0.00    -0.243 F 
ENDBRANCH   4  16
BRANCH   3  23
HETATM   23  C2  UNL     1      27.270   0.660  52.895  1.00  0.00     0.036 A 
HETATM   24  C3  UNL     1      28.440   1.145  53.442  1.00  0.00     0.029 A 
HETATM   25  C4  UNL     1      29.516   0.351  53.750  1.00  0.00     0.002 A 
HETATM   26  C5  UNL     1      29.474  -0.999  53.523  1.00  0.00     0.000 A 
HETATM   27  C6  UNL     1      28.335  -1.543  52.979  1.00  0.00     0.002 A 
HETATM   28  C7  UNL     1      27.285  -0.701  52.688  1.00  0.00     0.029 A 
ENDBRANCH   3  23
TORSDOF 6
ENDMDL
MODEL 7
REMARK VINA RESULT:      -8.2      3.025      6.060
REMARK  6 active torsions:
REMARK  status: ('A' for Active; 'I' for Inactive)
REMARK       I    between atoms: C1_2  and  N1_3 
REMARK       I    between atoms: C1_2  and  N2_10 
REMARK    1  A    between atoms: N1_3  and  C2_4 
REMARK    2  A    between atoms: N2_10  and  C8_11 
REMARK    3  A    between atoms: N2_10  and  C15_20 
REMARK    4  A    between atoms: C8_11  and  C9_12 
REMARK    5  A    between atoms: C9_12  and  C10_13 
REMARK    6  A    between atoms: C14_18  and  O2_19 
ROOT
HETATM    1  O1  UNL     1      27.003   3.267  50.012  1.00  0.00    -0.247 OA
HETATM    2  C1  UNL     1      26.137   3.269  50.925  1.00  0.00     0.323 C 
HETATM    3  N1  UNL     1      25.179   4.305  50.805  1.00  0.00    -0.309 N 
HETATM    4  N2  UNL     1      26.083   2.326  52.020  1.00  0.00    -0.323 N 
HETATM    5  H1  UNL     1      24.488   4.289  51.588  1.00  0.00     0.170 HD
ENDROOT
BRANCH   4   6
HETATM    6  C8  UNL     1      25.151   2.153  53.123  1.00  0.00     0.133 C 
BRANCH   6   7
HETATM    7  C9  UNL     1      23.722   2.298  52.779  1.00  0.00     0.061 C 
BRANCH   7   8
HETATM    8  C10 UNL     1      22.837   1.162  53.029  1.00  0.00    -0.025 A 
HETATM    9  C11 UNL     1      23.266  -0.067  53.375  1.00  0.00    -0.011 A 
HETATM   10  C12 UNL     1      22.186  -1.036  53.573  1.00  0.00     0.082 A 
HETATM   11  C13 UNL     1      20.963  -0.207  53.306  1.00  0.00     0.049 A 
HETATM   12 CL1  UNL     1      19.311  -0.774  53.386  1.00  0.00    -0.086 Cl
HETATM   13  C14 UNL     1      21.394   1.006  53.008  1.00  0.00     0.089 A 
BRANCH  13  14
HETATM   14  O2  UNL     1      20.507   2.024  52.704  1.00  0.00    -0.359 OA
HETATM   15  H14 UNL     1      19.536   1.869  52.475  1.00  0.00     0.217 HD
ENDBRANCH  13  14
ENDBRANCH   7   8
ENDBRANCH   6   7
ENDBRANCH   4   6
BRANCH   4  16
HETATM   16  C15 UNL     1      27.182   1.368  51.998  1.00  0.00     0.149 A 
HETATM   17  C16 UNL     1      26.588   0.010  52.108  1.00  0.00     0.001 A 
HETATM   18  C17 UNL     1      26.864  -0.922  53.004  1.00  0.00    -0.002 A 
HETATM   19  C18 UNL     1      27.847  -0.706  54.057  1.00  0.00    -0.001 A 
HETATM   20  C19 UNL     1      28.406   0.514  54.005  1.00  0.00     0.012 A 
HETATM   21  C20 UNL     1      28.184   1.653  53.066  1.00  0.00     0.219 A 
HETATM   22  F1  UNL     1      27.852   2.788  53.808  1.00  0.00    -0.243 F 
ENDBRANCH   4  16
BRANCH   3  23
HETATM   23  C2  UNL     1      25.005   5.333  49.854  1.00  0.00     0.036 A 
HETATM   24  C3  UNL     1      23.960   5.276  48.954  1.00  0.00     0.029 A 
HETATM   25  C4  UNL     1      23.731   6.237  48.002  1.00  0.00     0.002 A 
HETATM   26  C5  UNL     1      24.551   7.329  47.902  1.00  0.00     0.000 A 
HETATM   27  C6  UNL     1      25.609   7.443  48.771  1.00  0.00     0.002 A 
HETATM   28  C7  UNL     1      25.795   6.450  49.706  1.00  0.00     0.029 A 
ENDBRANCH   3  23
TORSDOF 6
ENDMDL
MODEL 8
REMARK VINA RESULT:      -8.0      3.097      5.680
REMARK  6 active torsions:
REMARK  status: ('A' for Active; 'I' for Inactive)
REMARK       I    between atoms: C1_2  and  N1_3 
REMARK       I    between atoms: C1_2  and  N2_10 
REMARK    1  A    between atoms: N1_3  and  C2_4 
REMARK    2  A    between atoms: N2_10  and  C8_11 
REMARK    3  A    between atoms: N2_10  and  C15_20 
REMARK    4  A    between atoms: C8_11  and  C9_12 
REMARK    5  A    between atoms: C9_12  and  C10_13 
REMARK    6  A    between atoms: C14_18  and  O2_19 
ROOT
HETATM    1  O1  UNL     1      21.794   2.890  51.331  1.00  0.00    -0.247 OA
HETATM    2  C1  UNL     1      23.024   2.744  51.553  1.00  0.00     0.323 C 
HETATM    3  N1  UNL     1      23.331   1.634  52.379  1.00  0.00    -0.309 N 
HETATM    4  N2  UNL     1      24.067   3.603  51.041  1.00  0.00    -0.323 N 
HETATM    5  H1  UNL     1      24.356   1.553  52.558  1.00  0.00     0.170 HD
ENDROOT
BRANCH   4   6
HETATM    6  C8  UNL     1      25.518   3.566  51.158  1.00  0.00     0.133 C 
BRANCH   6   7
HETATM    7  C9  UNL     1      26.161   2.314  50.712  1.00  0.00     0.061 C 
BRANCH   7   8
HETATM    8  C10 UNL     1      26.727   1.433  51.733  1.00  0.00    -0.025 A 
HETATM    9  C11 UNL     1      26.388   0.139  51.886  1.00  0.00    -0.011 A 
HETATM   10  C12 UNL     1      27.097  -0.532  52.977  1.00  0.00     0.082 A 
HETATM   11  C13 UNL     1      27.978   0.563  53.505  1.00  0.00     0.049 A 
HETATM   12 CL1  UNL     1      29.107   0.413  54.832  1.00  0.00    -0.086 Cl
HETATM   13  C14 UNL     1      27.724   1.631  52.770  1.00  0.00     0.089 A 
BRANCH  13  14
HETATM   14  O2  UNL     1      28.377   2.829  53.001  1.00  0.00    -0.359 OA
HETATM   15  H14 UNL     1      29.328   2.891  53.338  1.00  0.00     0.217 HD
ENDBRANCH  13  14
ENDBRANCH   7   8
ENDBRANCH   6   7
ENDBRANCH   4   6
BRANCH   4  16
HETATM   16  C15 UNL     1      23.551   4.718  50.255  1.00  0.00     0.149 A 
HETATM   17  C16 UNL     1      24.459   4.900  49.094  1.00  0.00     0.001 A 
HETATM   18  C17 UNL     1      25.099   6.000  48.734  1.00  0.00    -0.002 A 
HETATM   19  C18 UNL     1      24.977   7.239  49.490  1.00  0.00    -0.001 A 
HETATM   20  C19 UNL     1      24.171   7.121  50.557  1.00  0.00     0.012 A 
HETATM   21  C20 UNL     1      23.403   5.953  51.079  1.00  0.00     0.219 A 
HETATM   22  F1  UNL     1      23.760   5.740  52.412  1.00  0.00    -0.243 F 
ENDBRANCH   4  16
BRANCH   3  23
HETATM   23  C2  UNL     1      22.522   0.656  52.995  1.00  0.00     0.036 A 
HETATM   24  C3  UNL     1      23.092  -0.311  53.798  1.00  0.00     0.029 A 
HETATM   25  C4  UNL     1      22.368  -1.292  54.427  1.00  0.00     0.002 A 
HETATM   26  C5  UNL     1      21.008  -1.356  54.283  1.00  0.00     0.000 A 
HETATM   27  C6  UNL     1      20.381  -0.420  53.495  1.00  0.00     0.002 A 
HETATM   28  C7  UNL     1      21.155   0.542  52.886  1.00  0.00     0.029 A 
ENDBRANCH   3  23
TORSDOF 6
ENDMDL
MODEL 9
REMARK VINA RESULT:      -7.9      3.529      7.371
REMARK  6 active torsions:
REMARK  status: ('A' for Active; 'I' for Inactive)
REMARK       I    between atoms: C1_2  and  N1_3 
REMARK       I    between atoms: C1_2  and  N2_10 
REMARK    1  A    between atoms: N1_3  and  C2_4 
REMARK    2  A    between atoms: N2_10  and  C8_11 
REMARK    3  A    between atoms: N2_10  and  C15_20 
REMARK    4  A    between atoms: C8_11  and  C9_12 
REMARK    5  A    between atoms: C9_12  and  C10_13 
REMARK    6  A    between atoms: C14_18  and  O2_19 
ROOT
HETATM    1  O1  UNL     1      23.644   5.670  50.351  1.00  0.00    -0.247 OA
HETATM    2  C1  UNL     1      24.553   4.802  50.405  1.00  0.00     0.323 C 
HETATM    3  N1  UNL     1      25.827   5.279  50.011  1.00  0.00    -0.309 N 
HETATM    4  N2  UNL     1      24.366   3.430  50.819  1.00  0.00    -0.323 N 
HETATM    5  H1  UNL     1      26.553   4.529  50.049  1.00  0.00     0.170 HD
ENDROOT
BRANCH   4   6
HETATM    6  C8  UNL     1      25.289   2.316  50.978  1.00  0.00     0.133 C 
BRANCH   6   7
HETATM    7  C9  UNL     1      26.174   2.386  52.158  1.00  0.00     0.061 C 
BRANCH   7   8
HETATM    8  C10 UNL     1      26.899   1.177  52.544  1.00  0.00    -0.025 A 
HETATM    9  C11 UNL     1      26.375  -0.063  52.506  1.00  0.00    -0.011 A 
HETATM   10  C12 UNL     1      27.302  -1.110  52.940  1.00  0.00     0.082 A 
HETATM   11  C13 UNL     1      28.542  -0.325  53.257  1.00  0.00     0.049 A 
HETATM   12 CL1  UNL     1      30.053  -0.995  53.828  1.00  0.00    -0.086 Cl
HETATM   13  C14 UNL     1      28.252   0.941  53.017  1.00  0.00     0.089 A 
BRANCH  13  14
HETATM   14  O2  UNL     1      29.191   1.938  53.212  1.00  0.00    -0.359 OA
HETATM   15  H14 UNL     1      30.166   1.757  53.404  1.00  0.00     0.217 HD
ENDBRANCH  13  14
ENDBRANCH   7   8
ENDBRANCH   6   7
ENDBRANCH   4   6
BRANCH   4  16
HETATM   16  C15 UNL     1      22.977   3.117  51.137  1.00  0.00     0.149 A 
HETATM   17  C16 UNL     1      22.981   2.298  52.377  1.00  0.00     0.001 A 
HETATM   18  C17 UNL     1      22.442   1.104  52.556  1.00  0.00    -0.002 A 
HETATM   19  C18 UNL     1      21.740   0.410  51.485  1.00  0.00    -0.001 A 
HETATM   20  C19 UNL     1      21.719   1.108  50.339  1.00  0.00     0.012 A 
HETATM   21  C20 UNL     1      22.287   2.446  49.997  1.00  0.00     0.219 A 
HETATM   22  F1  UNL     1      23.122   2.308  48.886  1.00  0.00    -0.243 F 
ENDBRANCH   4  16
BRANCH   3  23
HETATM   23  C2  UNL     1      26.276   6.544  49.577  1.00  0.00     0.036 A 
HETATM   24  C3  UNL     1      26.923   6.673  48.365  1.00  0.00     0.029 A 
HETATM   25  C4  UNL     1      27.386   7.870  47.880  1.00  0.00     0.002 A 
HETATM   26  C5  UNL     1      27.220   9.024  48.597  1.00  0.00     0.000 A 
HETATM   27  C6  UNL     1      26.583   8.961  49.813  1.00  0.00     0.002 A 
HETATM   28  C7  UNL     1      26.138   7.734  50.253  1.00  0.00     0.029 A 
ENDBRANCH   3  23
TORSDOF 6
ENDMDL
