MODEL 1
REMARK VINA RESULT:      -7.3      0.000      0.000
REMARK  9 active torsions:
REMARK  status: ('A' for Active; 'I' for Inactive)
REMARK    1  A    between atoms: C2_2  and  O1_3 
REMARK    2  A    between atoms: O1_3  and  S1_4 
REMARK    3  A    between atoms: S1_4  and  C3_5 
REMARK    4  A    between atoms: C3_5  and  C4_7 
REMARK    5  A    between atoms: C4_7  and  C5_8 
REMARK    6  A    between atoms: C5_8  and  N1_10 
REMARK    7  A    between atoms: N1_10  and  C7_11 
REMARK    8  A    between atoms: C12_18  and  C13_19 
REMARK    9  A    between atoms: C15_21  and  N4_22 
ROOT
HETATM    1  C7  UNL     1      22.587   1.446  50.879  1.00  0.00     0.029 A 
HETATM    2  C8  UNL     1      21.247   1.058  50.997  1.00  0.00     0.031 A 
HETATM    3  C9  UNL     1      20.923   0.254  52.069  1.00  0.00     0.035 A 
HETATM    4  C10 UNL     1      21.866  -0.144  52.975  1.00  0.00     0.070 A 
HETATM    5  N2  UNL     1      21.487  -0.948  53.980  1.00  0.00    -0.241 NA
HETATM    6  C11 UNL     1      22.422  -1.342  54.834  1.00  0.00     0.234 A 
HETATM    7  N3  UNL     1      23.685  -0.955  54.700  1.00  0.00    -0.240 NA
HETATM    8  C12 UNL     1      24.179  -0.159  53.745  1.00  0.00     0.081 A 
HETATM    9  C18 UNL     1      23.192   0.209  52.907  1.00  0.00     0.025 A 
HETATM   10  C19 UNL     1      23.476   1.006  51.828  1.00  0.00     0.045 A 
ENDROOT
BRANCH   1  11
HETATM   11  N1  UNL     1      22.960   2.258  49.800  1.00  0.00    -0.385 N 
HETATM   12  H12 UNL     1      23.966   2.527  49.716  1.00  0.00     0.160 HD
BRANCH  11  13
HETATM   13  C5  UNL     1      22.106   2.769  48.781  1.00  0.00     0.085 C 
HETATM   14  C6  UNL     1      22.477   2.066  47.465  1.00  0.00     0.032 C 
BRANCH  13  15
HETATM   15  C4  UNL     1      22.278   4.277  48.549  1.00  0.00     0.117 C 
BRANCH  15  16
HETATM   16  C3  UNL     1      22.187   4.901  49.920  1.00  0.00     0.214 C 
HETATM   17  O2  UNL     1      21.061   4.826  50.443  1.00  0.00    -0.283 OA
BRANCH  16  18
HETATM   18  S1  UNL     1      23.601   5.674  50.693  1.00  0.00     0.068 SA
BRANCH  18  19
HETATM   19  O1  UNL     1      24.867   4.551  50.937  1.00  0.00    -0.313 OA
BRANCH  19  20
HETATM   20  C2  UNL     1      25.772   4.659  49.907  1.00  0.00     0.181 C 
HETATM   21  C1  UNL     1      26.388   3.318  49.564  1.00  0.00     0.035 C 
ENDBRANCH  19  20
ENDBRANCH  18  19
ENDBRANCH  16  18
ENDBRANCH  15  16
ENDBRANCH  13  15
ENDBRANCH  11  13
ENDBRANCH   1  11
BRANCH   8  22
HETATM   22  C13 UNL     1      25.563   0.170  53.704  1.00  0.00    -0.007 A 
HETATM   23  C14 UNL     1      26.369   1.183  53.765  1.00  0.00     0.027 A 
HETATM   24  C15 UNL     1      27.811   0.902  53.650  1.00  0.00     0.281 A 
HETATM   25  C16 UNL     1      27.809  -0.574  53.476  1.00  0.00     0.026 A 
HETATM   26 BR1  UNL     1      29.422  -1.542  53.259  1.00  0.00    -0.053 Br
HETATM   27  C17 UNL     1      26.559  -0.910  53.516  1.00  0.00     0.030 A 
BRANCH  24  28
HETATM   28  N4  UNL     1      28.443   1.285  54.914  1.00  0.00     0.091 N 
HETATM   29  H18 UNL     1      28.861   2.238  54.851  1.00  0.00     0.314 HD
HETATM   30  H19 UNL     1      27.762   1.191  55.707  1.00  0.00     0.314 HD
ENDBRANCH  24  28
ENDBRANCH   8  22
TORSDOF 9
ENDMDL
MODEL 2
REMARK VINA RESULT:      -7.3      3.435      6.283
REMARK  9 active torsions:
REMARK  status: ('A' for Active; 'I' for Inactive)
REMARK    1  A    between atoms: C2_2  and  O1_3 
REMARK    2  A    between atoms: O1_3  and  S1_4 
REMARK    3  A    between atoms: S1_4  and  C3_5 
REMARK    4  A    between atoms: C3_5  and  C4_7 
REMARK    5  A    between atoms: C4_7  and  C5_8 
REMARK    6  A    between atoms: C5_8  and  N1_10 
REMARK    7  A    between atoms: N1_10  and  C7_11 
REMARK    8  A    between atoms: C12_18  and  C13_19 
REMARK    9  A    between atoms: C15_21  and  N4_22 
ROOT
HETATM    1  C7  UNL     1      22.667   0.870  52.078  1.00  0.00     0.029 A 
HETATM    2  C8  UNL     1      21.462   0.226  51.773  1.00  0.00     0.031 A 
HETATM    3  C9  UNL     1      20.895   0.513  50.550  1.00  0.00     0.035 A 
HETATM    4  C10 UNL     1      21.482   1.384  49.675  1.00  0.00     0.070 A 
HETATM    5  N2  UNL     1      20.862   1.636  48.512  1.00  0.00    -0.241 NA
HETATM    6  C11 UNL     1      21.438   2.503  47.688  1.00  0.00     0.234 A 
HETATM    7  N3  UNL     1      22.584   3.095  48.002  1.00  0.00    -0.240 NA
HETATM    8  C12 UNL     1      23.291   2.923  49.125  1.00  0.00     0.081 A 
HETATM    9  C18 UNL     1      22.664   2.039  49.923  1.00  0.00     0.025 A 
HETATM   10  C19 UNL     1      23.196   1.731  51.149  1.00  0.00     0.045 A 
ENDROOT
BRANCH   1  11
HETATM   11  N1  UNL     1      23.274   0.612  53.314  1.00  0.00    -0.385 N 
HETATM   12  H12 UNL     1      23.436   1.419  53.957  1.00  0.00     0.160 HD
BRANCH  11  13
HETATM   13  C5  UNL     1      23.704  -0.654  53.806  1.00  0.00     0.085 C 
HETATM   14  C6  UNL     1      22.689  -1.111  54.866  1.00  0.00     0.032 C 
BRANCH  13  15
HETATM   15  C4  UNL     1      25.077  -0.601  54.490  1.00  0.00     0.117 C 
BRANCH  15  16
HETATM   16  C3  UNL     1      26.069  -0.401  53.371  1.00  0.00     0.214 C 
HETATM   17  O2  UNL     1      26.170  -1.369  52.597  1.00  0.00    -0.283 OA
BRANCH  16  18
HETATM   18  S1  UNL     1      27.002   1.114  53.207  1.00  0.00     0.068 SA
BRANCH  18  19
HETATM   19  O1  UNL     1      28.087   1.321  54.513  1.00  0.00    -0.313 OA
BRANCH  19  20
HETATM   20  C2  UNL     1      28.734   0.132  54.755  1.00  0.00     0.181 C 
HETATM   21  C1  UNL     1      29.690  -0.221  53.634  1.00  0.00     0.035 C 
ENDBRANCH  19  20
ENDBRANCH  18  19
ENDBRANCH  16  18
ENDBRANCH  15  16
ENDBRANCH  13  15
ENDBRANCH  11  13
ENDBRANCH   1  11
BRANCH   8  22
HETATM   22  C13 UNL     1      24.503   3.634  49.348  1.00  0.00    -0.007 A 
HETATM   23  C14 UNL     1      25.777   3.449  49.496  1.00  0.00     0.027 A 
HETATM   24  C15 UNL     1      26.608   4.645  49.722  1.00  0.00     0.281 A 
HETATM   25  C16 UNL     1      25.582   5.721  49.709  1.00  0.00     0.026 A 
HETATM   26 BR1  UNL     1      26.056   7.535  49.967  1.00  0.00    -0.053 Br
HETATM   27  C17 UNL     1      24.460   5.107  49.500  1.00  0.00     0.030 A 
BRANCH  24  28
HETATM   28  N4  UNL     1      27.523   4.773  48.587  1.00  0.00     0.091 N 
HETATM   29  H18 UNL     1      28.420   5.219  48.876  1.00  0.00     0.314 HD
HETATM   30  H19 UNL     1      27.662   3.843  48.122  1.00  0.00     0.314 HD
ENDBRANCH  24  28
ENDBRANCH   8  22
TORSDOF 9
ENDMDL
MODEL 3
REMARK VINA RESULT:      -7.2      1.210      1.459
REMARK  9 active torsions:
REMARK  status: ('A' for Active; 'I' for Inactive)
REMARK    1  A    between atoms: C2_2  and  O1_3 
REMARK    2  A    between atoms: O1_3  and  S1_4 
REMARK    3  A    between atoms: S1_4  and  C3_5 
REMARK    4  A    between atoms: C3_5  and  C4_7 
REMARK    5  A    between atoms: C4_7  and  C5_8 
REMARK    6  A    between atoms: C5_8  and  N1_10 
REMARK    7  A    between atoms: N1_10  and  C7_11 
REMARK    8  A    between atoms: C12_18  and  C13_19 
REMARK    9  A    between atoms: C15_21  and  N4_22 
ROOT
HETATM    1  C7  UNL     1      22.136   1.257  50.643  1.00  0.00     0.029 A 
HETATM    2  C8  UNL     1      20.847   0.768  50.889  1.00  0.00     0.031 A 
HETATM    3  C9  UNL     1      20.671   0.030  52.040  1.00  0.00     0.035 A 
HETATM    4  C10 UNL     1      21.705  -0.211  52.902  1.00  0.00     0.070 A 
HETATM    5  N2  UNL     1      21.468  -0.958  53.990  1.00  0.00    -0.241 NA
HETATM    6  C11 UNL     1      22.491  -1.200  54.800  1.00  0.00     0.234 A 
HETATM    7  N3  UNL     1      23.702  -0.718  54.544  1.00  0.00    -0.240 NA
HETATM    8  C12 UNL     1      24.056   0.036  53.497  1.00  0.00     0.081 A 
HETATM    9  C18 UNL     1      22.986   0.248  52.709  1.00  0.00     0.025 A 
HETATM   10  C19 UNL     1      23.123   0.974  51.554  1.00  0.00     0.045 A 
ENDROOT
BRANCH   1  11
HETATM   11  N1  UNL     1      22.360   2.007  49.480  1.00  0.00    -0.385 N 
HETATM   12  H12 UNL     1      22.201   1.540  48.560  1.00  0.00     0.160 HD
BRANCH  11  13
HETATM   13  C5  UNL     1      22.790   3.363  49.410  1.00  0.00     0.085 C 
HETATM   14  C6  UNL     1      22.458   3.885  48.002  1.00  0.00     0.032 C 
BRANCH  13  15
HETATM   15  C4  UNL     1      24.303   3.528  49.606  1.00  0.00     0.117 C 
BRANCH  15  16
HETATM   16  C3  UNL     1      24.454   4.646  50.606  1.00  0.00     0.214 C 
HETATM   17  O2  UNL     1      24.008   4.386  51.737  1.00  0.00    -0.283 OA
BRANCH  16  18
HETATM   18  S1  UNL     1      25.215   6.202  50.163  1.00  0.00     0.068 SA
BRANCH  18  19
HETATM   19  O1  UNL     1      25.653   6.232  48.511  1.00  0.00    -0.313 OA
BRANCH  19  20
HETATM   20  C2  UNL     1      27.023   6.304  48.407  1.00  0.00     0.181 C 
HETATM   21  C1  UNL     1      27.671   4.955  48.646  1.00  0.00     0.035 C 
ENDBRANCH  19  20
ENDBRANCH  18  19
ENDBRANCH  16  18
ENDBRANCH  15  16
ENDBRANCH  13  15
ENDBRANCH  11  13
ENDBRANCH   1  11
BRANCH   8  22
HETATM   22  C13 UNL     1      25.398   0.477  53.329  1.00  0.00    -0.007 A 
HETATM   23  C14 UNL     1      26.090   1.523  53.002  1.00  0.00     0.027 A 
HETATM   24  C15 UNL     1      27.558   1.381  52.993  1.00  0.00     0.281 A 
HETATM   25  C16 UNL     1      27.717  -0.044  53.385  1.00  0.00     0.026 A 
HETATM   26 BR1  UNL     1      29.429  -0.837  53.537  1.00  0.00    -0.053 Br
HETATM   27  C17 UNL     1      26.508  -0.478  53.554  1.00  0.00     0.030 A 
BRANCH  24  28
HETATM   28  N4  UNL     1      28.098   2.275  54.019  1.00  0.00     0.091 N 
HETATM   29  H18 UNL     1      28.119   3.262  53.683  1.00  0.00     0.314 HD
HETATM   30  H19 UNL     1      27.571   2.162  54.918  1.00  0.00     0.314 HD
ENDBRANCH  24  28
ENDBRANCH   8  22
TORSDOF 9
ENDMDL
MODEL 4
REMARK VINA RESULT:      -7.2      2.852      5.665
REMARK  9 active torsions:
REMARK  status: ('A' for Active; 'I' for Inactive)
REMARK    1  A    between atoms: C2_2  and  O1_3 
REMARK    2  A    between atoms: O1_3  and  S1_4 
REMARK    3  A    between atoms: S1_4  and  C3_5 
REMARK    4  A    between atoms: C3_5  and  C4_7 
REMARK    5  A    between atoms: C4_7  and  C5_8 
REMARK    6  A    between atoms: C5_8  and  N1_10 
REMARK    7  A    between atoms: N1_10  and  C7_11 
REMARK    8  A    between atoms: C12_18  and  C13_19 
REMARK    9  A    between atoms: C15_21  and  N4_22 
ROOT
HETATM    1  C7  UNL     1      23.441  -0.458  53.838  1.00  0.00     0.029 A 
HETATM    2  C8  UNL     1      22.713  -1.188  54.785  1.00  0.00     0.031 A 
HETATM    3  C9  UNL     1      21.350  -1.271  54.594  1.00  0.00     0.035 A 
HETATM    4  C10 UNL     1      20.738  -0.670  53.530  1.00  0.00     0.070 A 
HETATM    5  N2  UNL     1      19.405  -0.769  53.419  1.00  0.00    -0.241 NA
HETATM    6  C11 UNL     1      18.830  -0.158  52.392  1.00  0.00     0.234 A 
HETATM    7  N3  UNL     1      19.546   0.524  51.506  1.00  0.00    -0.240 NA
HETATM    8  C12 UNL     1      20.873   0.691  51.511  1.00  0.00     0.081 A 
HETATM    9  C18 UNL     1      21.405   0.055  52.572  1.00  0.00     0.025 A 
HETATM   10  C19 UNL     1      22.757   0.117  52.796  1.00  0.00     0.045 A 
ENDROOT
BRANCH   1  11
HETATM   11  N1  UNL     1      24.828  -0.343  53.998  1.00  0.00    -0.385 N 
HETATM   12  H12 UNL     1      25.254  -0.731  54.869  1.00  0.00     0.160 HD
BRANCH  11  13
HETATM   13  C5  UNL     1      25.745   0.253  53.085  1.00  0.00     0.085 C 
HETATM   14  C6  UNL     1      26.729  -0.838  52.632  1.00  0.00     0.032 C 
BRANCH  13  15
HETATM   15  C4  UNL     1      26.579   1.377  53.717  1.00  0.00     0.117 C 
BRANCH  15  16
HETATM   16  C3  UNL     1      27.177   2.128  52.553  1.00  0.00     0.214 C 
HETATM   17  O2  UNL     1      28.397   2.347  52.658  1.00  0.00    -0.283 OA
BRANCH  16  18
HETATM   18  S1  UNL     1      26.183   2.644  51.161  1.00  0.00     0.068 SA
BRANCH  18  19
HETATM   19  O1  UNL     1      27.119   3.492  50.009  1.00  0.00    -0.313 OA
BRANCH  19  20
HETATM   20  C2  UNL     1      26.303   4.346  49.303  1.00  0.00     0.181 C 
HETATM   21  C1  UNL     1      27.094   5.471  48.666  1.00  0.00     0.035 C 
ENDBRANCH  19  20
ENDBRANCH  18  19
ENDBRANCH  16  18
ENDBRANCH  15  16
ENDBRANCH  13  15
ENDBRANCH  11  13
ENDBRANCH   1  11
BRANCH   8  22
HETATM   22  C13 UNL     1      21.522   1.462  50.507  1.00  0.00    -0.007 A 
HETATM   23  C14 UNL     1      22.136   1.343  49.372  1.00  0.00     0.027 A 
HETATM   24  C15 UNL     1      22.640   2.580  48.747  1.00  0.00     0.281 A 
HETATM   25  C16 UNL     1      22.232   3.601  49.748  1.00  0.00     0.026 A 
HETATM   26 BR1  UNL     1      22.625   5.435  49.498  1.00  0.00    -0.053 Br
HETATM   27  C17 UNL     1      21.629   2.930  50.679  1.00  0.00     0.030 A 
BRANCH  24  28
HETATM   28  N4  UNL     1      21.924   2.763  47.483  1.00  0.00     0.091 N 
HETATM   29  H18 UNL     1      22.200   3.657  47.023  1.00  0.00     0.314 HD
HETATM   30  H19 UNL     1      22.056   1.928  46.863  1.00  0.00     0.314 HD
ENDBRANCH  24  28
ENDBRANCH   8  22
TORSDOF 9
ENDMDL
MODEL 5
REMARK VINA RESULT:      -7.2      2.982      4.855
REMARK  9 active torsions:
REMARK  status: ('A' for Active; 'I' for Inactive)
REMARK    1  A    between atoms: C2_2  and  O1_3 
REMARK    2  A    between atoms: O1_3  and  S1_4 
REMARK    3  A    between atoms: S1_4  and  C3_5 
REMARK    4  A    between atoms: C3_5  and  C4_7 
REMARK    5  A    between atoms: C4_7  and  C5_8 
REMARK    6  A    between atoms: C5_8  and  N1_10 
REMARK    7  A    between atoms: N1_10  and  C7_11 
REMARK    8  A    between atoms: C12_18  and  C13_19 
REMARK    9  A    between atoms: C15_21  and  N4_22 
ROOT
HETATM    1  C7  UNL     1      21.754   0.170  52.312  1.00  0.00     0.029 A 
HETATM    2  C8  UNL     1      22.157  -1.020  52.929  1.00  0.00     0.031 A 
HETATM    3  C9  UNL     1      23.393  -1.018  53.539  1.00  0.00     0.035 A 
HETATM    4  C10 UNL     1      24.188   0.094  53.543  1.00  0.00     0.070 A 
HETATM    5  N2  UNL     1      25.390   0.018  54.133  1.00  0.00    -0.241 NA
HETATM    6  C11 UNL     1      26.155   1.102  54.104  1.00  0.00     0.234 A 
HETATM    7  N3  UNL     1      25.745   2.219  53.516  1.00  0.00    -0.240 NA
HETATM    8  C12 UNL     1      24.574   2.414  52.900  1.00  0.00     0.081 A 
HETATM    9  C18 UNL     1      23.840   1.286  52.956  1.00  0.00     0.025 A 
HETATM   10  C19 UNL     1      22.607   1.246  52.358  1.00  0.00     0.045 A 
ENDROOT
BRANCH   1  11
HETATM   11  N1  UNL     1      20.507   0.210  51.675  1.00  0.00    -0.385 N 
HETATM   12  H12 UNL     1      20.450  -0.138  50.692  1.00  0.00     0.160 HD
BRANCH  11  13
HETATM   13  C5  UNL     1      19.281   0.680  52.228  1.00  0.00     0.085 C 
HETATM   14  C6  UNL     1      18.313  -0.512  52.295  1.00  0.00     0.032 C 
BRANCH  13  15
HETATM   15  C4  UNL     1      18.607   1.759  51.369  1.00  0.00     0.117 C 
BRANCH  15  16
HETATM   16  C3  UNL     1      19.471   2.985  51.524  1.00  0.00     0.214 C 
HETATM   17  O2  UNL     1      19.832   3.214  52.692  1.00  0.00    -0.283 OA
BRANCH  16  18
HETATM   18  S1  UNL     1      19.917   4.000  50.122  1.00  0.00     0.068 SA
BRANCH  18  19
HETATM   19  O1  UNL     1      21.466   3.589  49.524  1.00  0.00    -0.313 OA
BRANCH  19  20
HETATM   20  C2  UNL     1      21.325   2.886  48.350  1.00  0.00     0.181 C 
HETATM   21  C1  UNL     1      21.621   1.412  48.546  1.00  0.00     0.035 C 
ENDBRANCH  19  20
ENDBRANCH  18  19
ENDBRANCH  16  18
ENDBRANCH  15  16
ENDBRANCH  13  15
ENDBRANCH  11  13
ENDBRANCH   1  11
BRANCH   8  22
HETATM   22  C13 UNL     1      24.260   3.661  52.292  1.00  0.00    -0.007 A 
HETATM   23  C14 UNL     1      23.600   4.756  52.501  1.00  0.00     0.027 A 
HETATM   24  C15 UNL     1      23.630   5.774  51.434  1.00  0.00     0.281 A 
HETATM   25  C16 UNL     1      24.474   5.101  50.412  1.00  0.00     0.026 A 
HETATM   26 BR1  UNL     1      24.873   5.936  48.761  1.00  0.00    -0.053 Br
HETATM   27  C17 UNL     1      24.785   3.959  50.938  1.00  0.00     0.030 A 
BRANCH  24  28
HETATM   28  N4  UNL     1      24.296   6.962  51.971  1.00  0.00     0.091 N 
HETATM   29  H18 UNL     1      23.862   7.834  51.601  1.00  0.00     0.314 HD
HETATM   30  H19 UNL     1      24.315   6.930  53.019  1.00  0.00     0.314 HD
ENDBRANCH  24  28
ENDBRANCH   8  22
TORSDOF 9
ENDMDL
MODEL 6
REMARK VINA RESULT:      -7.0      1.462      2.020
REMARK  9 active torsions:
REMARK  status: ('A' for Active; 'I' for Inactive)
REMARK    1  A    between atoms: C2_2  and  O1_3 
REMARK    2  A    between atoms: O1_3  and  S1_4 
REMARK    3  A    between atoms: S1_4  and  C3_5 
REMARK    4  A    between atoms: C3_5  and  C4_7 
REMARK    5  A    between atoms: C4_7  and  C5_8 
REMARK    6  A    between atoms: C5_8  and  N1_10 
REMARK    7  A    between atoms: N1_10  and  C7_11 
REMARK    8  A    between atoms: C12_18  and  C13_19 
REMARK    9  A    between atoms: C15_21  and  N4_22 
ROOT
HETATM    1  C7  UNL     1      22.143   1.603  50.747  1.00  0.00     0.029 A 
HETATM    2  C8  UNL     1      20.873   1.053  50.954  1.00  0.00     0.031 A 
HETATM    3  C9  UNL     1      20.735   0.187  52.019  1.00  0.00     0.035 A 
HETATM    4  C10 UNL     1      21.789  -0.119  52.834  1.00  0.00     0.070 A 
HETATM    5  N2  UNL     1      21.590  -0.988  53.836  1.00  0.00    -0.241 NA
HETATM    6  C11 UNL     1      22.632  -1.289  54.600  1.00  0.00     0.234 A 
HETATM    7  N3  UNL     1      23.825  -0.748  54.383  1.00  0.00    -0.240 NA
HETATM    8  C12 UNL     1      24.142   0.127  53.422  1.00  0.00     0.081 A 
HETATM    9  C18 UNL     1      23.054   0.395  52.677  1.00  0.00     0.025 A 
HETATM   10  C19 UNL     1      23.153   1.248  51.608  1.00  0.00     0.045 A 
ENDROOT
BRANCH   1  11
HETATM   11  N1  UNL     1      22.329   2.483  49.673  1.00  0.00    -0.385 N 
HETATM   12  H12 UNL     1      22.274   2.092  48.706  1.00  0.00     0.160 HD
BRANCH  11  13
HETATM   13  C5  UNL     1      22.589   3.881  49.750  1.00  0.00     0.085 C 
HETATM   14  C6  UNL     1      21.248   4.614  49.578  1.00  0.00     0.032 C 
BRANCH  13  15
HETATM   15  C4  UNL     1      23.523   4.384  48.641  1.00  0.00     0.117 C 
BRANCH  15  16
HETATM   16  C3  UNL     1      24.909   4.317  49.231  1.00  0.00     0.214 C 
HETATM   17  O2  UNL     1      25.201   3.217  49.731  1.00  0.00    -0.283 OA
BRANCH  16  18
HETATM   18  S1  UNL     1      26.011   5.724  49.194  1.00  0.00     0.068 SA
BRANCH  18  19
HETATM   19  O1  UNL     1      25.151   7.192  49.370  1.00  0.00    -0.313 OA
BRANCH  19  20
HETATM   20  C2  UNL     1      24.665   7.280  50.654  1.00  0.00     0.181 C 
HETATM   21  C1  UNL     1      23.192   7.635  50.668  1.00  0.00     0.035 C 
ENDBRANCH  19  20
ENDBRANCH  18  19
ENDBRANCH  16  18
ENDBRANCH  15  16
ENDBRANCH  13  15
ENDBRANCH  11  13
ENDBRANCH   1  11
BRANCH   8  22
HETATM   22  C13 UNL     1      25.469   0.622  53.286  1.00  0.00    -0.007 A 
HETATM   23  C14 UNL     1      26.127   1.685  52.944  1.00  0.00     0.027 A 
HETATM   24  C15 UNL     1      27.598   1.609  52.994  1.00  0.00     0.281 A 
HETATM   25  C16 UNL     1      27.805   0.209  53.448  1.00  0.00     0.026 A 
HETATM   26 BR1  UNL     1      29.542  -0.500  53.695  1.00  0.00    -0.053 Br
HETATM   27  C17 UNL     1      26.610  -0.273  53.590  1.00  0.00     0.030 A 
BRANCH  24  28
HETATM   28  N4  UNL     1      28.059   2.565  54.004  1.00  0.00     0.091 N 
HETATM   29  H18 UNL     1      28.623   2.090  54.740  1.00  0.00     0.314 HD
HETATM   30  H19 UNL     1      28.570   3.361  53.549  1.00  0.00     0.314 HD
ENDBRANCH  24  28
ENDBRANCH   8  22
TORSDOF 9
ENDMDL
MODEL 7
REMARK VINA RESULT:      -6.9      3.769      6.691
REMARK  9 active torsions:
REMARK  status: ('A' for Active; 'I' for Inactive)
REMARK    1  A    between atoms: C2_2  and  O1_3 
REMARK    2  A    between atoms: O1_3  and  S1_4 
REMARK    3  A    between atoms: S1_4  and  C3_5 
REMARK    4  A    between atoms: C3_5  and  C4_7 
REMARK    5  A    between atoms: C4_7  and  C5_8 
REMARK    6  A    between atoms: C5_8  and  N1_10 
REMARK    7  A    between atoms: N1_10  and  C7_11 
REMARK    8  A    between atoms: C12_18  and  C13_19 
REMARK    9  A    between atoms: C15_21  and  N4_22 
ROOT
HETATM    1  C7  UNL     1      24.737   2.853  51.243  1.00  0.00     0.029 A 
HETATM    2  C8  UNL     1      25.077   3.540  50.072  1.00  0.00     0.031 A 
HETATM    3  C9  UNL     1      24.190   3.455  49.020  1.00  0.00     0.035 A 
HETATM    4  C10 UNL     1      23.033   2.733  49.116  1.00  0.00     0.070 A 
HETATM    5  N2  UNL     1      22.228   2.671  48.045  1.00  0.00    -0.241 NA
HETATM    6  C11 UNL     1      21.122   1.946  48.152  1.00  0.00     0.234 A 
HETATM    7  N3  UNL     1      20.822   1.308  49.278  1.00  0.00    -0.240 NA
HETATM    8  C12 UNL     1      21.543   1.297  50.405  1.00  0.00     0.081 A 
HETATM    9  C18 UNL     1      22.651   2.043  50.241  1.00  0.00     0.025 A 
HETATM   10  C19 UNL     1      23.558   2.150  51.264  1.00  0.00     0.045 A 
ENDROOT
BRANCH   1  11
HETATM   11  N1  UNL     1      25.614   2.908  52.335  1.00  0.00    -0.385 N 
HETATM   12  H12 UNL     1      25.801   3.841  52.764  1.00  0.00     0.160 HD
BRANCH  11  13
HETATM   13  C5  UNL     1      26.291   1.811  52.941  1.00  0.00     0.085 C 
HETATM   14  C6  UNL     1      27.678   2.307  53.382  1.00  0.00     0.032 C 
BRANCH  13  15
HETATM   15  C4  UNL     1      26.517   0.636  51.980  1.00  0.00     0.117 C 
BRANCH  15  16
HETATM   16  C3  UNL     1      26.351  -0.603  52.823  1.00  0.00     0.214 C 
HETATM   17  O2  UNL     1      25.512  -0.494  53.734  1.00  0.00    -0.283 OA
BRANCH  16  18
HETATM   18  S1  UNL     1      27.301  -2.084  52.509  1.00  0.00     0.068 SA
BRANCH  18  19
HETATM   19  O1  UNL     1      28.603  -2.232  53.608  1.00  0.00    -0.313 OA
BRANCH  19  20
HETATM   20  C2  UNL     1      28.983  -0.979  54.031  1.00  0.00     0.181 C 
HETATM   21  C1  UNL     1      30.085  -0.410  53.160  1.00  0.00     0.035 C 
ENDBRANCH  19  20
ENDBRANCH  18  19
ENDBRANCH  16  18
ENDBRANCH  15  16
ENDBRANCH  13  15
ENDBRANCH  11  13
ENDBRANCH   1  11
BRANCH   8  22
HETATM   22  C13 UNL     1      21.117   0.556  51.542  1.00  0.00    -0.007 A 
HETATM   23  C14 UNL     1      21.565   0.037  52.643  1.00  0.00     0.027 A 
HETATM   24  C15 UNL     1      20.594  -0.676  53.493  1.00  0.00     0.281 A 
HETATM   25  C16 UNL     1      19.347  -0.535  52.695  1.00  0.00     0.026 A 
HETATM   26 BR1  UNL     1      17.710  -1.279  53.288  1.00  0.00    -0.053 Br
HETATM   27  C17 UNL     1      19.698   0.145  51.649  1.00  0.00     0.030 A 
BRANCH  24  28
HETATM   28  N4  UNL     1      20.496   0.050  54.761  1.00  0.00     0.091 N 
HETATM   29  H18 UNL     1      21.109   0.893  54.759  1.00  0.00     0.314 HD
HETATM   30  H19 UNL     1      19.494   0.275  54.978  1.00  0.00     0.314 HD
ENDBRANCH  24  28
ENDBRANCH   8  22
TORSDOF 9
ENDMDL
MODEL 8
REMARK VINA RESULT:      -6.8      2.567      4.367
REMARK  9 active torsions:
REMARK  status: ('A' for Active; 'I' for Inactive)
REMARK    1  A    between atoms: C2_2  and  O1_3 
REMARK    2  A    between atoms: O1_3  and  S1_4 
REMARK    3  A    between atoms: S1_4  and  C3_5 
REMARK    4  A    between atoms: C3_5  and  C4_7 
REMARK    5  A    between atoms: C4_7  and  C5_8 
REMARK    6  A    between atoms: C5_8  and  N1_10 
REMARK    7  A    between atoms: N1_10  and  C7_11 
REMARK    8  A    between atoms: C12_18  and  C13_19 
REMARK    9  A    between atoms: C15_21  and  N4_22 
ROOT
HETATM    1  C7  UNL     1      25.798   4.439  49.721  1.00  0.00     0.029 A 
HETATM    2  C8  UNL     1      24.737   4.717  48.852  1.00  0.00     0.031 A 
HETATM    3  C9  UNL     1      23.604   3.942  48.985  1.00  0.00     0.035 A 
HETATM    4  C10 UNL     1      23.521   2.950  49.922  1.00  0.00     0.070 A 
HETATM    5  N2  UNL     1      22.399   2.217  49.979  1.00  0.00    -0.241 NA
HETATM    6  C11 UNL     1      22.349   1.244  50.880  1.00  0.00     0.234 A 
HETATM    7  N3  UNL     1      23.370   1.007  51.695  1.00  0.00    -0.240 NA
HETATM    8  C12 UNL     1      24.533   1.668  51.732  1.00  0.00     0.081 A 
HETATM    9  C18 UNL     1      24.532   2.639  50.800  1.00  0.00     0.025 A 
HETATM   10  C19 UNL     1      25.641   3.428  50.636  1.00  0.00     0.045 A 
ENDROOT
BRANCH   1  11
HETATM   11  N1  UNL     1      26.971   5.199  49.616  1.00  0.00    -0.385 N 
HETATM   12  H12 UNL     1      27.549   5.328  50.476  1.00  0.00     0.160 HD
BRANCH  11  13
HETATM   13  C5  UNL     1      27.477   5.829  48.442  1.00  0.00     0.085 C 
HETATM   14  C6  UNL     1      28.877   5.254  48.172  1.00  0.00     0.032 C 
BRANCH  13  15
HETATM   15  C4  UNL     1      27.635   7.348  48.594  1.00  0.00     0.117 C 
BRANCH  15  16
HETATM   16  C3  UNL     1      26.390   7.939  47.981  1.00  0.00     0.214 C 
HETATM   17  O2  UNL     1      26.401   7.982  46.739  1.00  0.00    -0.283 OA
BRANCH  16  18
HETATM   18  S1  UNL     1      25.034   8.517  48.991  1.00  0.00     0.068 SA
BRANCH  18  19
HETATM   19  O1  UNL     1      25.028   7.755  50.521  1.00  0.00    -0.313 OA
BRANCH  19  20
HETATM   20  C2  UNL     1      23.732   7.645  50.967  1.00  0.00     0.181 C 
HETATM   21  C1  UNL     1      22.739   7.784  49.831  1.00  0.00     0.035 C 
ENDBRANCH  19  20
ENDBRANCH  18  19
ENDBRANCH  16  18
ENDBRANCH  15  16
ENDBRANCH  13  15
ENDBRANCH  11  13
ENDBRANCH   1  11
BRANCH   8  22
HETATM   22  C13 UNL     1      25.558   1.303  52.648  1.00  0.00    -0.007 A 
HETATM   23  C14 UNL     1      26.037   1.608  53.813  1.00  0.00     0.027 A 
HETATM   24  C15 UNL     1      27.202   0.838  54.284  1.00  0.00     0.281 A 
HETATM   25  C16 UNL     1      27.428  -0.083  53.139  1.00  0.00     0.026 A 
HETATM   26 BR1  UNL     1      28.838  -1.345  53.154  1.00  0.00    -0.053 Br
HETATM   27  C17 UNL     1      26.502   0.219  52.284  1.00  0.00     0.030 A 
BRANCH  24  28
HETATM   28  N4  UNL     1      26.793   0.101  55.482  1.00  0.00     0.091 N 
HETATM   29  H18 UNL     1      27.370  -0.758  55.609  1.00  0.00     0.314 HD
HETATM   30  H19 UNL     1      26.809   0.730  56.322  1.00  0.00     0.314 HD
ENDBRANCH  24  28
ENDBRANCH   8  22
TORSDOF 9
ENDMDL
MODEL 9
REMARK VINA RESULT:      -6.8      3.842      6.356
REMARK  9 active torsions:
REMARK  status: ('A' for Active; 'I' for Inactive)
REMARK    1  A    between atoms: C2_2  and  O1_3 
REMARK    2  A    between atoms: O1_3  and  S1_4 
REMARK    3  A    between atoms: S1_4  and  C3_5 
REMARK    4  A    between atoms: C3_5  and  C4_7 
REMARK    5  A    between atoms: C4_7  and  C5_8 
REMARK    6  A    between atoms: C5_8  and  N1_10 
REMARK    7  A    between atoms: N1_10  and  C7_11 
REMARK    8  A    between atoms: C12_18  and  C13_19 
REMARK    9  A    between atoms: C15_21  and  N4_22 
ROOT
HETATM    1  C7  UNL     1      21.997   0.735  51.562  1.00  0.00     0.029 A 
HETATM    2  C8  UNL     1      21.370   1.401  50.503  1.00  0.00     0.031 A 
HETATM    3  C9  UNL     1      22.124   2.331  49.818  1.00  0.00     0.035 A 
HETATM    4  C10 UNL     1      23.423   2.588  50.158  1.00  0.00     0.070 A 
HETATM    5  N2  UNL     1      24.090   3.524  49.465  1.00  0.00    -0.241 NA
HETATM    6  C11 UNL     1      25.342   3.775  49.827  1.00  0.00     0.234 A 
HETATM    7  N3  UNL     1      25.913   3.123  50.833  1.00  0.00    -0.240 NA
HETATM    8  C12 UNL     1      25.351   2.175  51.591  1.00  0.00     0.081 A 
HETATM    9  C18 UNL     1      24.085   1.962  51.185  1.00  0.00     0.025 A 
HETATM   10  C19 UNL     1      23.304   1.047  51.843  1.00  0.00     0.045 A 
ENDROOT
BRANCH   1  11
HETATM   11  N1  UNL     1      21.264  -0.213  52.289  1.00  0.00    -0.385 N 
HETATM   12  H12 UNL     1      21.430  -1.223  52.080  1.00  0.00     0.160 HD
BRANCH  11  13
HETATM   13  C5  UNL     1      20.299   0.049  53.304  1.00  0.00     0.085 C 
HETATM   14  C6  UNL     1      21.056   0.242  54.628  1.00  0.00     0.032 C 
BRANCH  13  15
HETATM   15  C4  UNL     1      19.314  -1.110  53.513  1.00  0.00     0.117 C 
BRANCH  15  16
HETATM   16  C3  UNL     1      18.114  -0.768  52.666  1.00  0.00     0.214 C 
HETATM   17  O2  UNL     1      18.238   0.276  52.001  1.00  0.00    -0.283 OA
BRANCH  16  18
HETATM   18  S1  UNL     1      16.655  -1.800  52.649  1.00  0.00     0.068 SA
BRANCH  18  19
HETATM   19  O1  UNL     1      16.995  -3.366  53.244  1.00  0.00    -0.313 OA
BRANCH  19  20
HETATM   20  C2  UNL     1      15.830  -4.098  53.282  1.00  0.00     0.181 C 
HETATM   21  C1  UNL     1      15.953  -5.291  54.208  1.00  0.00     0.035 C 
ENDBRANCH  19  20
ENDBRANCH  18  19
ENDBRANCH  16  18
ENDBRANCH  15  16
ENDBRANCH  13  15
ENDBRANCH  11  13
ENDBRANCH   1  11
BRANCH   8  22
HETATM   22  C13 UNL     1      26.069   1.562  52.655  1.00  0.00    -0.007 A 
HETATM   23  C14 UNL     1      26.135   1.526  53.949  1.00  0.00     0.027 A 
HETATM   24  C15 UNL     1      27.158   0.649  54.546  1.00  0.00     0.281 A 
HETATM   25  C16 UNL     1      27.806   0.086  53.332  1.00  0.00     0.026 A 
HETATM   26 BR1  UNL     1      29.244  -1.137  53.462  1.00  0.00    -0.053 Br
HETATM   27  C17 UNL     1      27.168   0.620  52.339  1.00  0.00     0.030 A 
BRANCH  24  28
HETATM   28  N4  UNL     1      26.463  -0.392  55.306  1.00  0.00     0.091 N 
HETATM   29  H18 UNL     1      27.140  -1.018  55.791  1.00  0.00     0.314 HD
HETATM   30  H19 UNL     1      25.763   0.036  55.959  1.00  0.00     0.314 HD
ENDBRANCH  24  28
ENDBRANCH   8  22
TORSDOF 9
ENDMDL
