MODEL 1
REMARK VINA RESULT:      -7.9      0.000      0.000
REMARK  6 active torsions:
REMARK  status: ('A' for Active; 'I' for Inactive)
REMARK    1  A    between atoms: C2_2  and  C3_3 
REMARK       I    between atoms: C3_3  and  N1_5 
REMARK    2  A    between atoms: N1_5  and  C4_6 
REMARK    3  A    between atoms: C7_9  and  N2_10 
REMARK    4  A    between atoms: N2_10  and  C8_11 
REMARK    5  A    between atoms: C10_13  and  C11_14 
REMARK    6  A    between atoms: C17_22  and  O2_23 
ROOT
HETATM    1  C4  UNL     1      24.455   3.485  51.115  1.00  0.00     0.069 A 
HETATM    2  C5  UNL     1      25.001   2.688  52.102  1.00  0.00     0.050 A 
HETATM    3  C6  UNL     1      24.346   1.552  52.527  1.00  0.00     0.041 A 
HETATM    4  C7  UNL     1      24.952   0.804  53.516  1.00  0.00     0.138 A 
HETATM    5  N3  UNL     1      24.332  -0.307  53.946  1.00  0.00    -0.224 NA
HETATM    6  C14 UNL     1      23.147  -0.684  53.424  1.00  0.00     0.235 A 
HETATM    7  N4  UNL     1      22.566   0.065  52.451  1.00  0.00    -0.241 NA
HETATM    8  C15 UNL     1      23.133   1.183  51.980  1.00  0.00     0.075 A 
HETATM    9  C16 UNL     1      22.599   1.981  51.002  1.00  0.00     0.071 A 
HETATM   10  C17 UNL     1      23.243   3.131  50.558  1.00  0.00     0.097 A 
ENDROOT
BRANCH   4  11
HETATM   11  N2  UNL     1      26.200   1.110  54.135  1.00  0.00    -0.369 N 
HETATM   12  H8  UNL     1      26.561   2.000  54.488  1.00  0.00     0.161 HD
BRANCH  11  13
HETATM   13  C8  UNL     1      27.218   0.177  54.384  1.00  0.00     0.086 A 
HETATM   14  C9  UNL     1      28.694   1.112  54.380  1.00  0.00     0.001 A 
HETATM   15  C10 UNL     1      28.860  -0.111  54.722  1.00  0.00     0.029 A 
HETATM   16  C13 UNL     1      28.421   2.298  53.658  1.00  0.00    -0.035 A 
HETATM   17  C11 UNL     1      28.145  -0.189  53.322  1.00  0.00     0.030 A 
HETATM   18  C12 UNL     1      28.266   1.226  52.789  1.00  0.00     0.026 A 
ENDBRANCH  11  13
ENDBRANCH   4  11
BRANCH   1  19
HETATM   19  N1  UNL     1      25.054   4.685  50.602  1.00  0.00    -0.325 N 
HETATM   20  C3  UNL     1      25.997   4.419  49.605  1.00  0.00     0.221 C 
HETATM   21  O1  UNL     1      26.150   3.201  49.339  1.00  0.00    -0.273 OA
HETATM   22  H6  UNL     1      24.816   5.666  50.936  1.00  0.00     0.169 HD
BRANCH  20  23
HETATM   23  C2  UNL     1      26.737   5.539  48.941  1.00  0.00     0.098 C 
HETATM   24  C1  UNL     1      28.102   5.120  48.492  1.00  0.00     0.014 C 
ENDBRANCH  20  23
ENDBRANCH   1  19
BRANCH  10  25
HETATM   25  O2  UNL     1      22.640   3.890  49.562  1.00  0.00    -0.354 OA
HETATM   26  C18 UNL     1      22.567   3.499  48.221  1.00  0.00     0.210 C 
ENDBRANCH  10  25
TORSDOF 6
ENDMDL
MODEL 2
REMARK VINA RESULT:      -7.8      2.067      5.259
REMARK  6 active torsions:
REMARK  status: ('A' for Active; 'I' for Inactive)
REMARK    1  A    between atoms: C2_2  and  C3_3 
REMARK       I    between atoms: C3_3  and  N1_5 
REMARK    2  A    between atoms: N1_5  and  C4_6 
REMARK    3  A    between atoms: C7_9  and  N2_10 
REMARK    4  A    between atoms: N2_10  and  C8_11 
REMARK    5  A    between atoms: C10_13  and  C11_14 
REMARK    6  A    between atoms: C17_22  and  O2_23 
ROOT
HETATM    1  C4  UNL     1      26.045   1.390  52.024  1.00  0.00     0.069 A 
HETATM    2  C5  UNL     1      24.847   0.757  52.284  1.00  0.00     0.050 A 
HETATM    3  C6  UNL     1      24.670   0.043  53.451  1.00  0.00     0.041 A 
HETATM    4  C7  UNL     1      23.445  -0.563  53.643  1.00  0.00     0.138 A 
HETATM    5  N3  UNL     1      23.250  -1.264  54.772  1.00  0.00    -0.224 NA
HETATM    6  C14 UNL     1      24.227  -1.373  55.695  1.00  0.00     0.235 A 
HETATM    7  N4  UNL     1      25.426  -0.770  55.488  1.00  0.00    -0.241 NA
HETATM    8  C15 UNL     1      25.683  -0.058  54.383  1.00  0.00     0.075 A 
HETATM    9  C16 UNL     1      26.870   0.573  54.115  1.00  0.00     0.071 A 
HETATM   10  C17 UNL     1      27.069   1.299  52.945  1.00  0.00     0.097 A 
ENDROOT
BRANCH   4  11
HETATM   11  N2  UNL     1      22.346  -0.511  52.735  1.00  0.00    -0.369 N 
HETATM   12  H8  UNL     1      22.316  -0.674  51.726  1.00  0.00     0.161 HD
BRANCH  11  13
HETATM   13  C8  UNL     1      21.025  -0.205  53.096  1.00  0.00     0.086 A 
HETATM   14  C9  UNL     1      20.232   0.205  51.594  1.00  0.00     0.001 A 
HETATM   15  C10 UNL     1      19.438   0.151  52.598  1.00  0.00     0.029 A 
HETATM   16  C13 UNL     1      21.253   0.571  50.683  1.00  0.00    -0.035 A 
HETATM   17  C11 UNL     1      20.554   1.172  53.034  1.00  0.00     0.030 A 
HETATM   18  C12 UNL     1      21.277   1.477  51.735  1.00  0.00     0.026 A 
ENDBRANCH  11  13
ENDBRANCH   4  11
BRANCH   1  19
HETATM   19  N1  UNL     1      26.332   2.156  50.843  1.00  0.00    -0.325 N 
HETATM   20  C3  UNL     1      25.562   3.322  50.773  1.00  0.00     0.221 C 
HETATM   21  O1  UNL     1      24.774   3.489  51.736  1.00  0.00    -0.273 OA
HETATM   22  H6  UNL     1      27.041   1.878  50.103  1.00  0.00     0.169 HD
BRANCH  20  23
HETATM   23  C2  UNL     1      25.711   4.260  49.615  1.00  0.00     0.098 C 
HETATM   24  C1  UNL     1      27.119   4.306  49.108  1.00  0.00     0.014 C 
ENDBRANCH  20  23
ENDBRANCH   1  19
BRANCH  10  25
HETATM   25  O2  UNL     1      28.299   1.912  52.744  1.00  0.00    -0.354 OA
HETATM   26  C18 UNL     1      29.066   2.475  53.769  1.00  0.00     0.210 C 
ENDBRANCH  10  25
TORSDOF 6
ENDMDL
MODEL 3
REMARK VINA RESULT:      -7.7      1.571      1.836
REMARK  6 active torsions:
REMARK  status: ('A' for Active; 'I' for Inactive)
REMARK    1  A    between atoms: C2_2  and  C3_3 
REMARK       I    between atoms: C3_3  and  N1_5 
REMARK    2  A    between atoms: N1_5  and  C4_6 
REMARK    3  A    between atoms: C7_9  and  N2_10 
REMARK    4  A    between atoms: N2_10  and  C8_11 
REMARK    5  A    between atoms: C10_13  and  C11_14 
REMARK    6  A    between atoms: C17_22  and  O2_23 
ROOT
HETATM    1  C4  UNL     1      23.516   3.496  52.035  1.00  0.00     0.069 A 
HETATM    2  C5  UNL     1      23.981   2.329  52.607  1.00  0.00     0.050 A 
HETATM    3  C6  UNL     1      23.102   1.345  53.008  1.00  0.00     0.041 A 
HETATM    4  C7  UNL     1      23.640   0.206  53.571  1.00  0.00     0.138 A 
HETATM    5  N3  UNL     1      22.802  -0.765  53.970  1.00  0.00    -0.224 NA
HETATM    6  C14 UNL     1      21.469  -0.632  53.823  1.00  0.00     0.235 A 
HETATM    7  N4  UNL     1      20.958   0.497  53.267  1.00  0.00    -0.241 NA
HETATM    8  C15 UNL     1      21.740   1.502  52.850  1.00  0.00     0.075 A 
HETATM    9  C16 UNL     1      21.287   2.664  52.282  1.00  0.00     0.071 A 
HETATM   10  C17 UNL     1      22.156   3.668  51.870  1.00  0.00     0.097 A 
ENDROOT
BRANCH   4  11
HETATM   11  N2  UNL     1      25.031  -0.039  53.773  1.00  0.00    -0.369 N 
HETATM   12  H8  UNL     1      25.674   0.345  54.470  1.00  0.00     0.161 HD
BRANCH  11  13
HETATM   13  C8  UNL     1      25.811  -0.908  52.994  1.00  0.00     0.086 A 
HETATM   14  C9  UNL     1      27.446  -0.673  53.561  1.00  0.00     0.001 A 
HETATM   15  C10 UNL     1      27.327  -1.623  52.710  1.00  0.00     0.029 A 
HETATM   16  C13 UNL     1      27.481   0.595  54.189  1.00  0.00    -0.035 A 
HETATM   17  C11 UNL     1      26.713  -0.369  51.985  1.00  0.00     0.030 A 
HETATM   18  C12 UNL     1      27.165   0.792  52.851  1.00  0.00     0.026 A 
ENDBRANCH  11  13
ENDBRANCH   4  11
BRANCH   1  19
HETATM   19  N1  UNL     1      24.344   4.579  51.585  1.00  0.00    -0.325 N 
HETATM   20  C3  UNL     1      24.887   4.336  50.319  1.00  0.00     0.221 C 
HETATM   21  O1  UNL     1      24.559   3.235  49.811  1.00  0.00    -0.273 OA
HETATM   22  H6  UNL     1      24.531   5.465  52.141  1.00  0.00     0.169 HD
BRANCH  20  23
HETATM   23  C2  UNL     1      25.782   5.346  49.670  1.00  0.00     0.098 C 
HETATM   24  C1  UNL     1      26.944   4.701  48.979  1.00  0.00     0.014 C 
ENDBRANCH  20  23
ENDBRANCH   1  19
BRANCH  10  25
HETATM   25  O2  UNL     1      21.623   4.819  51.302  1.00  0.00    -0.354 OA
HETATM   26  C18 UNL     1      20.674   4.812  50.275  1.00  0.00     0.210 C 
ENDBRANCH  10  25
TORSDOF 6
ENDMDL
MODEL 4
REMARK VINA RESULT:      -7.6      2.106      4.830
REMARK  6 active torsions:
REMARK  status: ('A' for Active; 'I' for Inactive)
REMARK    1  A    between atoms: C2_2  and  C3_3 
REMARK       I    between atoms: C3_3  and  N1_5 
REMARK    2  A    between atoms: N1_5  and  C4_6 
REMARK    3  A    between atoms: C7_9  and  N2_10 
REMARK    4  A    between atoms: N2_10  and  C8_11 
REMARK    5  A    between atoms: C10_13  and  C11_14 
REMARK    6  A    between atoms: C17_22  and  O2_23 
ROOT
HETATM    1  C4  UNL     1      22.688   2.050  52.610  1.00  0.00     0.069 A 
HETATM    2  C5  UNL     1      23.989   1.694  52.322  1.00  0.00     0.050 A 
HETATM    3  C6  UNL     1      24.776   2.497  51.523  1.00  0.00     0.041 A 
HETATM    4  C7  UNL     1      26.067   2.076  51.278  1.00  0.00     0.138 A 
HETATM    5  N3  UNL     1      26.851   2.843  50.502  1.00  0.00    -0.224 NA
HETATM    6  C14 UNL     1      26.389   3.994  49.975  1.00  0.00     0.235 A 
HETATM    7  N4  UNL     1      25.114   4.391  50.227  1.00  0.00    -0.241 NA
HETATM    8  C15 UNL     1      24.283   3.672  50.992  1.00  0.00     0.075 A 
HETATM    9  C16 UNL     1      22.989   4.017  51.283  1.00  0.00     0.071 A 
HETATM   10  C17 UNL     1      22.179   3.222  52.087  1.00  0.00     0.097 A 
ENDROOT
BRANCH   4  11
HETATM   11  N2  UNL     1      26.657   0.880  51.784  1.00  0.00    -0.369 N 
HETATM   12  H8  UNL     1      26.541  -0.091  51.483  1.00  0.00     0.161 HD
BRANCH  11  13
HETATM   13  C8  UNL     1      27.560   0.825  52.857  1.00  0.00     0.086 A 
HETATM   14  C9  UNL     1      27.871  -0.877  53.096  1.00  0.00     0.001 A 
HETATM   15  C10 UNL     1      28.598  -0.114  53.823  1.00  0.00     0.029 A 
HETATM   16  C13 UNL     1      26.782  -1.574  52.518  1.00  0.00    -0.035 A 
HETATM   17  C11 UNL     1      27.121   0.321  54.151  1.00  0.00     0.030 A 
HETATM   18  C12 UNL     1      26.286  -0.798  53.557  1.00  0.00     0.026 A 
ENDBRANCH  11  13
ENDBRANCH   4  11
BRANCH   1  19
HETATM   19  N1  UNL     1      21.788   1.287  53.429  1.00  0.00    -0.325 N 
HETATM   20  C3  UNL     1      21.184   0.244  52.718  1.00  0.00     0.221 C 
HETATM   21  O1  UNL     1      21.531   0.162  51.514  1.00  0.00    -0.273 OA
HETATM   22  H6  UNL     1      21.594   1.484  54.455  1.00  0.00     0.169 HD
BRANCH  20  23
HETATM   23  C2  UNL     1      20.209  -0.670  53.393  1.00  0.00     0.098 C 
HETATM   24  C1  UNL     1      20.893  -1.647  54.299  1.00  0.00     0.014 C 
ENDBRANCH  20  23
ENDBRANCH   1  19
BRANCH  10  25
HETATM   25  O2  UNL     1      20.877   3.638  52.338  1.00  0.00    -0.354 OA
HETATM   26  C18 UNL     1      19.904   3.793  51.346  1.00  0.00     0.210 C 
ENDBRANCH  10  25
TORSDOF 6
ENDMDL
MODEL 5
REMARK VINA RESULT:      -7.3      2.913      4.657
REMARK  6 active torsions:
REMARK  status: ('A' for Active; 'I' for Inactive)
REMARK    1  A    between atoms: C2_2  and  C3_3 
REMARK       I    between atoms: C3_3  and  N1_5 
REMARK    2  A    between atoms: N1_5  and  C4_6 
REMARK    3  A    between atoms: C7_9  and  N2_10 
REMARK    4  A    between atoms: N2_10  and  C8_11 
REMARK    5  A    between atoms: C10_13  and  C11_14 
REMARK    6  A    between atoms: C17_22  and  O2_23 
ROOT
HETATM    1  C4  UNL     1      20.747   0.765  52.213  1.00  0.00     0.069 A 
HETATM    2  C5  UNL     1      22.081   0.764  52.567  1.00  0.00     0.050 A 
HETATM    3  C6  UNL     1      22.540  -0.062  53.571  1.00  0.00     0.041 A 
HETATM    4  C7  UNL     1      23.887  -0.008  53.869  1.00  0.00     0.138 A 
HETATM    5  N3  UNL     1      24.355  -0.805  54.844  1.00  0.00    -0.224 NA
HETATM    6  C14 UNL     1      23.532  -1.636  55.515  1.00  0.00     0.235 A 
HETATM    7  N4  UNL     1      22.210  -1.674  55.206  1.00  0.00    -0.241 NA
HETATM    8  C15 UNL     1      21.681  -0.905  54.245  1.00  0.00     0.075 A 
HETATM    9  C16 UNL     1      20.358  -0.897  53.888  1.00  0.00     0.071 A 
HETATM   10  C17 UNL     1      19.874  -0.072  52.878  1.00  0.00     0.097 A 
ENDROOT
BRANCH   4  11
HETATM   11  N2  UNL     1      24.843   0.831  53.225  1.00  0.00    -0.369 N 
HETATM   12  H8  UNL     1      24.785   1.339  52.339  1.00  0.00     0.161 HD
BRANCH  11  13
HETATM   13  C8  UNL     1      26.119   1.122  53.730  1.00  0.00     0.086 A 
HETATM   14  C9  UNL     1      26.874   2.110  52.503  1.00  0.00     0.001 A 
HETATM   15  C10 UNL     1      27.568   2.000  53.573  1.00  0.00     0.029 A 
HETATM   16  C13 UNL     1      26.187   1.848  51.293  1.00  0.00    -0.035 A 
HETATM   17  C11 UNL     1      27.297   0.515  53.127  1.00  0.00     0.030 A 
HETATM   18  C12 UNL     1      26.783   0.664  51.707  1.00  0.00     0.026 A 
ENDBRANCH  11  13
ENDBRANCH   4  11
BRANCH   1  19
HETATM   19  N1  UNL     1      20.169   1.584  51.185  1.00  0.00    -0.325 N 
HETATM   20  C3  UNL     1      19.857   2.867  51.647  1.00  0.00     0.221 C 
HETATM   21  O1  UNL     1      20.133   3.070  52.855  1.00  0.00    -0.273 OA
HETATM   22  H6  UNL     1      19.993   1.263  50.188  1.00  0.00     0.169 HD
BRANCH  20  23
HETATM   23  C2  UNL     1      19.242   3.877  50.727  1.00  0.00     0.098 C 
HETATM   24  C1  UNL     1      20.256   4.492  49.814  1.00  0.00     0.014 C 
ENDBRANCH  20  23
ENDBRANCH   1  19
BRANCH  10  25
HETATM   25  O2  UNL     1      18.520  -0.119  52.571  1.00  0.00    -0.354 OA
HETATM   26  C18 UNL     1      17.653  -1.119  53.025  1.00  0.00     0.210 C 
ENDBRANCH  10  25
TORSDOF 6
ENDMDL
MODEL 6
REMARK VINA RESULT:      -7.2      2.325      5.767
REMARK  6 active torsions:
REMARK  status: ('A' for Active; 'I' for Inactive)
REMARK    1  A    between atoms: C2_2  and  C3_3 
REMARK       I    between atoms: C3_3  and  N1_5 
REMARK    2  A    between atoms: N1_5  and  C4_6 
REMARK    3  A    between atoms: C7_9  and  N2_10 
REMARK    4  A    between atoms: N2_10  and  C8_11 
REMARK    5  A    between atoms: C10_13  and  C11_14 
REMARK    6  A    between atoms: C17_22  and  O2_23 
ROOT
HETATM    1  C4  UNL     1      25.576   0.407  52.871  1.00  0.00     0.069 A 
HETATM    2  C5  UNL     1      24.976   1.217  51.929  1.00  0.00     0.050 A 
HETATM    3  C6  UNL     1      23.602   1.319  51.864  1.00  0.00     0.041 A 
HETATM    4  C7  UNL     1      23.074   2.149  50.897  1.00  0.00     0.138 A 
HETATM    5  N3  UNL     1      21.738   2.263  50.815  1.00  0.00    -0.224 NA
HETATM    6  C14 UNL     1      20.933   1.584  51.657  1.00  0.00     0.235 A 
HETATM    7  N4  UNL     1      21.472   0.772  52.602  1.00  0.00    -0.241 NA
HETATM    8  C15 UNL     1      22.796   0.615  52.735  1.00  0.00     0.075 A 
HETATM    9  C16 UNL     1      23.400  -0.188  53.667  1.00  0.00     0.071 A 
HETATM   10  C17 UNL     1      24.784  -0.305  53.750  1.00  0.00     0.097 A 
ENDROOT
BRANCH   4  11
HETATM   11  N2  UNL     1      23.831   2.912  49.958  1.00  0.00    -0.369 N 
HETATM   12  H8  UNL     1      24.756   2.736  49.559  1.00  0.00     0.161 HD
BRANCH  11  13
HETATM   13  C8  UNL     1      23.407   4.119  49.382  1.00  0.00     0.086 A 
HETATM   14  C9  UNL     1      24.879   4.931  48.908  1.00  0.00     0.001 A 
HETATM   15  C10 UNL     1      23.814   5.529  48.522  1.00  0.00     0.029 A 
HETATM   16  C13 UNL     1      25.920   4.373  49.688  1.00  0.00    -0.035 A 
HETATM   17  C11 UNL     1      23.637   5.377  50.079  1.00  0.00     0.030 A 
HETATM   18  C12 UNL     1      25.025   4.989  50.553  1.00  0.00     0.026 A 
ENDBRANCH  11  13
ENDBRANCH   4  11
BRANCH   1  19
HETATM   19  N1  UNL     1      26.993   0.231  53.023  1.00  0.00    -0.325 N 
HETATM   20  C3  UNL     1      27.569   1.238  53.805  1.00  0.00     0.221 C 
HETATM   21  O1  UNL     1      26.759   2.099  54.228  1.00  0.00    -0.273 OA
HETATM   22  H6  UNL     1      27.550  -0.566  52.594  1.00  0.00     0.169 HD
BRANCH  20  23
HETATM   23  C2  UNL     1      29.040   1.236  54.082  1.00  0.00     0.098 C 
HETATM   24  C1  UNL     1      29.685  -0.051  53.673  1.00  0.00     0.014 C 
ENDBRANCH  20  23
ENDBRANCH   1  19
BRANCH  10  25
HETATM   25  O2  UNL     1      25.325  -1.139  54.721  1.00  0.00    -0.354 OA
HETATM   26  C18 UNL     1      25.129  -0.963  56.094  1.00  0.00     0.210 C 
ENDBRANCH  10  25
TORSDOF 6
ENDMDL
MODEL 7
REMARK VINA RESULT:      -7.1      2.375      5.953
REMARK  6 active torsions:
REMARK  status: ('A' for Active; 'I' for Inactive)
REMARK    1  A    between atoms: C2_2  and  C3_3 
REMARK       I    between atoms: C3_3  and  N1_5 
REMARK    2  A    between atoms: N1_5  and  C4_6 
REMARK    3  A    between atoms: C7_9  and  N2_10 
REMARK    4  A    between atoms: N2_10  and  C8_11 
REMARK    5  A    between atoms: C10_13  and  C11_14 
REMARK    6  A    between atoms: C17_22  and  O2_23 
ROOT
HETATM    1  C4  UNL     1      22.485   0.875  52.538  1.00  0.00     0.069 A 
HETATM    2  C5  UNL     1      23.461   1.783  52.179  1.00  0.00     0.050 A 
HETATM    3  C6  UNL     1      24.795   1.496  52.383  1.00  0.00     0.041 A 
HETATM    4  C7  UNL     1      25.714   2.451  51.998  1.00  0.00     0.138 A 
HETATM    5  N3  UNL     1      27.018   2.192  52.188  1.00  0.00    -0.224 NA
HETATM    6  C14 UNL     1      27.420   1.030  52.740  1.00  0.00     0.235 A 
HETATM    7  N4  UNL     1      26.500   0.103  53.113  1.00  0.00    -0.241 NA
HETATM    8  C15 UNL     1      25.185   0.300  52.950  1.00  0.00     0.075 A 
HETATM    9  C16 UNL     1      24.209  -0.594  53.305  1.00  0.00     0.071 A 
HETATM   10  C17 UNL     1      22.859  -0.325  53.107  1.00  0.00     0.097 A 
ENDROOT
BRANCH   4  11
HETATM   11  N2  UNL     1      25.399   3.710  51.406  1.00  0.00    -0.369 N 
HETATM   12  H8  UNL     1      24.842   4.488  51.768  1.00  0.00     0.161 HD
BRANCH  11  13
HETATM   13  C8  UNL     1      25.829   4.126  50.137  1.00  0.00     0.086 A 
HETATM   14  C9  UNL     1      25.313   5.790  50.012  1.00  0.00     0.001 A 
HETATM   15  C10 UNL     1      26.038   5.400  49.030  1.00  0.00     0.029 A 
HETATM   16  C13 UNL     1      24.262   5.961  50.944  1.00  0.00    -0.035 A 
HETATM   17  C11 UNL     1      24.854   4.363  49.081  1.00  0.00     0.030 A 
HETATM   18  C12 UNL     1      23.849   5.024  50.005  1.00  0.00     0.026 A 
ENDBRANCH  11  13
ENDBRANCH   4  11
BRANCH   1  19
HETATM   19  N1  UNL     1      21.073   1.076  52.369  1.00  0.00    -0.325 N 
HETATM   20  C3  UNL     1      20.647   0.758  51.075  1.00  0.00     0.221 C 
HETATM   21  O1  UNL     1      21.557   0.361  50.307  1.00  0.00    -0.273 OA
HETATM   22  H6  UNL     1      20.420   1.425  53.131  1.00  0.00     0.169 HD
BRANCH  20  23
HETATM   23  C2  UNL     1      19.206   0.900  50.695  1.00  0.00     0.098 C 
HETATM   24  C1  UNL     1      18.341  -0.105  51.391  1.00  0.00     0.014 C 
ENDBRANCH  20  23
ENDBRANCH   1  19
BRANCH  10  25
HETATM   25  O2  UNL     1      21.927  -1.281  53.492  1.00  0.00    -0.354 OA
HETATM   26  C18 UNL     1      21.786  -1.748  54.803  1.00  0.00     0.210 C 
ENDBRANCH  10  25
TORSDOF 6
ENDMDL
MODEL 8
REMARK VINA RESULT:      -6.8      3.366      5.911
REMARK  6 active torsions:
REMARK  status: ('A' for Active; 'I' for Inactive)
REMARK    1  A    between atoms: C2_2  and  C3_3 
REMARK       I    between atoms: C3_3  and  N1_5 
REMARK    2  A    between atoms: N1_5  and  C4_6 
REMARK    3  A    between atoms: C7_9  and  N2_10 
REMARK    4  A    between atoms: N2_10  and  C8_11 
REMARK    5  A    between atoms: C10_13  and  C11_14 
REMARK    6  A    between atoms: C17_22  and  O2_23 
ROOT
HETATM    1  C4  UNL     1      20.112   1.180  52.104  1.00  0.00     0.069 A 
HETATM    2  C5  UNL     1      21.467   1.227  52.366  1.00  0.00     0.050 A 
HETATM    3  C6  UNL     1      22.134   2.433  52.394  1.00  0.00     0.041 A 
HETATM    4  C7  UNL     1      23.487   2.402  52.663  1.00  0.00     0.138 A 
HETATM    5  N3  UNL     1      24.157   3.566  52.695  1.00  0.00    -0.224 NA
HETATM    6  C14 UNL     1      23.525   4.735  52.471  1.00  0.00     0.235 A 
HETATM    7  N4  UNL     1      22.193   4.745  52.207  1.00  0.00    -0.241 NA
HETATM    8  C15 UNL     1      21.468   3.620  52.161  1.00  0.00     0.075 A 
HETATM    9  C16 UNL     1      20.124   3.564  51.901  1.00  0.00     0.071 A 
HETATM   10  C17 UNL     1      19.431   2.357  51.869  1.00  0.00     0.097 A 
ENDROOT
BRANCH   4  11
HETATM   11  N2  UNL     1      24.253   1.226  52.915  1.00  0.00    -0.369 N 
HETATM   12  H8  UNL     1      24.089   0.459  53.572  1.00  0.00     0.161 HD
BRANCH  11  13
HETATM   13  C8  UNL     1      25.448   0.895  52.258  1.00  0.00     0.086 A 
HETATM   14  C9  UNL     1      25.957  -0.611  52.984  1.00  0.00     0.001 A 
HETATM   15  C10 UNL     1      26.678  -0.250  51.989  1.00  0.00     0.029 A 
HETATM   16  C13 UNL     1      25.319  -0.690  54.245  1.00  0.00    -0.035 A 
HETATM   17  C11 UNL     1      26.717   0.981  52.969  1.00  0.00     0.030 A 
HETATM   18  C12 UNL     1      26.158   0.417  54.262  1.00  0.00     0.026 A 
ENDBRANCH  11  13
ENDBRANCH   4  11
BRANCH   1  19
HETATM   19  N1  UNL     1      19.325  -0.020  52.052  1.00  0.00    -0.325 N 
HETATM   20  C3  UNL     1      19.242  -0.650  53.298  1.00  0.00     0.221 C 
HETATM   21  O1  UNL     1      19.859  -0.066  54.223  1.00  0.00    -0.273 OA
HETATM   22  H6  UNL     1      18.858  -0.395  51.175  1.00  0.00     0.169 HD
BRANCH  20  23
HETATM   23  C2  UNL     1      18.466  -1.921  53.455  1.00  0.00     0.098 C 
HETATM   24  C1  UNL     1      17.065  -1.788  52.944  1.00  0.00     0.014 C 
ENDBRANCH  20  23
ENDBRANCH   1  19
BRANCH  10  25
HETATM   25  O2  UNL     1      18.068   2.380  51.598  1.00  0.00    -0.354 OA
HETATM   26  C18 UNL     1      17.310   3.552  51.513  1.00  0.00     0.210 C 
ENDBRANCH  10  25
TORSDOF 6
ENDMDL
MODEL 9
REMARK VINA RESULT:      -6.7      2.599      5.864
REMARK  6 active torsions:
REMARK  status: ('A' for Active; 'I' for Inactive)
REMARK    1  A    between atoms: C2_2  and  C3_3 
REMARK       I    between atoms: C3_3  and  N1_5 
REMARK    2  A    between atoms: N1_5  and  C4_6 
REMARK    3  A    between atoms: C7_9  and  N2_10 
REMARK    4  A    between atoms: N2_10  and  C8_11 
REMARK    5  A    between atoms: C10_13  and  C11_14 
REMARK    6  A    between atoms: C17_22  and  O2_23 
ROOT
HETATM    1  C4  UNL     1      23.275   0.596  52.749  1.00  0.00     0.069 A 
HETATM    2  C5  UNL     1      23.182   1.614  51.821  1.00  0.00     0.050 A 
HETATM    3  C6  UNL     1      22.040   2.381  51.734  1.00  0.00     0.041 A 
HETATM    4  C7  UNL     1      22.020   3.381  50.783  1.00  0.00     0.138 A 
HETATM    5  N3  UNL     1      20.917   4.141  50.681  1.00  0.00    -0.224 NA
HETATM    6  C14 UNL     1      19.856   3.933  51.485  1.00  0.00     0.235 A 
HETATM    7  N4  UNL     1      19.894   2.943  52.415  1.00  0.00    -0.241 NA
HETATM    8  C15 UNL     1      20.964   2.151  52.568  1.00  0.00     0.075 A 
HETATM    9  C16 UNL     1      21.065   1.138  53.485  1.00  0.00     0.071 A 
HETATM   10  C17 UNL     1      22.208   0.353  53.590  1.00  0.00     0.097 A 
ENDROOT
BRANCH   4  11
HETATM   11  N2  UNL     1      23.083   3.687  49.883  1.00  0.00    -0.369 N 
HETATM   12  H8  UNL     1      23.644   3.070  49.291  1.00  0.00     0.161 HD
BRANCH  11  13
HETATM   13  C8  UNL     1      23.577   4.978  49.639  1.00  0.00     0.086 A 
HETATM   14  C9  UNL     1      25.206   4.733  49.057  1.00  0.00     0.001 A 
HETATM   15  C10 UNL     1      24.817   5.952  49.002  1.00  0.00     0.029 A 
HETATM   16  C13 UNL     1      25.608   3.451  49.503  1.00  0.00    -0.035 A 
HETATM   17  C11 UNL     1      24.604   5.539  50.506  1.00  0.00     0.030 A 
HETATM   18  C12 UNL     1      25.373   4.237  50.624  1.00  0.00     0.026 A 
ENDBRANCH  11  13
ENDBRANCH   4  11
BRANCH   1  19
HETATM   19  N1  UNL     1      24.416  -0.259  52.921  1.00  0.00    -0.325 N 
HETATM   20  C3  UNL     1      25.515   0.429  53.446  1.00  0.00     0.221 C 
HETATM   21  O1  UNL     1      25.312   1.648  53.670  1.00  0.00    -0.273 OA
HETATM   22  H6  UNL     1      24.434  -1.293  52.680  1.00  0.00     0.169 HD
BRANCH  20  23
HETATM   23  C2  UNL     1      26.806  -0.286  53.700  1.00  0.00     0.098 C 
HETATM   24  C1  UNL     1      26.978  -1.469  52.799  1.00  0.00     0.014 C 
ENDBRANCH  20  23
ENDBRANCH   1  19
BRANCH  10  25
HETATM   25  O2  UNL     1      22.237  -0.657  54.544  1.00  0.00    -0.354 OA
HETATM   26  C18 UNL     1      21.311  -1.704  54.599  1.00  0.00     0.210 C 
ENDBRANCH  10  25
TORSDOF 6
ENDMDL
