MODEL 1
REMARK VINA RESULT:      -7.8      0.000      0.000
REMARK  6 active torsions:
REMARK  status: ('A' for Active; 'I' for Inactive)
REMARK    1  A    between atoms: C3_3  and  C4_4 
REMARK       I    between atoms: C4_4  and  N1_6 
REMARK    2  A    between atoms: N1_6  and  C5_7 
REMARK    3  A    between atoms: C8_10  and  N2_11 
REMARK    4  A    between atoms: N2_11  and  C9_12 
REMARK    5  A    between atoms: C9_12  and  C10_13 
REMARK    6  A    between atoms: C10_13  and  C11_14 
ROOT
HETATM    1  C5  UNL     1      25.173   2.830  51.569  1.00  0.00     0.131 A 
HETATM    2  C6  UNL     1      25.965   2.248  52.522  1.00  0.00     0.068 A 
HETATM    3  C7  UNL     1      25.565   1.153  53.259  1.00  0.00     0.043 A 
HETATM    4  C8  UNL     1      26.439   0.647  54.192  1.00  0.00     0.138 A 
HETATM    5  N3  UNL     1      25.958  -0.418  54.857  1.00  0.00    -0.224 NA
HETATM    6  C12 UNL     1      24.740  -0.940  54.632  1.00  0.00     0.236 A 
HETATM    7  N4  UNL     1      23.890  -0.437  53.714  1.00  0.00    -0.240 NA
HETATM    8  C13 UNL     1      24.315   0.631  53.016  1.00  0.00     0.089 A 
HETATM    9  C14 UNL     1      23.516   1.224  52.047  1.00  0.00     0.151 A 
HETATM   10  N5  UNL     1      23.936   2.306  51.335  1.00  0.00    -0.241 NA
ENDROOT
BRANCH   1  11
HETATM   11  N1  UNL     1      25.607   3.970  50.812  1.00  0.00    -0.308 N 
HETATM   12  C4  UNL     1      26.489   3.840  49.704  1.00  0.00     0.246 C 
HETATM   13  O1  UNL     1      26.922   2.712  49.348  1.00  0.00    -0.268 OA
HETATM   14  H6  UNL     1      25.211   4.867  51.162  1.00  0.00     0.170 HD
BRANCH  12  15
HETATM   15  C3  UNL     1      26.887   5.044  48.981  1.00  0.00     0.070 C 
HETATM   16  C2  UNL     1      28.086   5.360  48.516  1.00  0.00    -0.026 C 
HETATM   17  C1  UNL     1      28.453   6.599  47.784  1.00  0.00     0.036 C 
ENDBRANCH  12  15
ENDBRANCH   1  11
BRANCH   4  18
HETATM   18  N2  UNL     1      27.737   1.151  54.478  1.00  0.00    -0.370 N 
HETATM   19  H8  UNL     1      28.022   2.150  54.418  1.00  0.00     0.161 HD
BRANCH  18  20
HETATM   20  C9  UNL     1      28.765   0.213  54.890  1.00  0.00     0.152 C 
BRANCH  20  21
HETATM   21  C10 UNL     1      29.437  -0.358  53.668  1.00  0.00     0.051 C 
BRANCH  21  22
HETATM   22  C11 UNL     1      29.242  -1.619  53.383  1.00  0.00     0.219 C 
HETATM   23  O2  UNL     1      28.953  -2.839  53.358  1.00  0.00    -0.284 OA
ENDBRANCH  21  22
ENDBRANCH  20  21
ENDBRANCH  18  20
ENDBRANCH   4  18
TORSDOF 6
ENDMDL
MODEL 2
REMARK VINA RESULT:      -7.0      1.498      1.685
REMARK  6 active torsions:
REMARK  status: ('A' for Active; 'I' for Inactive)
REMARK    1  A    between atoms: C3_3  and  C4_4 
REMARK       I    between atoms: C4_4  and  N1_6 
REMARK    2  A    between atoms: N1_6  and  C5_7 
REMARK    3  A    between atoms: C8_10  and  N2_11 
REMARK    4  A    between atoms: N2_11  and  C9_12 
REMARK    5  A    between atoms: C9_12  and  C10_13 
REMARK    6  A    between atoms: C10_13  and  C11_14 
ROOT
HETATM    1  C5  UNL     1      24.589   3.113  51.342  1.00  0.00     0.131 A 
HETATM    2  C6  UNL     1      25.220   2.269  52.217  1.00  0.00     0.068 A 
HETATM    3  C7  UNL     1      24.578   1.211  52.826  1.00  0.00     0.043 A 
HETATM    4  C8  UNL     1      25.304   0.424  53.688  1.00  0.00     0.138 A 
HETATM    5  N3  UNL     1      24.591  -0.579  54.230  1.00  0.00    -0.224 NA
HETATM    6  C12 UNL     1      23.293  -0.794  53.956  1.00  0.00     0.236 A 
HETATM    7  N4  UNL     1      22.589  -0.017  53.109  1.00  0.00    -0.240 NA
HETATM    8  C13 UNL     1      23.249   1.005  52.534  1.00  0.00     0.089 A 
HETATM    9  C14 UNL     1      22.615   1.864  51.646  1.00  0.00     0.151 A 
HETATM   10  N5  UNL     1      23.273   2.902  51.059  1.00  0.00    -0.241 NA
ENDROOT
BRANCH   1  11
HETATM   11  N1  UNL     1      25.274   4.210  50.718  1.00  0.00    -0.308 N 
HETATM   12  C4  UNL     1      26.246   4.002  49.700  1.00  0.00     0.246 C 
HETATM   13  O1  UNL     1      26.539   2.842  49.311  1.00  0.00    -0.268 OA
HETATM   14  H6  UNL     1      24.982   5.139  51.088  1.00  0.00     0.170 HD
BRANCH  12  15
HETATM   15  C3  UNL     1      26.902   5.166  49.110  1.00  0.00     0.070 C 
HETATM   16  C2  UNL     1      28.067   5.218  48.484  1.00  0.00    -0.026 C 
HETATM   17  C1  UNL     1      28.703   6.425  47.896  1.00  0.00     0.036 C 
ENDBRANCH  12  15
ENDBRANCH   1  11
BRANCH   4  18
HETATM   18  N2  UNL     1      26.675   0.597  54.021  1.00  0.00    -0.370 N 
HETATM   19  H8  UNL     1      27.056   1.344  54.637  1.00  0.00     0.161 HD
BRANCH  18  20
HETATM   20  C9  UNL     1      27.641  -0.332  53.466  1.00  0.00     0.152 C 
BRANCH  20  21
HETATM   21  C10 UNL     1      29.021   0.035  53.947  1.00  0.00     0.051 C 
BRANCH  21  22
HETATM   22  C11 UNL     1      29.229   1.256  54.365  1.00  0.00     0.219 C 
HETATM   23  O2  UNL     1      29.597   2.308  54.940  1.00  0.00    -0.284 OA
ENDBRANCH  21  22
ENDBRANCH  20  21
ENDBRANCH  18  20
ENDBRANCH   4  18
TORSDOF 6
ENDMDL
MODEL 3
REMARK VINA RESULT:      -7.0      3.089      6.103
REMARK  6 active torsions:
REMARK  status: ('A' for Active; 'I' for Inactive)
REMARK    1  A    between atoms: C3_3  and  C4_4 
REMARK       I    between atoms: C4_4  and  N1_6 
REMARK    2  A    between atoms: N1_6  and  C5_7 
REMARK    3  A    between atoms: C8_10  and  N2_11 
REMARK    4  A    between atoms: N2_11  and  C9_12 
REMARK    5  A    between atoms: C9_12  and  C10_13 
REMARK    6  A    between atoms: C10_13  and  C11_14 
ROOT
HETATM    1  C5  UNL     1      24.517   1.343  52.146  1.00  0.00     0.131 A 
HETATM    2  C6  UNL     1      23.280   1.194  52.715  1.00  0.00     0.068 A 
HETATM    3  C7  UNL     1      22.221   2.030  52.427  1.00  0.00     0.043 A 
HETATM    4  C8  UNL     1      21.021   1.792  53.055  1.00  0.00     0.138 A 
HETATM    5  N3  UNL     1      20.053   2.658  52.710  1.00  0.00    -0.224 NA
HETATM    6  C12 UNL     1      20.238   3.662  51.834  1.00  0.00     0.236 A 
HETATM    7  N4  UNL     1      21.419   3.887  51.224  1.00  0.00    -0.240 NA
HETATM    8  C13 UNL     1      22.428   3.052  51.529  1.00  0.00     0.089 A 
HETATM    9  C14 UNL     1      23.684   3.197  50.955  1.00  0.00     0.151 A 
HETATM   10  N5  UNL     1      24.712   2.358  51.258  1.00  0.00    -0.241 NA
ENDROOT
BRANCH   1  11
HETATM   11  N1  UNL     1      25.607   0.463  52.458  1.00  0.00    -0.308 N 
HETATM   12  C4  UNL     1      26.521   0.749  53.511  1.00  0.00     0.246 C 
HETATM   13  O1  UNL     1      26.402   1.791  54.207  1.00  0.00    -0.268 OA
HETATM   14  H6  UNL     1      25.644  -0.377  51.844  1.00  0.00     0.170 HD
BRANCH  12  15
HETATM   15  C3  UNL     1      27.606  -0.193  53.771  1.00  0.00     0.070 C 
HETATM   16  C2  UNL     1      28.895  -0.047  53.509  1.00  0.00    -0.026 C 
HETATM   17  C1  UNL     1      29.972  -1.031  53.790  1.00  0.00     0.036 C 
ENDBRANCH  12  15
ENDBRANCH   1  11
BRANCH   4  18
HETATM   18  N2  UNL     1      20.760   0.751  53.988  1.00  0.00    -0.370 N 
HETATM   19  H8  UNL     1      21.099   0.725  54.972  1.00  0.00     0.161 HD
BRANCH  18  20
HETATM   20  C9  UNL     1      19.956  -0.376  53.555  1.00  0.00     0.152 C 
BRANCH  20  21
HETATM   21  C10 UNL     1      20.624  -1.658  53.981  1.00  0.00     0.051 C 
BRANCH  21  22
HETATM   22  C11 UNL     1      21.720  -1.583  54.688  1.00  0.00     0.219 C 
HETATM   23  O2  UNL     1      22.621  -1.365  55.534  1.00  0.00    -0.284 OA
ENDBRANCH  21  22
ENDBRANCH  20  21
ENDBRANCH  18  20
ENDBRANCH   4  18
TORSDOF 6
ENDMDL
MODEL 4
REMARK VINA RESULT:      -6.8      2.435      5.798
REMARK  6 active torsions:
REMARK  status: ('A' for Active; 'I' for Inactive)
REMARK    1  A    between atoms: C3_3  and  C4_4 
REMARK       I    between atoms: C4_4  and  N1_6 
REMARK    2  A    between atoms: N1_6  and  C5_7 
REMARK    3  A    between atoms: C8_10  and  N2_11 
REMARK    4  A    between atoms: N2_11  and  C9_12 
REMARK    5  A    between atoms: C9_12  and  C10_13 
REMARK    6  A    between atoms: C10_13  and  C11_14 
ROOT
HETATM    1  C5  UNL     1      24.480  -0.521  53.970  1.00  0.00     0.131 A 
HETATM    2  C6  UNL     1      23.983   0.213  52.926  1.00  0.00     0.068 A 
HETATM    3  C7  UNL     1      22.639   0.485  52.779  1.00  0.00     0.043 A 
HETATM    4  C8  UNL     1      22.245   1.232  51.694  1.00  0.00     0.138 A 
HETATM    5  N3  UNL     1      20.919   1.443  51.638  1.00  0.00    -0.224 NA
HETATM    6  C12 UNL     1      20.057   0.969  52.556  1.00  0.00     0.236 A 
HETATM    7  N4  UNL     1      20.453   0.238  53.617  1.00  0.00    -0.240 NA
HETATM    8  C13 UNL     1      21.771  -0.007  53.727  1.00  0.00     0.089 A 
HETATM    9  C14 UNL     1      22.281  -0.750  54.783  1.00  0.00     0.151 A 
HETATM   10  N5  UNL     1      23.613  -1.004  54.904  1.00  0.00    -0.241 NA
ENDROOT
BRANCH   1  11
HETATM   11  N1  UNL     1      25.883  -0.794  54.106  1.00  0.00    -0.308 N 
HETATM   12  C4  UNL     1      26.807   0.217  54.488  1.00  0.00     0.246 C 
HETATM   13  O1  UNL     1      26.423   1.393  54.721  1.00  0.00    -0.268 OA
HETATM   14  H6  UNL     1      26.129  -1.785  53.899  1.00  0.00     0.170 HD
BRANCH  12  15
HETATM   15  C3  UNL     1      28.219  -0.135  54.607  1.00  0.00     0.070 C 
HETATM   16  C2  UNL     1      29.008  -0.673  53.690  1.00  0.00    -0.026 C 
HETATM   17  C1  UNL     1      30.444  -1.017  53.849  1.00  0.00     0.036 C 
ENDBRANCH  12  15
ENDBRANCH   1  11
BRANCH   4  18
HETATM   18  N2  UNL     1      23.103   1.761  50.690  1.00  0.00    -0.370 N 
HETATM   19  H8  UNL     1      23.361   1.281  49.804  1.00  0.00     0.161 HD
BRANCH  18  20
HETATM   20  C9  UNL     1      23.677   3.076  50.898  1.00  0.00     0.152 C 
BRANCH  20  21
HETATM   21  C10 UNL     1      25.062   3.116  50.307  1.00  0.00     0.051 C 
BRANCH  21  22
HETATM   22  C11 UNL     1      26.075   2.812  51.075  1.00  0.00     0.219 C 
HETATM   23  O2  UNL     1      27.150   2.416  51.587  1.00  0.00    -0.284 OA
ENDBRANCH  21  22
ENDBRANCH  20  21
ENDBRANCH  18  20
ENDBRANCH   4  18
TORSDOF 6
ENDMDL
MODEL 5
REMARK VINA RESULT:      -6.7      3.058      6.958
REMARK  6 active torsions:
REMARK  status: ('A' for Active; 'I' for Inactive)
REMARK    1  A    between atoms: C3_3  and  C4_4 
REMARK       I    between atoms: C4_4  and  N1_6 
REMARK    2  A    between atoms: N1_6  and  C5_7 
REMARK    3  A    between atoms: C8_10  and  N2_11 
REMARK    4  A    between atoms: N2_11  and  C9_12 
REMARK    5  A    between atoms: C9_12  and  C10_13 
REMARK    6  A    between atoms: C10_13  and  C11_14 
ROOT
HETATM    1  C5  UNL     1      24.031  -0.410  53.521  1.00  0.00     0.131 A 
HETATM    2  C6  UNL     1      24.626   0.523  52.714  1.00  0.00     0.068 A 
HETATM    3  C7  UNL     1      25.873   1.049  52.976  1.00  0.00     0.043 A 
HETATM    4  C8  UNL     1      26.379   1.981  52.101  1.00  0.00     0.138 A 
HETATM    5  N3  UNL     1      27.599   2.433  52.442  1.00  0.00    -0.224 NA
HETATM    6  C12 UNL     1      28.262   2.015  53.534  1.00  0.00     0.236 A 
HETATM    7  N4  UNL     1      27.758   1.100  54.386  1.00  0.00    -0.240 NA
HETATM    8  C13 UNL     1      26.539   0.610  54.098  1.00  0.00     0.089 A 
HETATM    9  C14 UNL     1      25.931  -0.337  54.912  1.00  0.00     0.151 A 
HETATM   10  N5  UNL     1      24.698  -0.839  54.630  1.00  0.00    -0.241 NA
ENDROOT
BRANCH   1  11
HETATM   11  N1  UNL     1      22.731  -0.946  53.232  1.00  0.00    -0.308 N 
HETATM   12  C4  UNL     1      21.621  -0.720  54.093  1.00  0.00     0.246 C 
HETATM   13  O1  UNL     1      21.744  -0.038  55.143  1.00  0.00    -0.268 OA
HETATM   14  H6  UNL     1      22.703  -1.498  52.349  1.00  0.00     0.170 HD
BRANCH  12  15
HETATM   15  C3  UNL     1      20.329  -1.296  53.734  1.00  0.00     0.070 C 
HETATM   16  C2  UNL     1      19.242  -0.668  53.311  1.00  0.00    -0.026 C 
HETATM   17  C1  UNL     1      17.942  -1.291  52.954  1.00  0.00     0.036 C 
ENDBRANCH  12  15
ENDBRANCH   1  11
BRANCH   4  18
HETATM   18  N2  UNL     1      25.730   2.465  50.932  1.00  0.00    -0.370 N 
HETATM   19  H8  UNL     1      24.720   2.348  50.711  1.00  0.00     0.161 HD
BRANCH  18  20
HETATM   20  C9  UNL     1      26.523   3.185  49.953  1.00  0.00     0.152 C 
BRANCH  20  21
HETATM   21  C10 UNL     1      25.703   4.309  49.376  1.00  0.00     0.051 C 
BRANCH  21  22
HETATM   22  C11 UNL     1      24.400   4.236  49.459  1.00  0.00     0.219 C 
HETATM   23  O2  UNL     1      23.199   3.916  49.623  1.00  0.00    -0.284 OA
ENDBRANCH  21  22
ENDBRANCH  20  21
ENDBRANCH  18  20
ENDBRANCH   4  18
TORSDOF 6
ENDMDL
MODEL 6
REMARK VINA RESULT:      -6.4      3.591      3.942
REMARK  6 active torsions:
REMARK  status: ('A' for Active; 'I' for Inactive)
REMARK    1  A    between atoms: C3_3  and  C4_4 
REMARK       I    between atoms: C4_4  and  N1_6 
REMARK    2  A    between atoms: N1_6  and  C5_7 
REMARK    3  A    between atoms: C8_10  and  N2_11 
REMARK    4  A    between atoms: N2_11  and  C9_12 
REMARK    5  A    between atoms: C9_12  and  C10_13 
REMARK    6  A    between atoms: C10_13  and  C11_14 
ROOT
HETATM    1  C5  UNL     1      21.943   1.381  51.958  1.00  0.00     0.131 A 
HETATM    2  C6  UNL     1      23.167   0.994  52.435  1.00  0.00     0.068 A 
HETATM    3  C7  UNL     1      23.312   0.138  53.507  1.00  0.00     0.043 A 
HETATM    4  C8  UNL     1      24.587  -0.188  53.906  1.00  0.00     0.138 A 
HETATM    5  N3  UNL     1      24.624  -1.026  54.956  1.00  0.00    -0.224 NA
HETATM    6  C12 UNL     1      23.521  -1.502  55.560  1.00  0.00     0.236 A 
HETATM    7  N4  UNL     1      22.276  -1.178  55.161  1.00  0.00    -0.240 NA
HETATM    8  C13 UNL     1      22.173  -0.341  54.113  1.00  0.00     0.089 A 
HETATM    9  C14 UNL     1      20.935   0.056  53.624  1.00  0.00     0.151 A 
HETATM   10  N5  UNL     1      20.821   0.903  52.565  1.00  0.00    -0.241 NA
ENDROOT
BRANCH   1  11
HETATM   11  N1  UNL     1      21.812   2.274  50.841  1.00  0.00    -0.308 N 
HETATM   12  C4  UNL     1      21.564   1.793  49.525  1.00  0.00     0.246 C 
HETATM   13  O1  UNL     1      21.452   0.561  49.296  1.00  0.00    -0.268 OA
HETATM   14  H6  UNL     1      21.915   3.277  51.105  1.00  0.00     0.170 HD
BRANCH  12  15
HETATM   15  C3  UNL     1      21.441   2.761  48.439  1.00  0.00     0.070 C 
HETATM   16  C2  UNL     1      22.078   2.771  47.277  1.00  0.00    -0.026 C 
HETATM   17  C1  UNL     1      21.925   3.775  46.193  1.00  0.00     0.036 C 
ENDBRANCH  12  15
ENDBRANCH   1  11
BRANCH   4  18
HETATM   18  N2  UNL     1      25.791   0.280  53.313  1.00  0.00    -0.370 N 
HETATM   19  H8  UNL     1      26.162   1.250  53.385  1.00  0.00     0.161 HD
BRANCH  18  20
HETATM   20  C9  UNL     1      26.585  -0.654  52.537  1.00  0.00     0.152 C 
BRANCH  20  21
HETATM   21  C10 UNL     1      27.903  -0.885  53.230  1.00  0.00     0.051 C 
BRANCH  21  22
HETATM   22  C11 UNL     1      28.235  -0.093  54.216  1.00  0.00     0.219 C 
HETATM   23  O2  UNL     1      28.390   0.841  55.038  1.00  0.00    -0.284 OA
ENDBRANCH  21  22
ENDBRANCH  20  21
ENDBRANCH  18  20
ENDBRANCH   4  18
TORSDOF 6
ENDMDL
MODEL 7
REMARK VINA RESULT:      -6.3      2.077      4.293
REMARK  6 active torsions:
REMARK  status: ('A' for Active; 'I' for Inactive)
REMARK    1  A    between atoms: C3_3  and  C4_4 
REMARK       I    between atoms: C4_4  and  N1_6 
REMARK    2  A    between atoms: N1_6  and  C5_7 
REMARK    3  A    between atoms: C8_10  and  N2_11 
REMARK    4  A    between atoms: N2_11  and  C9_12 
REMARK    5  A    between atoms: C9_12  and  C10_13 
REMARK    6  A    between atoms: C10_13  and  C11_14 
ROOT
HETATM    1  C5  UNL     1      26.448   2.599  51.890  1.00  0.00     0.131 A 
HETATM    2  C6  UNL     1      25.201   2.125  52.200  1.00  0.00     0.068 A 
HETATM    3  C7  UNL     1      25.001   1.013  52.990  1.00  0.00     0.043 A 
HETATM    4  C8  UNL     1      23.706   0.622  53.240  1.00  0.00     0.138 A 
HETATM    5  N3  UNL     1      23.615  -0.471  54.018  1.00  0.00    -0.224 NA
HETATM    6  C12 UNL     1      24.686  -1.119  54.508  1.00  0.00     0.236 A 
HETATM    7  N4  UNL     1      25.951  -0.728  54.258  1.00  0.00    -0.240 NA
HETATM    8  C13 UNL     1      26.107   0.360  53.483  1.00  0.00     0.089 A 
HETATM    9  C14 UNL     1      27.369   0.846  53.166  1.00  0.00     0.151 A 
HETATM   10  N5  UNL     1      27.538   1.946  52.383  1.00  0.00    -0.241 NA
ENDROOT
BRANCH   1  11
HETATM   11  N1  UNL     1      26.637   3.758  51.065  1.00  0.00    -0.308 N 
HETATM   12  C4  UNL     1      26.758   3.658  49.651  1.00  0.00     0.246 C 
HETATM   13  O1  UNL     1      26.704   2.541  49.074  1.00  0.00    -0.268 OA
HETATM   14  H6  UNL     1      26.672   4.646  51.609  1.00  0.00     0.170 HD
BRANCH  12  15
HETATM   15  C3  UNL     1      26.948   4.881  48.877  1.00  0.00     0.070 C 
HETATM   16  C2  UNL     1      28.087   5.445  48.504  1.00  0.00    -0.026 C 
HETATM   17  C1  UNL     1      28.240   6.693  47.714  1.00  0.00     0.036 C 
ENDBRANCH  12  15
ENDBRANCH   1  11
BRANCH   4  18
HETATM   18  N2  UNL     1      22.533   1.262  52.754  1.00  0.00    -0.370 N 
HETATM   19  H8  UNL     1      22.514   2.136  52.189  1.00  0.00     0.161 HD
BRANCH  18  20
HETATM   20  C9  UNL     1      21.246   0.665  53.057  1.00  0.00     0.152 C 
BRANCH  20  21
HETATM   21  C10 UNL     1      20.549   0.300  51.773  1.00  0.00     0.051 C 
BRANCH  21  22
HETATM   22  C11 UNL     1      21.134   0.596  50.642  1.00  0.00     0.219 C 
HETATM   23  O2  UNL     1      21.877   0.999  49.715  1.00  0.00    -0.284 OA
ENDBRANCH  21  22
ENDBRANCH  20  21
ENDBRANCH  18  20
ENDBRANCH   4  18
TORSDOF 6
ENDMDL
MODEL 8
REMARK VINA RESULT:      -6.3      6.356      9.086
REMARK  6 active torsions:
REMARK  status: ('A' for Active; 'I' for Inactive)
REMARK    1  A    between atoms: C3_3  and  C4_4 
REMARK       I    between atoms: C4_4  and  N1_6 
REMARK    2  A    between atoms: N1_6  and  C5_7 
REMARK    3  A    between atoms: C8_10  and  N2_11 
REMARK    4  A    between atoms: N2_11  and  C9_12 
REMARK    5  A    between atoms: C9_12  and  C10_13 
REMARK    6  A    between atoms: C10_13  and  C11_14 
ROOT
HETATM    1  C5  UNL     1      30.607   6.804  48.867  1.00  0.00     0.131 A 
HETATM    2  C6  UNL     1      31.583   5.864  48.671  1.00  0.00     0.068 A 
HETATM    3  C7  UNL     1      32.919   6.188  48.562  1.00  0.00     0.043 A 
HETATM    4  C8  UNL     1      33.818   5.166  48.366  1.00  0.00     0.138 A 
HETATM    5  N3  UNL     1      35.093   5.582  48.273  1.00  0.00    -0.224 NA
HETATM    6  C12 UNL     1      35.457   6.873  48.364  1.00  0.00     0.236 A 
HETATM    7  N4  UNL     1      34.568   7.868  48.558  1.00  0.00    -0.240 NA
HETATM    8  C13 UNL     1      33.274   7.514  48.658  1.00  0.00     0.089 A 
HETATM    9  C14 UNL     1      32.280   8.462  48.858  1.00  0.00     0.151 A 
HETATM   10  N5  UNL     1      30.968   8.115  48.961  1.00  0.00    -0.241 NA
ENDROOT
BRANCH   1  11
HETATM   11  N1  UNL     1      29.220   6.448  48.977  1.00  0.00    -0.308 N 
HETATM   12  C4  UNL     1      28.285   6.759  47.951  1.00  0.00     0.246 C 
HETATM   13  O1  UNL     1      28.645   7.362  46.906  1.00  0.00    -0.268 OA
HETATM   14  H6  UNL     1      28.994   5.953  49.865  1.00  0.00     0.170 HD
BRANCH  12  15
HETATM   15  C3  UNL     1      26.891   6.365  48.132  1.00  0.00     0.070 C 
HETATM   16  C2  UNL     1      26.402   5.432  48.935  1.00  0.00    -0.026 C 
HETATM   17  C1  UNL     1      24.973   5.059  49.093  1.00  0.00     0.036 C 
ENDBRANCH  12  15
ENDBRANCH   1  11
BRANCH   4  18
HETATM   18  N2  UNL     1      33.500   3.784  48.260  1.00  0.00    -0.370 N 
HETATM   19  H8  UNL     1      33.214   3.169  49.050  1.00  0.00     0.161 HD
BRANCH  18  20
HETATM   20  C9  UNL     1      33.571   3.159  46.953  1.00  0.00     0.152 C 
BRANCH  20  21
HETATM   21  C10 UNL     1      32.274   2.449  46.667  1.00  0.00     0.051 C 
BRANCH  21  22
HETATM   22  C11 UNL     1      32.257   1.143  46.708  1.00  0.00     0.219 C 
HETATM   23  O2  UNL     1      31.991  -0.076  46.840  1.00  0.00    -0.284 OA
ENDBRANCH  21  22
ENDBRANCH  20  21
ENDBRANCH  18  20
ENDBRANCH   4  18
TORSDOF 6
ENDMDL
MODEL 9
REMARK VINA RESULT:      -5.8      3.513      7.693
REMARK  6 active torsions:
REMARK  status: ('A' for Active; 'I' for Inactive)
REMARK    1  A    between atoms: C3_3  and  C4_4 
REMARK       I    between atoms: C4_4  and  N1_6 
REMARK    2  A    between atoms: N1_6  and  C5_7 
REMARK    3  A    between atoms: C8_10  and  N2_11 
REMARK    4  A    between atoms: N2_11  and  C9_12 
REMARK    5  A    between atoms: C9_12  and  C10_13 
REMARK    6  A    between atoms: C10_13  and  C11_14 
ROOT
HETATM    1  C5  UNL     1      25.157   2.749  51.504  1.00  0.00     0.131 A 
HETATM    2  C6  UNL     1      24.437   3.912  51.445  1.00  0.00     0.068 A 
HETATM    3  C7  UNL     1      24.738   4.931  50.565  1.00  0.00     0.043 A 
HETATM    4  C8  UNL     1      23.951   6.058  50.588  1.00  0.00     0.138 A 
HETATM    5  N3  UNL     1      24.323   6.992  49.695  1.00  0.00    -0.224 NA
HETATM    6  C12 UNL     1      25.364   6.840  48.859  1.00  0.00     0.236 A 
HETATM    7  N4  UNL     1      26.130   5.731  48.843  1.00  0.00    -0.240 NA
HETATM    8  C13 UNL     1      25.807   4.759  49.715  1.00  0.00     0.089 A 
HETATM    9  C14 UNL     1      26.532   3.577  49.780  1.00  0.00     0.151 A 
HETATM   10  N5  UNL     1      26.214   2.587  50.659  1.00  0.00    -0.241 NA
ENDROOT
BRANCH   1  11
HETATM   11  N1  UNL     1      24.829   1.699  52.427  1.00  0.00    -0.308 N 
HETATM   12  C4  UNL     1      23.651   0.915  52.280  1.00  0.00     0.246 C 
HETATM   13  O1  UNL     1      22.852   1.118  51.329  1.00  0.00    -0.268 OA
HETATM   14  H6  UNL     1      25.534   1.588  53.186  1.00  0.00     0.170 HD
BRANCH  12  15
HETATM   15  C3  UNL     1      23.384  -0.136  53.258  1.00  0.00     0.070 C 
HETATM   16  C2  UNL     1      22.215  -0.516  53.750  1.00  0.00    -0.026 C 
HETATM   17  C1  UNL     1      21.982  -1.593  54.746  1.00  0.00     0.036 C 
ENDBRANCH  12  15
ENDBRANCH   1  11
BRANCH   4  18
HETATM   18  N2  UNL     1      22.839   6.281  51.445  1.00  0.00    -0.370 N 
HETATM   19  H8  UNL     1      22.890   6.418  52.476  1.00  0.00     0.161 HD
BRANCH  18  20
HETATM   20  C9  UNL     1      21.514   6.325  50.857  1.00  0.00     0.152 C 
BRANCH  20  21
HETATM   21  C10 UNL     1      21.032   4.920  50.605  1.00  0.00     0.051 C 
BRANCH  21  22
HETATM   22  C11 UNL     1      20.756   4.163  51.635  1.00  0.00     0.219 C 
HETATM   23  O2  UNL     1      20.238   3.505  52.568  1.00  0.00    -0.284 OA
ENDBRANCH  21  22
ENDBRANCH  20  21
ENDBRANCH  18  20
ENDBRANCH   4  18
TORSDOF 6
ENDMDL
