MODEL 1
REMARK VINA RESULT:      -7.8      0.000      0.000
REMARK  6 active torsions:
REMARK  status: ('A' for Active; 'I' for Inactive)
REMARK    1  A    between atoms: S1_2  and  N1_4 
REMARK    2  A    between atoms: S1_2  and  C8_15 
REMARK    3  A    between atoms: N1_4  and  N2_5 
REMARK    4  A    between atoms: N2_5  and  C1_6 
REMARK    5  A    between atoms: C1_6  and  C2_7 
REMARK    6  A    between atoms: C7_13  and  O3_14 
ROOT
HETATM    1  N1  UNL     1      24.488   4.089  51.722  1.00  0.00    -0.227 N 
HETATM    2  H1  UNL     1      23.773   4.379  52.384  1.00  0.00     0.200 HD
ENDROOT
BRANCH   1   3
HETATM    3  S1  UNL     1      24.305   4.484  50.096  1.00  0.00     0.275 S 
HETATM    4  O1  UNL     1      24.010   3.185  49.356  1.00  0.00    -0.199 OA
HETATM    5  O2  UNL     1      23.117   5.383  49.799  1.00  0.00    -0.199 OA
BRANCH   3   6
HETATM    6  C8  UNL     1      25.751   5.145  49.343  1.00  0.00     0.081 A 
HETATM    7  C9  UNL     1      25.786   6.460  48.926  1.00  0.00     0.027 A 
HETATM    8  C10 UNL     1      26.878   7.055  48.326  1.00  0.00     0.025 A 
HETATM    9  C11 UNL     1      28.019   6.270  48.128  1.00  0.00     0.034 A 
HETATM   10 CL2  UNL     1      29.442   6.972  47.368  1.00  0.00    -0.084 Cl
HETATM   11  C12 UNL     1      28.010   4.940  48.539  1.00  0.00     0.025 A 
HETATM   12  C13 UNL     1      26.901   4.377  49.138  1.00  0.00     0.027 A 
ENDBRANCH   3   6
ENDBRANCH   1   3
BRANCH   1  13
HETATM   13  N2  UNL     1      25.469   3.245  52.092  1.00  0.00    -0.323 N 
HETATM   14  H2  UNL     1      26.408   3.344  51.709  1.00  0.00     0.181 HD
BRANCH  13  15
HETATM   15  C1  UNL     1      25.230   2.272  53.086  1.00  0.00     0.181 C 
BRANCH  15  16
HETATM   16  C2  UNL     1      26.269   1.184  53.140  1.00  0.00    -0.006 A 
HETATM   17  C3  UNL     1      26.043  -0.124  52.742  1.00  0.00     0.013 A 
HETATM   18  C4  UNL     1      27.054  -1.045  52.830  1.00  0.00     0.024 A 
HETATM   19  C5  UNL     1      28.286  -0.708  53.303  1.00  0.00     0.036 A 
HETATM   20 CL1  UNL     1      29.591  -1.889  53.419  1.00  0.00    -0.084 Cl
HETATM   21  C6  UNL     1      28.571   0.587  53.715  1.00  0.00     0.060 A 
HETATM   22  C7  UNL     1      27.536   1.515  53.620  1.00  0.00     0.075 A 
BRANCH  22  23
HETATM   23  O3  UNL     1      27.860   2.792  54.041  1.00  0.00    -0.360 OA
HETATM   24  H8  UNL     1      27.531   3.600  53.545  1.00  0.00     0.217 HD
ENDBRANCH  22  23
ENDBRANCH  15  16
ENDBRANCH  13  15
ENDBRANCH   1  13
TORSDOF 6
ENDMDL
MODEL 2
REMARK VINA RESULT:      -7.6      1.574      7.155
REMARK  6 active torsions:
REMARK  status: ('A' for Active; 'I' for Inactive)
REMARK    1  A    between atoms: S1_2  and  N1_4 
REMARK    2  A    between atoms: S1_2  and  C8_15 
REMARK    3  A    between atoms: N1_4  and  N2_5 
REMARK    4  A    between atoms: N2_5  and  C1_6 
REMARK    5  A    between atoms: C1_6  and  C2_7 
REMARK    6  A    between atoms: C7_13  and  O3_14 
ROOT
HETATM    1  N1  UNL     1      25.295   3.592  51.252  1.00  0.00    -0.227 N 
HETATM    2  H1  UNL     1      24.580   4.285  51.045  1.00  0.00     0.200 HD
ENDROOT
BRANCH   1   3
HETATM    3  S1  UNL     1      24.978   2.408  52.405  1.00  0.00     0.275 S 
HETATM    4  O1  UNL     1      24.626   3.133  53.699  1.00  0.00    -0.199 OA
HETATM    5  O2  UNL     1      23.767   1.543  52.099  1.00  0.00    -0.199 OA
BRANCH   3   6
HETATM    6  C8  UNL     1      26.355   1.384  52.791  1.00  0.00     0.081 A 
HETATM    7  C9  UNL     1      27.442   1.898  53.468  1.00  0.00     0.027 A 
HETATM    8  C10 UNL     1      28.562   1.164  53.808  1.00  0.00     0.025 A 
HETATM    9  C11 UNL     1      28.592  -0.185  53.439  1.00  0.00     0.034 A 
HETATM   10 CL2  UNL     1      29.993  -1.170  53.844  1.00  0.00    -0.084 Cl
HETATM   11  C12 UNL     1      27.509  -0.728  52.755  1.00  0.00     0.025 A 
HETATM   12  C13 UNL     1      26.404   0.035  52.432  1.00  0.00     0.027 A 
ENDBRANCH   3   6
ENDBRANCH   1   3
BRANCH   1  13
HETATM   13  N2  UNL     1      26.542   3.721  50.760  1.00  0.00    -0.323 N 
HETATM   14  H2  UNL     1      27.342   3.775  51.389  1.00  0.00     0.181 HD
BRANCH  13  15
HETATM   15  C1  UNL     1      26.762   3.690  49.366  1.00  0.00     0.181 C 
BRANCH  15  16
HETATM   16  C2  UNL     1      27.171   5.015  48.781  1.00  0.00    -0.006 A 
HETATM   17  C3  UNL     1      28.453   5.307  48.344  1.00  0.00     0.013 A 
HETATM   18  C4  UNL     1      28.729   6.545  47.827  1.00  0.00     0.024 A 
HETATM   19  C5  UNL     1      27.769   7.506  47.729  1.00  0.00     0.036 A 
HETATM   20 CL1  UNL     1      28.117   9.103  47.063  1.00  0.00    -0.084 Cl
HETATM   21  C6  UNL     1      26.466   7.271  48.149  1.00  0.00     0.060 A 
HETATM   22  C7  UNL     1      26.197   6.008  48.673  1.00  0.00     0.075 A 
BRANCH  22  23
HETATM   23  O3  UNL     1      24.890   5.814  49.080  1.00  0.00    -0.360 OA
HETATM   24  H8  UNL     1      24.492   4.894  49.122  1.00  0.00     0.217 HD
ENDBRANCH  22  23
ENDBRANCH  15  16
ENDBRANCH  13  15
ENDBRANCH   1  13
TORSDOF 6
ENDMDL
MODEL 3
REMARK VINA RESULT:      -7.5      3.047      7.781
REMARK  6 active torsions:
REMARK  status: ('A' for Active; 'I' for Inactive)
REMARK    1  A    between atoms: S1_2  and  N1_4 
REMARK    2  A    between atoms: S1_2  and  C8_15 
REMARK    3  A    between atoms: N1_4  and  N2_5 
REMARK    4  A    between atoms: N2_5  and  C1_6 
REMARK    5  A    between atoms: C1_6  and  C2_7 
REMARK    6  A    between atoms: C7_13  and  O3_14 
ROOT
HETATM    1  N1  UNL     1      25.934   2.831  52.190  1.00  0.00    -0.227 N 
HETATM    2  H1  UNL     1      25.239   3.537  52.415  1.00  0.00     0.200 HD
ENDROOT
BRANCH   1   3
HETATM    3  S1  UNL     1      26.068   1.472  53.174  1.00  0.00     0.275 S 
HETATM    4  O1  UNL     1      26.972   0.485  52.444  1.00  0.00    -0.199 OA
HETATM    5  O2  UNL     1      26.757   1.725  54.504  1.00  0.00    -0.199 OA
BRANCH   3   6
HETATM    6  C8  UNL     1      24.552   0.621  53.444  1.00  0.00     0.081 A 
HETATM    7  C9  UNL     1      23.403   1.011  52.789  1.00  0.00     0.027 A 
HETATM    8  C10 UNL     1      22.174   0.399  52.945  1.00  0.00     0.025 A 
HETATM    9  C11 UNL     1      22.096  -0.685  53.827  1.00  0.00     0.034 A 
HETATM   10 CL2  UNL     1      20.557  -1.504  54.068  1.00  0.00    -0.084 Cl
HETATM   11  C12 UNL     1      23.241  -1.099  54.500  1.00  0.00     0.025 A 
HETATM   12  C13 UNL     1      24.454  -0.464  54.319  1.00  0.00     0.027 A 
ENDBRANCH   3   6
ENDBRANCH   1   3
BRANCH   1  13
HETATM   13  N2  UNL     1      26.863   3.056  51.242  1.00  0.00    -0.323 N 
HETATM   14  H2  UNL     1      27.855   3.005  51.467  1.00  0.00     0.181 HD
BRANCH  13  15
HETATM   15  C1  UNL     1      26.471   3.274  49.903  1.00  0.00     0.181 C 
BRANCH  15  16
HETATM   16  C2  UNL     1      26.715   4.677  49.414  1.00  0.00    -0.006 A 
HETATM   17  C3  UNL     1      27.713   5.023  48.517  1.00  0.00     0.013 A 
HETATM   18  C4  UNL     1      27.857   6.330  48.133  1.00  0.00     0.024 A 
HETATM   19  C5  UNL     1      27.040   7.308  48.612  1.00  0.00     0.036 A 
HETATM   20 CL1  UNL     1      27.220   8.993  48.122  1.00  0.00    -0.084 Cl
HETATM   21  C6  UNL     1      26.022   7.021  49.513  1.00  0.00     0.060 A 
HETATM   22  C7  UNL     1      25.885   5.689  49.897  1.00  0.00     0.075 A 
BRANCH  22  23
HETATM   23  O3  UNL     1      24.861   5.445  50.794  1.00  0.00    -0.360 OA
HETATM   24  H8  UNL     1      24.764   5.992  51.630  1.00  0.00     0.217 HD
ENDBRANCH  22  23
ENDBRANCH  15  16
ENDBRANCH  13  15
ENDBRANCH   1  13
TORSDOF 6
ENDMDL
MODEL 4
REMARK VINA RESULT:      -7.4      3.921      5.205
REMARK  6 active torsions:
REMARK  status: ('A' for Active; 'I' for Inactive)
REMARK    1  A    between atoms: S1_2  and  N1_4 
REMARK    2  A    between atoms: S1_2  and  C8_15 
REMARK    3  A    between atoms: N1_4  and  N2_5 
REMARK    4  A    between atoms: N2_5  and  C1_6 
REMARK    5  A    between atoms: C1_6  and  C2_7 
REMARK    6  A    between atoms: C7_13  and  O3_14 
ROOT
HETATM    1  N1  UNL     1      24.558   4.153  51.654  1.00  0.00    -0.227 N 
HETATM    2  H1  UNL     1      24.400   5.027  52.148  1.00  0.00     0.200 HD
ENDROOT
BRANCH   1   3
HETATM    3  S1  UNL     1      23.438   3.651  50.502  1.00  0.00     0.275 S 
HETATM    4  O1  UNL     1      22.647   4.886  50.087  1.00  0.00    -0.199 OA
HETATM    5  O2  UNL     1      24.054   3.129  49.214  1.00  0.00    -0.199 OA
BRANCH   3   6
HETATM    6  C8  UNL     1      22.250   2.500  51.099  1.00  0.00     0.081 A 
HETATM    7  C9  UNL     1      21.435   2.823  52.164  1.00  0.00     0.027 A 
HETATM    8  C10 UNL     1      20.479   1.979  52.695  1.00  0.00     0.025 A 
HETATM    9  C11 UNL     1      20.333   0.715  52.112  1.00  0.00     0.034 A 
HETATM   10 CL2  UNL     1      19.132  -0.405  52.744  1.00  0.00    -0.084 Cl
HETATM   11  C12 UNL     1      21.142   0.364  51.035  1.00  0.00     0.025 A 
HETATM   12  C13 UNL     1      22.087   1.234  50.530  1.00  0.00     0.027 A 
ENDBRANCH   3   6
ENDBRANCH   1   3
BRANCH   1  13
HETATM   13  N2  UNL     1      25.536   3.311  52.038  1.00  0.00    -0.323 N 
HETATM   14  H2  UNL     1      26.469   3.386  51.637  1.00  0.00     0.181 HD
BRANCH  13  15
HETATM   15  C1  UNL     1      25.303   2.376  53.069  1.00  0.00     0.181 C 
BRANCH  15  16
HETATM   16  C2  UNL     1      26.299   1.247  53.108  1.00  0.00    -0.006 A 
HETATM   17  C3  UNL     1      26.033  -0.037  52.661  1.00  0.00     0.013 A 
HETATM   18  C4  UNL     1      27.005  -0.999  52.741  1.00  0.00     0.024 A 
HETATM   19  C5  UNL     1      28.238  -0.725  53.250  1.00  0.00     0.036 A 
HETATM   20 CL1  UNL     1      29.496  -1.958  53.354  1.00  0.00    -0.084 Cl
HETATM   21  C6  UNL     1      28.562   0.544  53.712  1.00  0.00     0.060 A 
HETATM   22  C7  UNL     1      27.566   1.514  53.626  1.00  0.00     0.075 A 
BRANCH  22  23
HETATM   23  O3  UNL     1      27.929   2.763  54.096  1.00  0.00    -0.360 OA
HETATM   24  H8  UNL     1      27.917   2.970  55.078  1.00  0.00     0.217 HD
ENDBRANCH  22  23
ENDBRANCH  15  16
ENDBRANCH  13  15
ENDBRANCH   1  13
TORSDOF 6
ENDMDL
MODEL 5
REMARK VINA RESULT:      -7.4      4.790      7.715
REMARK  6 active torsions:
REMARK  status: ('A' for Active; 'I' for Inactive)
REMARK    1  A    between atoms: S1_2  and  N1_4 
REMARK    2  A    between atoms: S1_2  and  C8_15 
REMARK    3  A    between atoms: N1_4  and  N2_5 
REMARK    4  A    between atoms: N2_5  and  C1_6 
REMARK    5  A    between atoms: C1_6  and  C2_7 
REMARK    6  A    between atoms: C7_13  and  O3_14 
ROOT
HETATM    1  N1  UNL     1      26.235   1.154  53.252  1.00  0.00    -0.227 N 
HETATM    2  H1  UNL     1      26.662   1.805  53.905  1.00  0.00     0.200 HD
ENDROOT
BRANCH   1   3
HETATM    3  S1  UNL     1      25.572  -0.278  53.838  1.00  0.00     0.275 S 
HETATM    4  O1  UNL     1      26.130  -1.408  52.981  1.00  0.00    -0.199 OA
HETATM    5  O2  UNL     1      25.984  -0.624  55.259  1.00  0.00    -0.199 OA
BRANCH   3   6
HETATM    6  C8  UNL     1      23.823  -0.383  53.687  1.00  0.00     0.081 A 
HETATM    7  C9  UNL     1      23.072  -1.015  54.656  1.00  0.00     0.027 A 
HETATM    8  C10 UNL     1      21.697  -1.142  54.613  1.00  0.00     0.025 A 
HETATM    9  C11 UNL     1      21.028  -0.594  53.512  1.00  0.00     0.034 A 
HETATM   10 CL2  UNL     1      19.277  -0.725  53.401  1.00  0.00    -0.084 Cl
HETATM   11  C12 UNL     1      21.762   0.049  52.520  1.00  0.00     0.025 A 
HETATM   12  C13 UNL     1      23.137   0.159  52.596  1.00  0.00     0.027 A 
ENDBRANCH   3   6
ENDBRANCH   1   3
BRANCH   1  13
HETATM   13  N2  UNL     1      26.360   1.330  51.923  1.00  0.00    -0.323 N 
HETATM   14  H2  UNL     1      26.498   0.531  51.306  1.00  0.00     0.181 HD
BRANCH  13  15
HETATM   15  C1  UNL     1      26.208   2.616  51.361  1.00  0.00     0.181 C 
BRANCH  15  16
HETATM   16  C2  UNL     1      24.774   3.030  51.158  1.00  0.00    -0.006 A 
HETATM   17  C3  UNL     1      24.113   2.966  49.942  1.00  0.00     0.013 A 
HETATM   18  C4  UNL     1      22.807   3.368  49.858  1.00  0.00     0.024 A 
HETATM   19  C5  UNL     1      22.132   3.833  50.946  1.00  0.00     0.036 A 
HETATM   20 CL1  UNL     1      20.449   4.352  50.845  1.00  0.00    -0.084 Cl
HETATM   21  C6  UNL     1      22.743   3.919  52.191  1.00  0.00     0.060 A 
HETATM   22  C7  UNL     1      24.072   3.507  52.265  1.00  0.00     0.075 A 
BRANCH  22  23
HETATM   23  O3  UNL     1      24.643   3.609  53.521  1.00  0.00    -0.360 OA
HETATM   24  H8  UNL     1      25.124   4.442  53.804  1.00  0.00     0.217 HD
ENDBRANCH  22  23
ENDBRANCH  15  16
ENDBRANCH  13  15
ENDBRANCH   1  13
TORSDOF 6
ENDMDL
MODEL 6
REMARK VINA RESULT:      -7.2      2.715      6.914
REMARK  6 active torsions:
REMARK  status: ('A' for Active; 'I' for Inactive)
REMARK    1  A    between atoms: S1_2  and  N1_4 
REMARK    2  A    between atoms: S1_2  and  C8_15 
REMARK    3  A    between atoms: N1_4  and  N2_5 
REMARK    4  A    between atoms: N2_5  and  C1_6 
REMARK    5  A    between atoms: C1_6  and  C2_7 
REMARK    6  A    between atoms: C7_13  and  O3_14 
ROOT
HETATM    1  N1  UNL     1      24.225   6.733  51.924  1.00  0.00    -0.227 N 
HETATM    2  H1  UNL     1      23.897   7.180  52.776  1.00  0.00     0.200 HD
ENDROOT
BRANCH   1   3
HETATM    3  S1  UNL     1      23.445   5.346  51.376  1.00  0.00     0.275 S 
HETATM    4  O1  UNL     1      22.225   5.144  52.267  1.00  0.00    -0.199 OA
HETATM    5  O2  UNL     1      22.887   5.456  49.967  1.00  0.00    -0.199 OA
BRANCH   3   6
HETATM    6  C8  UNL     1      24.394   3.873  51.524  1.00  0.00     0.081 A 
HETATM    7  C9  UNL     1      24.096   2.943  52.498  1.00  0.00     0.027 A 
HETATM    8  C10 UNL     1      24.791   1.763  52.684  1.00  0.00     0.025 A 
HETATM    9  C11 UNL     1      25.865   1.500  51.826  1.00  0.00     0.034 A 
HETATM   10 CL2  UNL     1      26.788   0.014  52.014  1.00  0.00    -0.084 Cl
HETATM   11  C12 UNL     1      26.186   2.422  50.835  1.00  0.00     0.025 A 
HETATM   12  C13 UNL     1      25.469   3.592  50.677  1.00  0.00     0.027 A 
ENDBRANCH   3   6
ENDBRANCH   1   3
BRANCH   1  13
HETATM   13  N2  UNL     1      25.376   7.120  51.342  1.00  0.00    -0.323 N 
HETATM   14  H2  UNL     1      26.271   6.930  51.790  1.00  0.00     0.181 HD
BRANCH  13  15
HETATM   15  C1  UNL     1      25.359   7.710  50.060  1.00  0.00     0.181 C 
BRANCH  15  16
HETATM   16  C2  UNL     1      26.725   7.901  49.456  1.00  0.00    -0.006 A 
HETATM   17  C3  UNL     1      27.225   7.134  48.415  1.00  0.00     0.013 A 
HETATM   18  C4  UNL     1      28.484   7.383  47.934  1.00  0.00     0.024 A 
HETATM   19  C5  UNL     1      29.263   8.372  48.453  1.00  0.00     0.036 A 
HETATM   20 CL1  UNL     1      30.884   8.698  47.837  1.00  0.00    -0.084 Cl
HETATM   21  C6  UNL     1      28.814   9.172  49.496  1.00  0.00     0.060 A 
HETATM   22  C7  UNL     1      27.533   8.911  49.977  1.00  0.00     0.075 A 
BRANCH  22  23
HETATM   23  O3  UNL     1      27.124   9.728  51.015  1.00  0.00    -0.360 OA
HETATM   24  H8  UNL     1      27.634   9.765  51.878  1.00  0.00     0.217 HD
ENDBRANCH  22  23
ENDBRANCH  15  16
ENDBRANCH  13  15
ENDBRANCH   1  13
TORSDOF 6
ENDMDL
MODEL 7
REMARK VINA RESULT:      -7.1      4.665      6.813
REMARK  6 active torsions:
REMARK  status: ('A' for Active; 'I' for Inactive)
REMARK    1  A    between atoms: S1_2  and  N1_4 
REMARK    2  A    between atoms: S1_2  and  C8_15 
REMARK    3  A    between atoms: N1_4  and  N2_5 
REMARK    4  A    between atoms: N2_5  and  C1_6 
REMARK    5  A    between atoms: C1_6  and  C2_7 
REMARK    6  A    between atoms: C7_13  and  O3_14 
ROOT
HETATM    1  N1  UNL     1      23.097   2.294  52.719  1.00  0.00    -0.227 N 
HETATM    2  H1  UNL     1      23.251   2.823  53.572  1.00  0.00     0.200 HD
ENDROOT
BRANCH   1   3
HETATM    3  S1  UNL     1      21.587   2.361  51.976  1.00  0.00     0.275 S 
HETATM    4  O1  UNL     1      20.914   3.640  52.459  1.00  0.00    -0.199 OA
HETATM    5  O2  UNL     1      21.637   2.492  50.464  1.00  0.00    -0.199 OA
BRANCH   3   6
HETATM    6  C8  UNL     1      20.500   1.052  52.422  1.00  0.00     0.081 A 
HETATM    7  C9  UNL     1      19.372   0.791  51.672  1.00  0.00     0.027 A 
HETATM    8  C10 UNL     1      18.468  -0.215  51.954  1.00  0.00     0.025 A 
HETATM    9  C11 UNL     1      18.716  -1.017  53.073  1.00  0.00     0.034 A 
HETATM   10 CL2  UNL     1      17.600  -2.314  53.483  1.00  0.00    -0.084 Cl
HETATM   11  C12 UNL     1      19.848  -0.775  53.847  1.00  0.00     0.025 A 
HETATM   12  C13 UNL     1      20.731   0.239  53.536  1.00  0.00     0.027 A 
ENDBRANCH   3   6
ENDBRANCH   1   3
BRANCH   1  13
HETATM   13  N2  UNL     1      24.009   1.404  52.285  1.00  0.00    -0.323 N 
HETATM   14  H2  UNL     1      24.542   1.583  51.436  1.00  0.00     0.181 HD
BRANCH  13  15
HETATM   15  C1  UNL     1      24.302   0.256  53.053  1.00  0.00     0.181 C 
BRANCH  15  16
HETATM   16  C2  UNL     1      25.773  -0.045  53.167  1.00  0.00    -0.006 A 
HETATM   17  C3  UNL     1      26.359  -1.222  52.727  1.00  0.00     0.013 A 
HETATM   18  C4  UNL     1      27.708  -1.404  52.876  1.00  0.00     0.024 A 
HETATM   19  C5  UNL     1      28.497  -0.454  53.449  1.00  0.00     0.036 A 
HETATM   20 CL1  UNL     1      30.236  -0.683  53.644  1.00  0.00    -0.084 Cl
HETATM   21  C6  UNL     1      27.966   0.745  53.907  1.00  0.00     0.060 A 
HETATM   22  C7  UNL     1      26.593   0.920  53.750  1.00  0.00     0.075 A 
BRANCH  22  23
HETATM   23  O3  UNL     1      26.103   2.126  54.219  1.00  0.00    -0.360 OA
HETATM   24  H8  UNL     1      26.053   2.931  53.623  1.00  0.00     0.217 HD
ENDBRANCH  22  23
ENDBRANCH  15  16
ENDBRANCH  13  15
ENDBRANCH   1  13
TORSDOF 6
ENDMDL
MODEL 8
REMARK VINA RESULT:      -7.0      1.898      2.466
REMARK  6 active torsions:
REMARK  status: ('A' for Active; 'I' for Inactive)
REMARK    1  A    between atoms: S1_2  and  N1_4 
REMARK    2  A    between atoms: S1_2  and  C8_15 
REMARK    3  A    between atoms: N1_4  and  N2_5 
REMARK    4  A    between atoms: N2_5  and  C1_6 
REMARK    5  A    between atoms: C1_6  and  C2_7 
REMARK    6  A    between atoms: C7_13  and  O3_14 
ROOT
HETATM    1  N1  UNL     1      22.972   3.355  50.679  1.00  0.00    -0.227 N 
HETATM    2  H1  UNL     1      22.889   2.616  49.986  1.00  0.00     0.200 HD
ENDROOT
BRANCH   1   3
HETATM    3  S1  UNL     1      23.344   4.916  50.169  1.00  0.00     0.275 S 
HETATM    4  O1  UNL     1      22.418   5.232  49.000  1.00  0.00    -0.199 OA
HETATM    5  O2  UNL     1      23.058   5.997  51.198  1.00  0.00    -0.199 OA
BRANCH   3   6
HETATM    6  C8  UNL     1      24.979   5.106  49.549  1.00  0.00     0.081 A 
HETATM    7  C9  UNL     1      25.863   4.047  49.567  1.00  0.00     0.027 A 
HETATM    8  C10 UNL     1      27.162   4.113  49.101  1.00  0.00     0.025 A 
HETATM    9  C11 UNL     1      27.605   5.334  48.581  1.00  0.00     0.034 A 
HETATM   10 CL2  UNL     1      29.251   5.478  47.974  1.00  0.00    -0.084 Cl
HETATM   11  C12 UNL     1      26.733   6.418  48.552  1.00  0.00     0.025 A 
HETATM   12  C13 UNL     1      25.440   6.317  49.025  1.00  0.00     0.027 A 
ENDBRANCH   3   6
ENDBRANCH   1   3
BRANCH   1  13
HETATM   13  N2  UNL     1      22.976   3.069  51.994  1.00  0.00    -0.323 N 
HETATM   14  H2  UNL     1      22.122   2.765  52.459  1.00  0.00     0.181 HD
BRANCH  13  15
HETATM   15  C1  UNL     1      24.184   3.099  52.723  1.00  0.00     0.181 C 
BRANCH  15  16
HETATM   16  C2  UNL     1      24.962   1.812  52.671  1.00  0.00    -0.006 A 
HETATM   17  C3  UNL     1      26.279   1.718  52.250  1.00  0.00     0.013 A 
HETATM   18  C4  UNL     1      26.903   0.498  52.236  1.00  0.00     0.024 A 
HETATM   19  C5  UNL     1      26.259  -0.635  52.630  1.00  0.00     0.036 A 
HETATM   20 CL1  UNL     1      27.056  -2.209  52.615  1.00  0.00    -0.084 Cl
HETATM   21  C6  UNL     1      24.940  -0.603  53.062  1.00  0.00     0.060 A 
HETATM   22  C7  UNL     1      24.316   0.643  53.073  1.00  0.00     0.075 A 
BRANCH  22  23
HETATM   23  O3  UNL     1      23.003   0.632  53.510  1.00  0.00    -0.360 OA
HETATM   24  H8  UNL     1      22.780   0.461  54.473  1.00  0.00     0.217 HD
ENDBRANCH  22  23
ENDBRANCH  15  16
ENDBRANCH  13  15
ENDBRANCH   1  13
TORSDOF 6
ENDMDL
MODEL 9
REMARK VINA RESULT:      -7.0      2.765      7.359
REMARK  6 active torsions:
REMARK  status: ('A' for Active; 'I' for Inactive)
REMARK    1  A    between atoms: S1_2  and  N1_4 
REMARK    2  A    between atoms: S1_2  and  C8_15 
REMARK    3  A    between atoms: N1_4  and  N2_5 
REMARK    4  A    between atoms: N2_5  and  C1_6 
REMARK    5  A    between atoms: C1_6  and  C2_7 
REMARK    6  A    between atoms: C7_13  and  O3_14 
ROOT
HETATM    1  N1  UNL     1      25.004   3.745  51.125  1.00  0.00    -0.227 N 
HETATM    2  H1  UNL     1      25.833   3.196  51.335  1.00  0.00     0.200 HD
ENDROOT
BRANCH   1   3
HETATM    3  S1  UNL     1      23.511   2.973  51.038  1.00  0.00     0.275 S 
HETATM    4  O1  UNL     1      22.454   4.015  51.384  1.00  0.00    -0.199 OA
HETATM    5  O2  UNL     1      23.138   2.483  49.649  1.00  0.00    -0.199 OA
BRANCH   3   6
HETATM    6  C8  UNL     1      23.298   1.672  52.203  1.00  0.00     0.081 A 
HETATM    7  C9  UNL     1      22.056   1.410  52.741  1.00  0.00     0.027 A 
HETATM    8  C10 UNL     1      21.803   0.410  53.660  1.00  0.00     0.025 A 
HETATM    9  C11 UNL     1      22.880  -0.383  54.070  1.00  0.00     0.034 A 
HETATM   10 CL2  UNL     1      22.621  -1.672  55.239  1.00  0.00    -0.084 Cl
HETATM   11  C12 UNL     1      24.145  -0.139  53.542  1.00  0.00     0.025 A 
HETATM   12  C13 UNL     1      24.361   0.868  52.623  1.00  0.00     0.027 A 
ENDBRANCH   3   6
ENDBRANCH   1   3
BRANCH   1  13
HETATM   13  N2  UNL     1      25.110   5.029  50.735  1.00  0.00    -0.323 N 
HETATM   14  H2  UNL     1      25.304   5.762  51.415  1.00  0.00     0.181 HD
BRANCH  13  15
HETATM   15  C1  UNL     1      25.045   5.362  49.364  1.00  0.00     0.181 C 
BRANCH  15  16
HETATM   16  C2  UNL     1      26.353   5.831  48.785  1.00  0.00    -0.006 A 
HETATM   17  C3  UNL     1      26.557   7.095  48.256  1.00  0.00     0.013 A 
HETATM   18  C4  UNL     1      27.786   7.428  47.749  1.00  0.00     0.024 A 
HETATM   19  C5  UNL     1      28.822   6.544  47.753  1.00  0.00     0.036 A 
HETATM   20 CL1  UNL     1      30.407   6.967  47.103  1.00  0.00    -0.084 Cl
HETATM   21  C6  UNL     1      28.676   5.264  48.271  1.00  0.00     0.060 A 
HETATM   22  C7  UNL     1      27.423   4.936  48.784  1.00  0.00     0.075 A 
BRANCH  22  23
HETATM   23  O3  UNL     1      27.319   3.653  49.290  1.00  0.00    -0.360 OA
HETATM   24  H8  UNL     1      26.690   3.443  50.042  1.00  0.00     0.217 HD
ENDBRANCH  22  23
ENDBRANCH  15  16
ENDBRANCH  13  15
ENDBRANCH   1  13
TORSDOF 6
ENDMDL
