MODEL 1
REMARK VINA RESULT:      -7.1      0.000      0.000
REMARK  8 active torsions:
REMARK  status: ('A' for Active; 'I' for Inactive)
REMARK    1  A    between atoms: C2_2  and  C3_3 
REMARK    2  A    between atoms: C3_3  and  C4_5 
REMARK    3  A    between atoms: C13_17  and  C14_18 
REMARK    4  A    between atoms: C14_18  and  N3_19 
REMARK    5  A    between atoms: C16_21  and  O2_22 
REMARK    6  A    between atoms: O2_22  and  C17_23 
REMARK    7  A    between atoms: C17_23  and  C18_24 
REMARK    8  A    between atoms: C18_24  and  N4_25 
ROOT
HETATM    1  C4  UNL     1      23.389   2.762  49.772  1.00  0.00    -0.006 C 
HETATM    2  C5  UNL     1      22.557   2.279  48.831  1.00  0.00     0.016 C 
HETATM    3  C6  UNL     1      21.659   1.130  48.694  1.00  0.00     0.301 C 
HETATM    4  N1  UNL     1      20.261   1.509  48.639  1.00  0.00     0.115 N 
HETATM    5  C7  UNL     1      19.836   2.038  49.935  1.00  0.00     0.372 C 
HETATM    6  N2  UNL     1      18.590   2.694  49.773  1.00  0.00    -0.266 NA
HETATM    7  C8  UNL     1      17.433   2.208  49.818  1.00  0.00     0.086 C 
HETATM    8  C9  UNL     1      17.430   0.725  50.083  1.00  0.00     0.051 C 
HETATM    9  C10 UNL     1      18.332   0.541  51.286  1.00  0.00     0.045 C 
HETATM   10  C11 UNL     1      19.741   0.950  50.931  1.00  0.00    -0.004 C 
HETATM   11  C12 UNL     1      20.678   0.279  51.551  1.00  0.00     0.142 C 
HETATM   12  O1  UNL     1      21.896  -0.164  51.965  1.00  0.00    -0.349 OA
HETATM   13  C13 UNL     1      22.807   0.396  52.843  1.00  0.00     0.212 C 
HETATM   14  C16 UNL     1      23.514   1.549  52.247  1.00  0.00     0.078 C 
HETATM   15  C21 UNL     1      23.427   2.102  51.052  1.00  0.00     0.048 C 
HETATM   16  H6  UNL     1      20.139   2.226  47.886  1.00  0.00     0.319 HD
ENDROOT
BRANCH  14  17
HETATM   17  O2  UNL     1      24.326   1.900  53.334  1.00  0.00    -0.351 OA
BRANCH  17  18
HETATM   18  C17 UNL     1      25.680   2.274  53.194  1.00  0.00     0.205 C 
BRANCH  18  19
HETATM   19  C18 UNL     1      26.534   1.526  54.201  1.00  0.00     0.297 C 
BRANCH  19  20
HETATM   20  N4  UNL     1      27.877   1.267  53.733  1.00  0.00     0.082 N 
HETATM   21  C19 UNL     1      28.627   2.482  53.458  1.00  0.00     0.309 C 
HETATM   22  C20 UNL     1      28.617   0.375  54.582  1.00  0.00     0.309 C 
ENDBRANCH  19  20
ENDBRANCH  18  19
ENDBRANCH  17  18
ENDBRANCH  14  17
BRANCH  13  23
HETATM   23  C14 UNL     1      23.809  -0.731  53.148  1.00  0.00     0.308 C 
BRANCH  23  24
HETATM   24  N3  UNL     1      23.908  -0.893  54.588  1.00  0.00     0.082 N 
HETATM   25  C15 UNL     1      22.677  -1.270  55.216  1.00  0.00     0.306 C 
HETATM   26  H17 UNL     1      24.677  -1.538  54.802  1.00  0.00     0.315 HD
ENDBRANCH  23  24
ENDBRANCH  13  23
BRANCH   1  27
HETATM   27  C3  UNL     1      24.041   3.976  49.296  1.00  0.00     0.085 C 
HETATM   28 CL1  UNL     1      23.432   5.464  48.629  1.00  0.00    -0.074 Cl
BRANCH  27  29
HETATM   29  C2  UNL     1      25.354   3.870  49.423  1.00  0.00    -0.131 C 
HETATM   30  C1  UNL     1      26.616   3.590  49.711  1.00  0.00     0.098 C 
ENDBRANCH  27  29
ENDBRANCH   1  27
TORSDOF 8
ENDMDL
MODEL 2
REMARK VINA RESULT:      -7.1      2.618      7.758
REMARK  8 active torsions:
REMARK  status: ('A' for Active; 'I' for Inactive)
REMARK    1  A    between atoms: C2_2  and  C3_3 
REMARK    2  A    between atoms: C3_3  and  C4_5 
REMARK    3  A    between atoms: C13_17  and  C14_18 
REMARK    4  A    between atoms: C14_18  and  N3_19 
REMARK    5  A    between atoms: C16_21  and  O2_22 
REMARK    6  A    between atoms: O2_22  and  C17_23 
REMARK    7  A    between atoms: C17_23  and  C18_24 
REMARK    8  A    between atoms: C18_24  and  N4_25 
ROOT
HETATM    1  C4  UNL     1      23.309   0.066  53.163  1.00  0.00    -0.006 C 
HETATM    2  C5  UNL     1      24.387  -0.726  53.021  1.00  0.00     0.016 C 
HETATM    3  C6  UNL     1      25.680  -0.650  52.336  1.00  0.00     0.301 C 
HETATM    4  N1  UNL     1      26.802  -0.588  53.250  1.00  0.00     0.115 N 
HETATM    5  C7  UNL     1      26.794   0.688  53.965  1.00  0.00     0.372 C 
HETATM    6  N2  UNL     1      27.683   0.600  55.065  1.00  0.00    -0.266 NA
HETATM    7  C8  UNL     1      28.919   0.819  55.099  1.00  0.00     0.086 C 
HETATM    8  C9  UNL     1      29.477   1.228  53.760  1.00  0.00     0.051 C 
HETATM    9  C10 UNL     1      28.566   2.337  53.277  1.00  0.00     0.045 C 
HETATM   10  C11 UNL     1      27.175   1.791  53.058  1.00  0.00    -0.004 C 
HETATM   11  C12 UNL     1      26.508   2.367  52.090  1.00  0.00     0.142 C 
HETATM   12  O1  UNL     1      25.523   2.687  51.208  1.00  0.00    -0.349 OA
HETATM   13  C13 UNL     1      24.351   3.400  51.385  1.00  0.00     0.212 C 
HETATM   14  C16 UNL     1      23.334   2.620  52.119  1.00  0.00     0.078 C 
HETATM   15  C21 UNL     1      23.359   1.394  52.605  1.00  0.00     0.048 C 
HETATM   16  H6  UNL     1      26.732  -1.390  53.919  1.00  0.00     0.319 HD
ENDROOT
BRANCH  14  17
HETATM   17  O2  UNL     1      22.305   3.571  52.156  1.00  0.00    -0.351 OA
BRANCH  17  18
HETATM   18  C17 UNL     1      20.938   3.225  52.206  1.00  0.00     0.205 C 
BRANCH  18  19
HETATM   19  C18 UNL     1      20.379   3.104  50.800  1.00  0.00     0.297 C 
BRANCH  19  20
HETATM   20  N4  UNL     1      20.143   1.737  50.394  1.00  0.00     0.082 N 
HETATM   21  C19 UNL     1      18.792   1.514  49.903  1.00  0.00     0.309 C 
HETATM   22  C20 UNL     1      21.125   1.237  49.472  1.00  0.00     0.309 C 
ENDBRANCH  19  20
ENDBRANCH  18  19
ENDBRANCH  17  18
ENDBRANCH  14  17
BRANCH  13  23
HETATM   23  C14 UNL     1      23.852   3.704  49.962  1.00  0.00     0.308 C 
BRANCH  23  24
HETATM   24  N3  UNL     1      23.532   5.117  49.868  1.00  0.00     0.082 N 
HETATM   25  C15 UNL     1      24.428   5.964  50.597  1.00  0.00     0.306 C 
HETATM   26  H17 UNL     1      23.453   5.380  48.879  1.00  0.00     0.315 HD
ENDBRANCH  23  24
ENDBRANCH  13  23
BRANCH   1  27
HETATM   27  C3  UNL     1      22.300  -0.595  53.982  1.00  0.00     0.085 C 
HETATM   28 CL1  UNL     1      22.399  -1.630  55.377  1.00  0.00    -0.074 Cl
BRANCH  27  29
HETATM   29  C2  UNL     1      21.088  -0.316  53.528  1.00  0.00    -0.131 C 
HETATM   30  C1  UNL     1      19.809  -0.237  53.194  1.00  0.00     0.098 C 
ENDBRANCH  27  29
ENDBRANCH   1  27
TORSDOF 8
ENDMDL
MODEL 3
REMARK VINA RESULT:      -7.0      1.899      6.490
REMARK  8 active torsions:
REMARK  status: ('A' for Active; 'I' for Inactive)
REMARK    1  A    between atoms: C2_2  and  C3_3 
REMARK    2  A    between atoms: C3_3  and  C4_5 
REMARK    3  A    between atoms: C13_17  and  C14_18 
REMARK    4  A    between atoms: C14_18  and  N3_19 
REMARK    5  A    between atoms: C16_21  and  O2_22 
REMARK    6  A    between atoms: O2_22  and  C17_23 
REMARK    7  A    between atoms: C17_23  and  C18_24 
REMARK    8  A    between atoms: C18_24  and  N4_25 
ROOT
HETATM    1  C4  UNL     1      22.946   2.974  50.989  1.00  0.00    -0.006 C 
HETATM    2  C5  UNL     1      23.934   3.403  51.795  1.00  0.00     0.016 C 
HETATM    3  C6  UNL     1      24.437   3.069  53.130  1.00  0.00     0.301 C 
HETATM    4  N1  UNL     1      25.760   2.478  53.103  1.00  0.00     0.115 N 
HETATM    5  C7  UNL     1      25.701   1.151  52.492  1.00  0.00     0.372 C 
HETATM    6  N2  UNL     1      27.020   0.734  52.181  1.00  0.00    -0.266 NA
HETATM    7  C8  UNL     1      27.851   0.140  52.911  1.00  0.00     0.086 C 
HETATM    8  C9  UNL     1      27.319  -0.142  54.292  1.00  0.00     0.051 C 
HETATM    9  C10 UNL     1      25.970  -0.791  54.068  1.00  0.00     0.045 C 
HETATM   10  C11 UNL     1      25.039   0.192  53.400  1.00  0.00    -0.004 C 
HETATM   11  C12 UNL     1      23.778   0.060  53.726  1.00  0.00     0.142 C 
HETATM   12  O1  UNL     1      22.433   0.248  53.800  1.00  0.00    -0.349 OA
HETATM   13  C13 UNL     1      21.427  -0.086  52.910  1.00  0.00     0.212 C 
HETATM   14  C16 UNL     1      21.410   0.806  51.733  1.00  0.00     0.078 C 
HETATM   15  C21 UNL     1      22.165   1.839  51.411  1.00  0.00     0.048 C 
HETATM   16  H6  UNL     1      26.397   3.109  52.563  1.00  0.00     0.319 HD
ENDROOT
BRANCH  14  17
HETATM   17  O2  UNL     1      20.338   0.235  51.034  1.00  0.00    -0.351 OA
BRANCH  17  18
HETATM   18  C17 UNL     1      19.541   0.958  50.120  1.00  0.00     0.205 C 
BRANCH  18  19
HETATM   19  C18 UNL     1      18.315   1.513  50.823  1.00  0.00     0.297 C 
BRANCH  19  20
HETATM   20  N4  UNL     1      18.463   2.892  51.228  1.00  0.00     0.082 N 
HETATM   21  C19 UNL     1      19.206   3.691  50.266  1.00  0.00     0.309 C 
HETATM   22  C20 UNL     1      17.220   3.521  51.582  1.00  0.00     0.309 C 
ENDBRANCH  19  20
ENDBRANCH  18  19
ENDBRANCH  17  18
ENDBRANCH  14  17
BRANCH  13  23
HETATM   23  C14 UNL     1      20.122   0.075  53.708  1.00  0.00     0.308 C 
BRANCH  23  24
HETATM   24  N3  UNL     1      19.483  -1.223  53.832  1.00  0.00     0.082 N 
HETATM   25  C15 UNL     1      18.153  -1.268  53.303  1.00  0.00     0.306 C 
HETATM   26  H17 UNL     1      20.096  -1.940  53.427  1.00  0.00     0.315 HD
ENDBRANCH  23  24
ENDBRANCH  13  23
BRANCH   1  27
HETATM   27  C3  UNL     1      22.940   3.736  49.745  1.00  0.00     0.085 C 
HETATM   28 CL1  UNL     1      23.181   5.422  49.389  1.00  0.00    -0.074 Cl
BRANCH  27  29
HETATM   29  C2  UNL     1      22.701   2.935  48.720  1.00  0.00    -0.131 C 
HETATM   30  C1  UNL     1      22.293   2.035  47.838  1.00  0.00     0.098 C 
ENDBRANCH  27  29
ENDBRANCH   1  27
TORSDOF 8
ENDMDL
MODEL 4
REMARK VINA RESULT:      -6.9      1.776      6.406
REMARK  8 active torsions:
REMARK  status: ('A' for Active; 'I' for Inactive)
REMARK    1  A    between atoms: C2_2  and  C3_3 
REMARK    2  A    between atoms: C3_3  and  C4_5 
REMARK    3  A    between atoms: C13_17  and  C14_18 
REMARK    4  A    between atoms: C14_18  and  N3_19 
REMARK    5  A    between atoms: C16_21  and  O2_22 
REMARK    6  A    between atoms: O2_22  and  C17_23 
REMARK    7  A    between atoms: C17_23  and  C18_24 
REMARK    8  A    between atoms: C18_24  and  N4_25 
ROOT
HETATM    1  C4  UNL     1      23.878   3.597  50.508  1.00  0.00    -0.006 C 
HETATM    2  C5  UNL     1      24.414   3.890  51.706  1.00  0.00     0.016 C 
HETATM    3  C6  UNL     1      24.268   3.410  53.082  1.00  0.00     0.301 C 
HETATM    4  N1  UNL     1      25.454   2.738  53.576  1.00  0.00     0.115 N 
HETATM    5  C7  UNL     1      25.646   1.477  52.863  1.00  0.00     0.372 C 
HETATM    6  N2  UNL     1      26.957   1.003  53.120  1.00  0.00    -0.266 NA
HETATM    7  C8  UNL     1      27.367   0.296  54.072  1.00  0.00     0.086 C 
HETATM    8  C9  UNL     1      26.273  -0.071  55.042  1.00  0.00     0.051 C 
HETATM    9  C10 UNL     1      25.150  -0.609  54.181  1.00  0.00     0.045 C 
HETATM   10  C11 UNL     1      24.631   0.487  53.281  1.00  0.00    -0.004 C 
HETATM   11  C12 UNL     1      23.354   0.409  53.005  1.00  0.00     0.142 C 
HETATM   12  O1  UNL     1      22.119   0.676  52.500  1.00  0.00    -0.349 OA
HETATM   13  C13 UNL     1      21.605   0.486  51.230  1.00  0.00     0.212 C 
HETATM   14  C16 UNL     1      22.129   1.476  50.267  1.00  0.00     0.078 C 
HETATM   15  C21 UNL     1      22.969   2.482  50.421  1.00  0.00     0.048 C 
HETATM   16  H6  UNL     1      26.276   3.372  53.441  1.00  0.00     0.319 HD
ENDROOT
BRANCH  14  17
HETATM   17  O2  UNL     1      21.466   1.039  49.112  1.00  0.00    -0.351 OA
BRANCH  17  18
HETATM   18  C17 UNL     1      21.225   1.873  48.000  1.00  0.00     0.205 C 
BRANCH  18  19
HETATM   19  C18 UNL     1      19.869   2.542  48.134  1.00  0.00     0.297 C 
BRANCH  19  20
HETATM   20  N4  UNL     1      19.915   3.973  47.937  1.00  0.00     0.082 N 
HETATM   21  C19 UNL     1      20.311   4.699  49.133  1.00  0.00     0.309 C 
HETATM   22  C20 UNL     1      20.700   4.369  46.800  1.00  0.00     0.309 C 
ENDBRANCH  19  20
ENDBRANCH  18  19
ENDBRANCH  17  18
ENDBRANCH  14  17
BRANCH  13  23
HETATM   23  C14 UNL     1      20.085   0.662  51.387  1.00  0.00     0.308 C 
BRANCH  23  24
HETATM   24  N3  UNL     1      19.807   2.037  51.761  1.00  0.00     0.082 N 
HETATM   25  C15 UNL     1      18.450   2.436  51.539  1.00  0.00     0.306 C 
HETATM   26  H17 UNL     1      20.113   2.191  52.729  1.00  0.00     0.315 HD
ENDBRANCH  23  24
ENDBRANCH  13  23
BRANCH   1  27
HETATM   27  C3  UNL     1      24.438   4.463  49.477  1.00  0.00     0.085 C 
HETATM   28 CL1  UNL     1      23.728   5.615  48.384  1.00  0.00    -0.074 Cl
BRANCH  27  29
HETATM   29  C2  UNL     1      25.749   4.296  49.404  1.00  0.00    -0.131 C 
HETATM   30  C1  UNL     1      27.044   4.261  49.127  1.00  0.00     0.098 C 
ENDBRANCH  27  29
ENDBRANCH   1  27
TORSDOF 8
ENDMDL
MODEL 5
REMARK VINA RESULT:      -6.8      2.976      6.309
REMARK  8 active torsions:
REMARK  status: ('A' for Active; 'I' for Inactive)
REMARK    1  A    between atoms: C2_2  and  C3_3 
REMARK    2  A    between atoms: C3_3  and  C4_5 
REMARK    3  A    between atoms: C13_17  and  C14_18 
REMARK    4  A    between atoms: C14_18  and  N3_19 
REMARK    5  A    between atoms: C16_21  and  O2_22 
REMARK    6  A    between atoms: O2_22  and  C17_23 
REMARK    7  A    between atoms: C17_23  and  C18_24 
REMARK    8  A    between atoms: C18_24  and  N4_25 
ROOT
HETATM    1  C4  UNL     1      25.449   2.142  51.348  1.00  0.00    -0.006 C 
HETATM    2  C5  UNL     1      26.358   2.793  50.601  1.00  0.00     0.016 C 
HETATM    3  C6  UNL     1      26.379   3.472  49.304  1.00  0.00     0.301 C 
HETATM    4  N1  UNL     1      26.583   4.903  49.418  1.00  0.00     0.115 N 
HETATM    5  C7  UNL     1      25.414   5.525  50.036  1.00  0.00     0.372 C 
HETATM    6  N2  UNL     1      25.755   6.843  50.432  1.00  0.00    -0.266 NA
HETATM    7  C8  UNL     1      25.714   7.903  49.761  1.00  0.00     0.086 C 
HETATM    8  C9  UNL     1      25.228   7.684  48.351  1.00  0.00     0.051 C 
HETATM    9  C10 UNL     1      23.955   6.878  48.497  1.00  0.00     0.045 C 
HETATM   10  C11 UNL     1      24.273   5.530  49.096  1.00  0.00    -0.004 C 
HETATM   11  C12 UNL     1      23.498   4.555  48.693  1.00  0.00     0.142 C 
HETATM   12  O1  UNL     1      22.942   3.324  48.535  1.00  0.00    -0.349 OA
HETATM   13  C13 UNL     1      22.100   2.602  49.362  1.00  0.00     0.212 C 
HETATM   14  C16 UNL     1      22.815   2.045  50.529  1.00  0.00     0.078 C 
HETATM   15  C21 UNL     1      24.083   2.113  50.888  1.00  0.00     0.048 C 
HETATM   16  H6  UNL     1      27.442   5.072  49.991  1.00  0.00     0.319 HD
ENDROOT
BRANCH  14  17
HETATM   17  O2  UNL     1      21.743   1.404  51.164  1.00  0.00    -0.351 OA
BRANCH  17  18
HETATM   18  C17 UNL     1      21.043   1.970  52.252  1.00  0.00     0.205 C 
BRANCH  18  19
HETATM   19  C18 UNL     1      21.304   1.167  53.514  1.00  0.00     0.297 C 
BRANCH  19  20
HETATM   20  N4  UNL     1      21.715  -0.193  53.251  1.00  0.00     0.082 N 
HETATM   21  C19 UNL     1      23.112  -0.438  53.576  1.00  0.00     0.309 C 
HETATM   22  C20 UNL     1      20.858  -1.177  53.852  1.00  0.00     0.309 C 
ENDBRANCH  19  20
ENDBRANCH  18  19
ENDBRANCH  17  18
ENDBRANCH  14  17
BRANCH  13  23
HETATM   23  C14 UNL     1      21.562   1.460  48.483  1.00  0.00     0.308 C 
BRANCH  23  24
HETATM   24  N3  UNL     1      20.121   1.383  48.645  1.00  0.00     0.082 N 
HETATM   25  C15 UNL     1      19.459   2.650  48.562  1.00  0.00     0.306 C 
HETATM   26  H17 UNL     1      19.744   0.694  47.984  1.00  0.00     0.315 HD
ENDBRANCH  23  24
ENDBRANCH  13  23
BRANCH   1  27
HETATM   27  C3  UNL     1      26.058   1.659  52.582  1.00  0.00     0.085 C 
HETATM   28 CL1  UNL     1      26.249   2.363  54.162  1.00  0.00    -0.074 Cl
BRANCH  27  29
HETATM   29  C2  UNL     1      26.543   0.441  52.406  1.00  0.00    -0.131 C 
HETATM   30  C1  UNL     1      26.835  -0.850  52.357  1.00  0.00     0.098 C 
ENDBRANCH  27  29
ENDBRANCH   1  27
TORSDOF 8
ENDMDL
MODEL 6
REMARK VINA RESULT:      -6.7      2.602      4.632
REMARK  8 active torsions:
REMARK  status: ('A' for Active; 'I' for Inactive)
REMARK    1  A    between atoms: C2_2  and  C3_3 
REMARK    2  A    between atoms: C3_3  and  C4_5 
REMARK    3  A    between atoms: C13_17  and  C14_18 
REMARK    4  A    between atoms: C14_18  and  N3_19 
REMARK    5  A    between atoms: C16_21  and  O2_22 
REMARK    6  A    between atoms: O2_22  and  C17_23 
REMARK    7  A    between atoms: C17_23  and  C18_24 
REMARK    8  A    between atoms: C18_24  and  N4_25 
ROOT
HETATM    1  C4  UNL     1      21.479   0.824  53.023  1.00  0.00    -0.006 C 
HETATM    2  C5  UNL     1      20.471   1.709  52.922  1.00  0.00     0.016 C 
HETATM    3  C6  UNL     1      20.293   3.063  52.392  1.00  0.00     0.301 C 
HETATM    4  N1  UNL     1      19.425   3.107  51.232  1.00  0.00     0.115 N 
HETATM    5  C7  UNL     1      20.073   2.450  50.098  1.00  0.00     0.372 C 
HETATM    6  N2  UNL     1      19.103   2.216  49.092  1.00  0.00    -0.266 NA
HETATM    7  C8  UNL     1      18.722   2.981  48.172  1.00  0.00     0.086 C 
HETATM    8  C9  UNL     1      19.425   4.313  48.190  1.00  0.00     0.051 C 
HETATM    9  C10 UNL     1      20.899   3.977  48.277  1.00  0.00     0.045 C 
HETATM   10  C11 UNL     1      21.183   3.280  49.586  1.00  0.00    -0.004 C 
HETATM   11  C12 UNL     1      22.371   3.516  50.084  1.00  0.00     0.142 C 
HETATM   12  O1  UNL     1      23.458   3.504  50.901  1.00  0.00    -0.349 OA
HETATM   13  C13 UNL     1      24.430   2.538  51.094  1.00  0.00     0.212 C 
HETATM   14  C16 UNL     1      23.924   1.392  51.877  1.00  0.00     0.078 C 
HETATM   15  C21 UNL     1      22.741   1.155  52.411  1.00  0.00     0.048 C 
HETATM   16  H6  UNL     1      18.524   2.632  51.472  1.00  0.00     0.319 HD
ENDROOT
BRANCH  14  17
HETATM   17  O2  UNL     1      25.082   0.604  51.895  1.00  0.00    -0.351 OA
BRANCH  17  18
HETATM   18  C17 UNL     1      25.454  -0.195  52.999  1.00  0.00     0.205 C 
BRANCH  18  19
HETATM   19  C18 UNL     1      26.747  -0.931  52.697  1.00  0.00     0.297 C 
BRANCH  19  20
HETATM   20  N4  UNL     1      27.904  -0.334  53.324  1.00  0.00     0.082 N 
HETATM   21  C19 UNL     1      27.616   0.228  54.634  1.00  0.00     0.309 C 
HETATM   22  C20 UNL     1      29.045  -1.207  53.368  1.00  0.00     0.309 C 
ENDBRANCH  19  20
ENDBRANCH  18  19
ENDBRANCH  17  18
ENDBRANCH  14  17
BRANCH  13  23
HETATM   23  C14 UNL     1      25.549   3.251  51.873  1.00  0.00     0.308 C 
BRANCH  23  24
HETATM   24  N3  UNL     1      26.777   3.178  51.101  1.00  0.00     0.082 N 
HETATM   25  C15 UNL     1      26.603   3.451  49.706  1.00  0.00     0.306 C 
HETATM   26  H17 UNL     1      27.486   3.778  51.538  1.00  0.00     0.315 HD
ENDBRANCH  23  24
ENDBRANCH  13  23
BRANCH   1  27
HETATM   27  C3  UNL     1      21.021  -0.391  53.686  1.00  0.00     0.085 C 
HETATM   28 CL1  UNL     1      19.507  -1.248  53.674  1.00  0.00    -0.074 Cl
BRANCH  27  29
HETATM   29  C2  UNL     1      21.991  -0.899  54.429  1.00  0.00    -0.131 C 
HETATM   30  C1  UNL     1      22.798  -1.402  55.351  1.00  0.00     0.098 C 
ENDBRANCH  27  29
ENDBRANCH   1  27
TORSDOF 8
ENDMDL
MODEL 7
REMARK VINA RESULT:      -6.3      2.607      4.768
REMARK  8 active torsions:
REMARK  status: ('A' for Active; 'I' for Inactive)
REMARK    1  A    between atoms: C2_2  and  C3_3 
REMARK    2  A    between atoms: C3_3  and  C4_5 
REMARK    3  A    between atoms: C13_17  and  C14_18 
REMARK    4  A    between atoms: C14_18  and  N3_19 
REMARK    5  A    between atoms: C16_21  and  O2_22 
REMARK    6  A    between atoms: O2_22  and  C17_23 
REMARK    7  A    between atoms: C17_23  and  C18_24 
REMARK    8  A    between atoms: C18_24  and  N4_25 
ROOT
HETATM    1  C4  UNL     1      21.734   1.294  52.866  1.00  0.00    -0.006 C 
HETATM    2  C5  UNL     1      20.656   2.096  52.806  1.00  0.00     0.016 C 
HETATM    3  C6  UNL     1      20.325   3.390  52.203  1.00  0.00     0.301 C 
HETATM    4  N1  UNL     1      19.348   3.284  51.138  1.00  0.00     0.115 N 
HETATM    5  C7  UNL     1      19.933   2.588  49.993  1.00  0.00     0.372 C 
HETATM    6  N2  UNL     1      18.891   2.209  49.109  1.00  0.00    -0.266 NA
HETATM    7  C8  UNL     1      18.365   2.872  48.182  1.00  0.00     0.086 C 
HETATM    8  C9  UNL     1      18.962   4.248  48.034  1.00  0.00     0.051 C 
HETATM    9  C10 UNL     1      20.459   4.022  47.995  1.00  0.00     0.045 C 
HETATM   10  C11 UNL     1      20.921   3.450  49.313  1.00  0.00    -0.004 C 
HETATM   11  C12 UNL     1      22.130   3.806  49.670  1.00  0.00     0.142 C 
HETATM   12  O1  UNL     1      23.288   3.932  50.372  1.00  0.00    -0.349 OA
HETATM   13  C13 UNL     1      24.345   3.054  50.532  1.00  0.00     0.212 C 
HETATM   14  C16 UNL     1      24.007   1.939  51.440  1.00  0.00     0.078 C 
HETATM   15  C21 UNL     1      22.902   1.664  52.108  1.00  0.00     0.048 C 
HETATM   16  H6  UNL     1      18.513   2.767  51.501  1.00  0.00     0.319 HD
ENDROOT
BRANCH  14  17
HETATM   17  O2  UNL     1      25.218   1.238  51.396  1.00  0.00    -0.351 OA
BRANCH  17  18
HETATM   18  C17 UNL     1      25.692   0.449  52.467  1.00  0.00     0.205 C 
BRANCH  18  19
HETATM   19  C18 UNL     1      27.052   0.948  52.920  1.00  0.00     0.297 C 
BRANCH  19  20
HETATM   20  N4  UNL     1      27.306   0.719  54.324  1.00  0.00     0.082 N 
HETATM   21  C19 UNL     1      26.189   0.088  55.009  1.00  0.00     0.309 C 
HETATM   22  C20 UNL     1      28.537   0.022  54.577  1.00  0.00     0.309 C 
ENDBRANCH  19  20
ENDBRANCH  18  19
ENDBRANCH  17  18
ENDBRANCH  14  17
BRANCH  13  23
HETATM   23  C14 UNL     1      25.476   3.900  51.140  1.00  0.00     0.308 C 
BRANCH  23  24
HETATM   24  N3  UNL     1      26.712   3.612  50.434  1.00  0.00     0.082 N 
HETATM   25  C15 UNL     1      26.860   4.334  49.206  1.00  0.00     0.306 C 
HETATM   26  H17 UNL     1      27.504   3.746  51.072  1.00  0.00     0.315 HD
ENDBRANCH  23  24
ENDBRANCH  13  23
BRANCH   1  27
HETATM   27  C3  UNL     1      21.437   0.105  53.656  1.00  0.00     0.085 C 
HETATM   28 CL1  UNL     1      22.382  -0.846  54.765  1.00  0.00    -0.074 Cl
BRANCH  27  29
HETATM   29  C2  UNL     1      20.189  -0.282  53.448  1.00  0.00    -0.131 C 
HETATM   30  C1  UNL     1      19.031  -0.893  53.251  1.00  0.00     0.098 C 
ENDBRANCH  27  29
ENDBRANCH   1  27
TORSDOF 8
ENDMDL
MODEL 8
REMARK VINA RESULT:      -6.3      3.276      5.776
REMARK  8 active torsions:
REMARK  status: ('A' for Active; 'I' for Inactive)
REMARK    1  A    between atoms: C2_2  and  C3_3 
REMARK    2  A    between atoms: C3_3  and  C4_5 
REMARK    3  A    between atoms: C13_17  and  C14_18 
REMARK    4  A    between atoms: C14_18  and  N3_19 
REMARK    5  A    between atoms: C16_21  and  O2_22 
REMARK    6  A    between atoms: O2_22  and  C17_23 
REMARK    7  A    between atoms: C17_23  and  C18_24 
REMARK    8  A    between atoms: C18_24  and  N4_25 
ROOT
HETATM    1  C4  UNL     1      20.636   3.598  50.434  1.00  0.00    -0.006 C 
HETATM    2  C5  UNL     1      20.246   2.311  50.447  1.00  0.00     0.016 C 
HETATM    3  C6  UNL     1      20.902   1.002  50.480  1.00  0.00     0.301 C 
HETATM    4  N1  UNL     1      20.670   0.283  51.717  1.00  0.00     0.115 N 
HETATM    5  C7  UNL     1      21.349   0.959  52.821  1.00  0.00     0.372 C 
HETATM    6  N2  UNL     1      20.853   0.444  54.045  1.00  0.00    -0.266 NA
HETATM    7  C8  UNL     1      21.237  -0.562  54.690  1.00  0.00     0.086 C 
HETATM    8  C9  UNL     1      22.384  -1.280  54.026  1.00  0.00     0.051 C 
HETATM    9  C10 UNL     1      23.396  -0.197  53.716  1.00  0.00     0.045 C 
HETATM   10  C11 UNL     1      22.812   0.774  52.719  1.00  0.00    -0.004 C 
HETATM   11  C12 UNL     1      23.683   1.309  51.901  1.00  0.00     0.142 C 
HETATM   12  O1  UNL     1      24.240   2.054  50.909  1.00  0.00    -0.349 OA
HETATM   13  C13 UNL     1      24.529   3.406  50.851  1.00  0.00     0.212 C 
HETATM   14  C16 UNL     1      23.312   4.226  50.679  1.00  0.00     0.078 C 
HETATM   15  C21 UNL     1      22.042   3.887  50.565  1.00  0.00     0.048 C 
HETATM   16  H6  UNL     1      19.638   0.237  51.887  1.00  0.00     0.319 HD
ENDROOT
BRANCH  14  17
HETATM   17  O2  UNL     1      23.898   5.498  50.670  1.00  0.00    -0.351 OA
BRANCH  17  18
HETATM   18  C17 UNL     1      23.167   6.685  50.895  1.00  0.00     0.205 C 
BRANCH  18  19
HETATM   19  C18 UNL     1      23.778   7.831  50.109  1.00  0.00     0.297 C 
BRANCH  19  20
HETATM   20  N4  UNL     1      25.035   7.488  49.483  1.00  0.00     0.082 N 
HETATM   21  C19 UNL     1      25.015   7.654  48.038  1.00  0.00     0.309 C 
HETATM   22  C20 UNL     1      26.166   8.152  50.070  1.00  0.00     0.309 C 
ENDBRANCH  19  20
ENDBRANCH  18  19
ENDBRANCH  17  18
ENDBRANCH  14  17
BRANCH  13  23
HETATM   23  C14 UNL     1      25.444   3.564  49.625  1.00  0.00     0.308 C 
BRANCH  23  24
HETATM   24  N3  UNL     1      26.597   4.363  49.999  1.00  0.00     0.082 N 
HETATM   25  C15 UNL     1      27.422   4.746  48.892  1.00  0.00     0.306 C 
HETATM   26  H17 UNL     1      26.284   5.165  50.558  1.00  0.00     0.315 HD
ENDBRANCH  23  24
ENDBRANCH  13  23
BRANCH   1  27
HETATM   27  C3  UNL     1      19.474   4.479  50.384  1.00  0.00     0.085 C 
HETATM   28 CL1  UNL     1      17.829   4.300  50.920  1.00  0.00    -0.074 Cl
BRANCH  27  29
HETATM   29  C2  UNL     1      19.795   5.626  49.807  1.00  0.00    -0.131 C 
HETATM   30  C1  UNL     1      19.877   6.796  49.193  1.00  0.00     0.098 C 
ENDBRANCH  27  29
ENDBRANCH   1  27
TORSDOF 8
ENDMDL
MODEL 9
REMARK VINA RESULT:      -6.3      3.030      7.334
REMARK  8 active torsions:
REMARK  status: ('A' for Active; 'I' for Inactive)
REMARK    1  A    between atoms: C2_2  and  C3_3 
REMARK    2  A    between atoms: C3_3  and  C4_5 
REMARK    3  A    between atoms: C13_17  and  C14_18 
REMARK    4  A    between atoms: C14_18  and  N3_19 
REMARK    5  A    between atoms: C16_21  and  O2_22 
REMARK    6  A    between atoms: O2_22  and  C17_23 
REMARK    7  A    between atoms: C17_23  and  C18_24 
REMARK    8  A    between atoms: C18_24  and  N4_25 
ROOT
HETATM    1  C4  UNL     1      24.567   2.339  51.418  1.00  0.00    -0.006 C 
HETATM    2  C5  UNL     1      25.673   2.826  50.827  1.00  0.00     0.016 C 
HETATM    3  C6  UNL     1      26.008   3.443  49.541  1.00  0.00     0.301 C 
HETATM    4  N1  UNL     1      26.394   4.834  49.665  1.00  0.00     0.115 N 
HETATM    5  C7  UNL     1      25.241   5.639  50.065  1.00  0.00     0.372 C 
HETATM    6  N2  UNL     1      25.698   6.911  50.492  1.00  0.00    -0.266 NA
HETATM    7  C8  UNL     1      25.923   7.938  49.807  1.00  0.00     0.086 C 
HETATM    8  C9  UNL     1      25.653   7.733  48.339  1.00  0.00     0.051 C 
HETATM    9  C10 UNL     1      24.270   7.119  48.278  1.00  0.00     0.045 C 
HETATM   10  C11 UNL     1      24.286   5.765  48.944  1.00  0.00    -0.004 C 
HETATM   11  C12 UNL     1      23.456   4.892  48.431  1.00  0.00     0.142 C 
HETATM   12  O1  UNL     1      22.762   3.746  48.199  1.00  0.00    -0.349 OA
HETATM   13  C13 UNL     1      21.699   3.182  48.883  1.00  0.00     0.212 C 
HETATM   14  C16 UNL     1      22.121   2.578  50.162  1.00  0.00     0.078 C 
HETATM   15  C21 UNL     1      23.308   2.482  50.732  1.00  0.00     0.048 C 
HETATM   16  H6  UNL     1      27.161   4.905  50.374  1.00  0.00     0.319 HD
ENDROOT
BRANCH  14  17
HETATM   17  O2  UNL     1      20.877   2.120  50.616  1.00  0.00    -0.351 OA
BRANCH  17  18
HETATM   18  C17 UNL     1      20.333   2.479  51.868  1.00  0.00     0.205 C 
BRANCH  18  19
HETATM   19  C18 UNL     1      19.304   3.581  51.692  1.00  0.00     0.297 C 
BRANCH  19  20
HETATM   20  N4  UNL     1      18.153   3.171  50.921  1.00  0.00     0.082 N 
HETATM   21  C19 UNL     1      17.472   2.016  51.486  1.00  0.00     0.309 C 
HETATM   22  C20 UNL     1      17.232   4.241  50.653  1.00  0.00     0.309 C 
ENDBRANCH  19  20
ENDBRANCH  18  19
ENDBRANCH  17  18
ENDBRANCH  14  17
BRANCH  13  23
HETATM   23  C14 UNL     1      21.155   2.092  47.943  1.00  0.00     0.308 C 
BRANCH  23  24
HETATM   24  N3  UNL     1      19.712   2.227  47.852  1.00  0.00     0.082 N 
HETATM   25  C15 UNL     1      19.274   3.543  47.492  1.00  0.00     0.306 C 
HETATM   26  H17 UNL     1      19.344   1.501  47.227  1.00  0.00     0.315 HD
ENDBRANCH  23  24
ENDBRANCH  13  23
BRANCH   1  27
HETATM   27  C3  UNL     1      24.886   1.826  52.745  1.00  0.00     0.085 C 
HETATM   28 CL1  UNL     1      26.119   2.229  53.905  1.00  0.00    -0.074 Cl
BRANCH  27  29
HETATM   29  C2  UNL     1      24.037   0.869  53.081  1.00  0.00    -0.131 C 
HETATM   30  C1  UNL     1      23.169  -0.127  53.178  1.00  0.00     0.098 C 
ENDBRANCH  27  29
ENDBRANCH   1  27
TORSDOF 8
ENDMDL
