MODEL 1
REMARK VINA RESULT:      -8.4      0.000      0.000
REMARK  4 active torsions:
REMARK  status: ('A' for Active; 'I' for Inactive)
REMARK    1  A    between atoms: C5_6  and  N1_7 
REMARK    2  A    between atoms: N1_7  and  C6_8 
REMARK    3  A    between atoms: N2_9  and  C7_10 
REMARK    4  A    between atoms: C7_10  and  C8_11 
ROOT
HETATM    1  C7  UNL     1      26.148   2.392  53.597  1.00  0.00     0.185 C 
ENDROOT
BRANCH   1   2
HETATM    2  N2  UNL     1      24.951   1.813  53.038  1.00  0.00    -0.282 NA
HETATM    3  C6  UNL     1      23.811   2.394  53.045  1.00  0.00     0.201 C 
BRANCH   3   4
HETATM    4  N1  UNL     1      22.740   1.679  52.450  1.00  0.00    -0.351 N 
HETATM    5  H4  UNL     1      22.414   1.965  51.500  1.00  0.00     0.166 HD
BRANCH   4   6
HETATM    6  C5  UNL     1      22.079   0.584  53.058  1.00  0.00     0.034 A 
HETATM    7  C4  UNL     1      22.657  -0.352  53.893  1.00  0.00     0.029 A 
HETATM    8  C3  UNL     1      22.017  -1.403  54.488  1.00  0.00     0.004 A 
HETATM    9  C2  UNL     1      20.661  -1.577  54.251  1.00  0.00     0.024 A 
HETATM   10  C1  UNL     1      20.018  -0.663  53.415  1.00  0.00     0.036 A 
HETATM   11 CL1  UNL     1      18.334  -0.990  53.202  1.00  0.00    -0.084 Cl
HETATM   12  C17 UNL     1      20.744   0.365  52.860  1.00  0.00     0.053 A 
ENDBRANCH   4   6
ENDBRANCH   3   4
ENDBRANCH   1   2
BRANCH   1  13
HETATM   13  C8  UNL     1      27.229   1.332  53.574  1.00  0.00     0.071 A 
HETATM   14  C9  UNL     1      26.772   0.060  53.038  1.00  0.00     0.062 A 
HETATM   15  C10 UNL     1      26.789  -1.261  52.660  1.00  0.00     0.002 A 
HETATM   16  C11 UNL     1      27.811  -2.392  52.706  1.00  0.00    -0.026 A 
HETATM   17  C12 UNL     1      29.022  -2.350  53.159  1.00  0.00    -0.004 A 
HETATM   18  C13 UNL     1      30.167  -1.698  53.767  1.00  0.00    -0.001 A 
HETATM   19  C14 UNL     1      29.474  -0.617  53.827  1.00  0.00     0.010 A 
HETATM   20  C15 UNL     1      28.765   0.608  53.923  1.00  0.00     0.090 A 
HETATM   21  C16 UNL     1      28.603   1.764  53.339  1.00  0.00     0.017 A 
HETATM   22  N3  UNL     1      27.811   1.077  54.896  1.00  0.00    -0.390 N 
HETATM   23  H15 UNL     1      28.108   0.950  55.879  1.00  0.00     0.155 HD
ENDBRANCH   1  13
TORSDOF 4
ENDMDL
MODEL 2
REMARK VINA RESULT:      -8.4      4.474      6.078
REMARK  4 active torsions:
REMARK  status: ('A' for Active; 'I' for Inactive)
REMARK    1  A    between atoms: C5_6  and  N1_7 
REMARK    2  A    between atoms: N1_7  and  C6_8 
REMARK    3  A    between atoms: N2_9  and  C7_10 
REMARK    4  A    between atoms: C7_10  and  C8_11 
ROOT
HETATM    1  C7  UNL     1      25.105   1.923  52.945  1.00  0.00     0.185 C 
ENDROOT
BRANCH   1   2
HETATM    2  N2  UNL     1      25.054   2.472  51.612  1.00  0.00    -0.282 NA
HETATM    3  C6  UNL     1      24.642   3.655  51.347  1.00  0.00     0.201 C 
BRANCH   3   4
HETATM    4  N1  UNL     1      24.661   4.031  49.979  1.00  0.00    -0.351 N 
HETATM    5  H4  UNL     1      23.851   3.764  49.375  1.00  0.00     0.166 HD
BRANCH   4   6
HETATM    6  C5  UNL     1      25.711   4.759  49.367  1.00  0.00     0.034 A 
HETATM    7  C4  UNL     1      27.002   4.310  49.169  1.00  0.00     0.029 A 
HETATM    8  C3  UNL     1      28.013   5.008  48.569  1.00  0.00     0.004 A 
HETATM    9  C2  UNL     1      27.753   6.290  48.107  1.00  0.00     0.024 A 
HETATM   10  C1  UNL     1      26.466   6.802  48.278  1.00  0.00     0.036 A 
HETATM   11 CL1  UNL     1      26.273   8.404  47.660  1.00  0.00    -0.084 Cl
HETATM   12  C17 UNL     1      25.512   6.025  48.893  1.00  0.00     0.053 A 
ENDBRANCH   4   6
ENDBRANCH   3   4
ENDBRANCH   1   2
BRANCH   1  13
HETATM   13  C8  UNL     1      26.422   1.195  53.095  1.00  0.00     0.071 A 
HETATM   14  C9  UNL     1      26.340  -0.215  52.750  1.00  0.00     0.062 A 
HETATM   15  C10 UNL     1      26.717  -1.525  52.574  1.00  0.00     0.002 A 
HETATM   16  C11 UNL     1      27.994  -2.328  52.802  1.00  0.00    -0.026 A 
HETATM   17  C12 UNL     1      29.128  -1.905  53.260  1.00  0.00    -0.004 A 
HETATM   18  C13 UNL     1      30.031  -0.895  53.777  1.00  0.00    -0.001 A 
HETATM   19  C14 UNL     1      29.080  -0.037  53.666  1.00  0.00     0.010 A 
HETATM   20  C15 UNL     1      28.074   0.958  53.568  1.00  0.00     0.090 A 
HETATM   21  C16 UNL     1      27.648   1.936  52.816  1.00  0.00     0.017 A 
HETATM   22  N3  UNL     1      26.981   1.291  54.447  1.00  0.00    -0.390 N 
HETATM   23  H15 UNL     1      27.251   1.387  55.442  1.00  0.00     0.155 HD
ENDBRANCH   1  13
TORSDOF 4
ENDMDL
MODEL 3
REMARK VINA RESULT:      -8.2      2.490      6.468
REMARK  4 active torsions:
REMARK  status: ('A' for Active; 'I' for Inactive)
REMARK    1  A    between atoms: C5_6  and  N1_7 
REMARK    2  A    between atoms: N1_7  and  C6_8 
REMARK    3  A    between atoms: N2_9  and  C7_10 
REMARK    4  A    between atoms: C7_10  and  C8_11 
ROOT
HETATM    1  C7  UNL     1      23.068   3.215  51.209  1.00  0.00     0.185 C 
ENDROOT
BRANCH   1   2
HETATM    2  N2  UNL     1      24.446   3.190  51.635  1.00  0.00    -0.282 NA
HETATM    3  C6  UNL     1      25.438   3.152  50.827  1.00  0.00     0.201 C 
BRANCH   3   4
HETATM    4  N1  UNL     1      26.726   3.133  51.420  1.00  0.00    -0.351 N 
HETATM    5  H4  UNL     1      27.356   3.955  51.276  1.00  0.00     0.166 HD
BRANCH   4   6
HETATM    6  C5  UNL     1      27.224   2.068  52.210  1.00  0.00     0.034 A 
HETATM    7  C4  UNL     1      28.110   2.184  53.263  1.00  0.00     0.029 A 
HETATM    8  C3  UNL     1      28.583   1.158  54.033  1.00  0.00     0.004 A 
HETATM    9  C2  UNL     1      28.156  -0.133  53.757  1.00  0.00     0.024 A 
HETATM   10  C1  UNL     1      27.260  -0.316  52.702  1.00  0.00     0.036 A 
HETATM   11 CL1  UNL     1      26.807  -1.967  52.462  1.00  0.00    -0.084 Cl
HETATM   12  C17 UNL     1      26.838   0.777  51.983  1.00  0.00     0.053 A 
ENDBRANCH   4   6
ENDBRANCH   3   4
ENDBRANCH   1   2
BRANCH   1  13
HETATM   13  C8  UNL     1      22.327   2.140  51.974  1.00  0.00     0.071 A 
HETATM   14  C9  UNL     1      23.207   1.271  52.737  1.00  0.00     0.062 A 
HETATM   15  C10 UNL     1      23.617   0.234  53.541  1.00  0.00     0.002 A 
HETATM   16  C11 UNL     1      22.930  -0.927  54.253  1.00  0.00    -0.026 A 
HETATM   17  C12 UNL     1      21.670  -1.222  54.257  1.00  0.00    -0.004 A 
HETATM   18  C13 UNL     1      20.282  -1.023  53.888  1.00  0.00    -0.001 A 
HETATM   19  C14 UNL     1      20.646   0.010  53.214  1.00  0.00     0.010 A 
HETATM   20  C15 UNL     1      20.980   1.159  52.454  1.00  0.00     0.090 A 
HETATM   21  C16 UNL     1      21.002   2.464  52.494  1.00  0.00     0.017 A 
HETATM   22  N3  UNL     1      21.496   1.291  51.114  1.00  0.00    -0.390 N 
HETATM   23  H15 UNL     1      20.989   0.733  50.406  1.00  0.00     0.155 HD
ENDBRANCH   1  13
TORSDOF 4
ENDMDL
MODEL 4
REMARK VINA RESULT:      -7.8      5.058      7.103
REMARK  4 active torsions:
REMARK  status: ('A' for Active; 'I' for Inactive)
REMARK    1  A    between atoms: C5_6  and  N1_7 
REMARK    2  A    between atoms: N1_7  and  C6_8 
REMARK    3  A    between atoms: N2_9  and  C7_10 
REMARK    4  A    between atoms: C7_10  and  C8_11 
ROOT
HETATM    1  C7  UNL     1      25.019   2.623  52.291  1.00  0.00     0.185 C 
ENDROOT
BRANCH   1   2
HETATM    2  N2  UNL     1      25.294   3.069  50.948  1.00  0.00    -0.282 NA
HETATM    3  C6  UNL     1      25.160   4.282  50.561  1.00  0.00     0.201 C 
BRANCH   3   4
HETATM    4  N1  UNL     1      25.477   4.544  49.204  1.00  0.00    -0.351 N 
HETATM    5  H4  UNL     1      24.906   4.085  48.459  1.00  0.00     0.166 HD
BRANCH   4   6
HETATM    6  C5  UNL     1      26.521   5.402  48.781  1.00  0.00     0.034 A 
HETATM    7  C4  UNL     1      26.411   6.758  48.542  1.00  0.00     0.029 A 
HETATM    8  C3  UNL     1      27.422   7.589  48.144  1.00  0.00     0.004 A 
HETATM    9  C2  UNL     1      28.686   7.053  47.949  1.00  0.00     0.024 A 
HETATM   10  C1  UNL     1      28.862   5.687  48.173  1.00  0.00     0.036 A 
HETATM   11 CL1  UNL     1      30.480   5.145  47.897  1.00  0.00    -0.084 Cl
HETATM   12  C17 UNL     1      27.787   4.929  48.574  1.00  0.00     0.053 A 
ENDBRANCH   4   6
ENDBRANCH   3   4
ENDBRANCH   1   2
BRANCH   1  13
HETATM   13  C8  UNL     1      26.027   1.548  52.637  1.00  0.00     0.071 A 
HETATM   14  C9  UNL     1      27.256   2.077  53.206  1.00  0.00     0.062 A 
HETATM   15  C10 UNL     1      28.530   2.111  53.718  1.00  0.00     0.002 A 
HETATM   16  C11 UNL     1      29.619   1.079  53.994  1.00  0.00    -0.026 A 
HETATM   17  C12 UNL     1      29.575  -0.198  53.785  1.00  0.00    -0.004 A 
HETATM   18  C13 UNL     1      28.942  -1.427  53.348  1.00  0.00    -0.001 A 
HETATM   19  C14 UNL     1      27.901  -0.740  53.038  1.00  0.00     0.010 A 
HETATM   20  C15 UNL     1      26.721  -0.040  52.676  1.00  0.00     0.090 A 
HETATM   21  C16 UNL     1      25.519   0.256  53.090  1.00  0.00     0.017 A 
HETATM   22  N3  UNL     1      26.390   0.710  51.490  1.00  0.00    -0.390 N 
HETATM   23  H15 UNL     1      26.603   0.220  50.604  1.00  0.00     0.155 HD
ENDBRANCH   1  13
TORSDOF 4
ENDMDL
MODEL 5
REMARK VINA RESULT:      -7.7      4.129      6.720
REMARK  4 active torsions:
REMARK  status: ('A' for Active; 'I' for Inactive)
REMARK    1  A    between atoms: C5_6  and  N1_7 
REMARK    2  A    between atoms: N1_7  and  C6_8 
REMARK    3  A    between atoms: N2_9  and  C7_10 
REMARK    4  A    between atoms: C7_10  and  C8_11 
ROOT
HETATM    1  C7  UNL     1      22.813   3.378  51.598  1.00  0.00     0.185 C 
ENDROOT
BRANCH   1   2
HETATM    2  N2  UNL     1      23.468   2.110  51.800  1.00  0.00    -0.282 NA
HETATM    3  C6  UNL     1      23.627   1.568  52.949  1.00  0.00     0.201 C 
BRANCH   3   4
HETATM    4  N1  UNL     1      24.294   0.316  52.963  1.00  0.00    -0.351 N 
HETATM    5  H4  UNL     1      23.723  -0.556  52.879  1.00  0.00     0.166 HD
BRANCH   4   6
HETATM    6  C5  UNL     1      25.697   0.161  53.076  1.00  0.00     0.034 A 
HETATM    7  C4  UNL     1      26.400  -1.014  52.899  1.00  0.00     0.029 A 
HETATM    8  C3  UNL     1      27.756  -1.163  52.997  1.00  0.00     0.004 A 
HETATM    9  C2  UNL     1      28.527  -0.051  53.303  1.00  0.00     0.024 A 
HETATM   10  C1  UNL     1      27.874   1.168  53.495  1.00  0.00     0.036 A 
HETATM   11 CL1  UNL     1      28.944   2.472  53.870  1.00  0.00    -0.084 Cl
HETATM   12  C17 UNL     1      26.505   1.222  53.374  1.00  0.00     0.053 A 
ENDBRANCH   4   6
ENDBRANCH   3   4
ENDBRANCH   1   2
BRANCH   1  13
HETATM   13  C8  UNL     1      23.757   4.268  50.818  1.00  0.00     0.071 A 
HETATM   14  C9  UNL     1      24.917   3.559  50.303  1.00  0.00     0.062 A 
HETATM   15  C10 UNL     1      26.122   3.337  49.681  1.00  0.00     0.002 A 
HETATM   16  C11 UNL     1      27.155   4.206  48.970  1.00  0.00    -0.026 A 
HETATM   17  C12 UNL     1      27.118   5.485  48.775  1.00  0.00    -0.004 A 
HETATM   18  C13 UNL     1      26.524   6.804  48.879  1.00  0.00    -0.001 A 
HETATM   19  C14 UNL     1      25.537   6.272  49.507  1.00  0.00     0.010 A 
HETATM   20  C15 UNL     1      24.419   5.749  50.205  1.00  0.00     0.090 A 
HETATM   21  C16 UNL     1      23.181   5.366  50.049  1.00  0.00     0.017 A 
HETATM   22  N3  UNL     1      24.243   5.412  51.596  1.00  0.00    -0.390 N 
HETATM   23  H15 UNL     1      24.553   6.148  52.254  1.00  0.00     0.155 HD
ENDBRANCH   1  13
TORSDOF 4
ENDMDL
MODEL 6
REMARK VINA RESULT:      -7.7      5.203      6.961
REMARK  4 active torsions:
REMARK  status: ('A' for Active; 'I' for Inactive)
REMARK    1  A    between atoms: C5_6  and  N1_7 
REMARK    2  A    between atoms: N1_7  and  C6_8 
REMARK    3  A    between atoms: N2_9  and  C7_10 
REMARK    4  A    between atoms: C7_10  and  C8_11 
ROOT
HETATM    1  C7  UNL     1      23.958   6.031  50.426  1.00  0.00     0.185 C 
ENDROOT
BRANCH   1   2
HETATM    2  N2  UNL     1      24.296   5.318  51.633  1.00  0.00    -0.282 NA
HETATM    3  C6  UNL     1      23.744   4.219  51.987  1.00  0.00     0.201 C 
BRANCH   3   4
HETATM    4  N1  UNL     1      24.200   3.654  53.205  1.00  0.00    -0.351 N 
HETATM    5  H4  UNL     1      24.179   4.243  54.069  1.00  0.00     0.166 HD
BRANCH   4   6
HETATM    6  C5  UNL     1      24.682   2.329  53.339  1.00  0.00     0.034 A 
HETATM    7  C4  UNL     1      23.999   1.179  52.995  1.00  0.00     0.029 A 
HETATM    8  C3  UNL     1      24.468  -0.100  53.113  1.00  0.00     0.004 A 
HETATM    9  C2  UNL     1      25.742  -0.297  53.624  1.00  0.00     0.024 A 
HETATM   10  C1  UNL     1      26.484   0.827  53.991  1.00  0.00     0.036 A 
HETATM   11 CL1  UNL     1      28.051   0.446  54.612  1.00  0.00    -0.084 Cl
HETATM   12  C17 UNL     1      25.930   2.076  53.835  1.00  0.00     0.053 A 
ENDBRANCH   4   6
ENDBRANCH   3   4
ENDBRANCH   1   2
BRANCH   1  13
HETATM   13  C8  UNL     1      25.248   6.499  49.787  1.00  0.00     0.071 A 
HETATM   14  C9  UNL     1      26.104   5.405  49.359  1.00  0.00     0.062 A 
HETATM   15  C10 UNL     1      27.197   4.745  48.851  1.00  0.00     0.002 A 
HETATM   16  C11 UNL     1      28.554   5.160  48.290  1.00  0.00    -0.026 A 
HETATM   17  C12 UNL     1      29.024   6.358  48.153  1.00  0.00    -0.004 A 
HETATM   18  C13 UNL     1      28.965   7.803  48.258  1.00  0.00    -0.001 A 
HETATM   19  C14 UNL     1      27.787   7.683  48.758  1.00  0.00     0.010 A 
HETATM   20  C15 UNL     1      26.483   7.620  49.315  1.00  0.00     0.090 A 
HETATM   21  C16 UNL     1      25.218   7.738  49.017  1.00  0.00     0.017 A 
HETATM   22  N3  UNL     1      26.040   7.368  50.663  1.00  0.00    -0.390 N 
HETATM   23  H15 UNL     1      26.530   7.928  51.383  1.00  0.00     0.155 HD
ENDBRANCH   1  13
TORSDOF 4
ENDMDL
MODEL 7
REMARK VINA RESULT:      -7.6      5.272      8.232
REMARK  4 active torsions:
REMARK  status: ('A' for Active; 'I' for Inactive)
REMARK    1  A    between atoms: C5_6  and  N1_7 
REMARK    2  A    between atoms: N1_7  and  C6_8 
REMARK    3  A    between atoms: N2_9  and  C7_10 
REMARK    4  A    between atoms: C7_10  and  C8_11 
ROOT
HETATM    1  C7  UNL     1      25.812   1.874  51.650  1.00  0.00     0.185 C 
ENDROOT
BRANCH   1   2
HETATM    2  N2  UNL     1      25.659   3.123  50.948  1.00  0.00    -0.282 NA
HETATM    3  C6  UNL     1      26.240   3.391  49.839  1.00  0.00     0.201 C 
BRANCH   3   4
HETATM    4  N1  UNL     1      25.974   4.670  49.286  1.00  0.00    -0.351 N 
HETATM    5  H4  UNL     1      24.999   5.043  49.333  1.00  0.00     0.166 HD
BRANCH   4   6
HETATM    6  C5  UNL     1      26.952   5.493  48.675  1.00  0.00     0.034 A 
HETATM    7  C4  UNL     1      26.747   6.767  48.184  1.00  0.00     0.029 A 
HETATM    8  C3  UNL     1      27.693   7.566  47.603  1.00  0.00     0.004 A 
HETATM    9  C2  UNL     1      28.987   7.083  47.478  1.00  0.00     0.024 A 
HETATM   10  C1  UNL     1      29.258   5.800  47.955  1.00  0.00     0.036 A 
HETATM   11 CL1  UNL     1      30.903   5.317  47.740  1.00  0.00    -0.084 Cl
HETATM   12  C17 UNL     1      28.242   5.068  48.526  1.00  0.00     0.053 A 
ENDBRANCH   4   6
ENDBRANCH   3   4
ENDBRANCH   1   2
BRANCH   1  13
HETATM   13  C8  UNL     1      24.489   1.546  52.307  1.00  0.00     0.071 A 
HETATM   14  C9  UNL     1      24.553   0.382  53.175  1.00  0.00     0.062 A 
HETATM   15  C10 UNL     1      24.144  -0.620  54.022  1.00  0.00     0.002 A 
HETATM   16  C11 UNL     1      22.815  -1.052  54.633  1.00  0.00    -0.026 A 
HETATM   17  C12 UNL     1      21.651  -0.509  54.470  1.00  0.00    -0.004 A 
HETATM   18  C13 UNL     1      20.735   0.473  53.923  1.00  0.00    -0.001 A 
HETATM   19  C14 UNL     1      21.729   1.006  53.307  1.00  0.00     0.010 A 
HETATM   20  C15 UNL     1      22.783   1.643  52.601  1.00  0.00     0.090 A 
HETATM   21  C16 UNL     1      23.604   2.656  52.650  1.00  0.00     0.017 A 
HETATM   22  N3  UNL     1      23.407   1.324  51.342  1.00  0.00    -0.390 N 
HETATM   23  H15 UNL     1      22.741   1.143  50.571  1.00  0.00     0.155 HD
ENDBRANCH   1  13
TORSDOF 4
ENDMDL
MODEL 8
REMARK VINA RESULT:      -7.6      2.849      4.330
REMARK  4 active torsions:
REMARK  status: ('A' for Active; 'I' for Inactive)
REMARK    1  A    between atoms: C5_6  and  N1_7 
REMARK    2  A    between atoms: N1_7  and  C6_8 
REMARK    3  A    between atoms: N2_9  and  C7_10 
REMARK    4  A    between atoms: C7_10  and  C8_11 
ROOT
HETATM    1  C7  UNL     1      23.973  -0.495  53.918  1.00  0.00     0.185 C 
ENDROOT
BRANCH   1   2
HETATM    2  N2  UNL     1      23.435   0.643  53.214  1.00  0.00    -0.282 NA
HETATM    3  C6  UNL     1      22.562   0.553  52.281  1.00  0.00     0.201 C 
BRANCH   3   4
HETATM    4  N1  UNL     1      22.143   1.777  51.698  1.00  0.00    -0.351 N 
HETATM    5  H4  UNL     1      21.127   1.913  51.497  1.00  0.00     0.166 HD
BRANCH   4   6
HETATM    6  C5  UNL     1      23.015   2.844  51.372  1.00  0.00     0.034 A 
HETATM    7  C4  UNL     1      22.848   4.167  51.732  1.00  0.00     0.029 A 
HETATM    8  C3  UNL     1      23.694   5.196  51.426  1.00  0.00     0.004 A 
HETATM    9  C2  UNL     1      24.835   4.923  50.686  1.00  0.00     0.024 A 
HETATM   10  C1  UNL     1      25.061   3.603  50.292  1.00  0.00     0.036 A 
HETATM   11 CL1  UNL     1      26.513   3.395  49.378  1.00  0.00    -0.084 Cl
HETATM   12  C17 UNL     1      24.154   2.632  50.646  1.00  0.00     0.053 A 
ENDBRANCH   4   6
ENDBRANCH   3   4
ENDBRANCH   1   2
BRANCH   1  13
HETATM   13  C8  UNL     1      25.480  -0.361  53.931  1.00  0.00     0.071 A 
HETATM   14  C9  UNL     1      26.155  -1.415  53.191  1.00  0.00     0.062 A 
HETATM   15  C10 UNL     1      27.172  -2.177  52.670  1.00  0.00     0.002 A 
HETATM   16  C11 UNL     1      28.697  -2.145  52.732  1.00  0.00    -0.026 A 
HETATM   17  C12 UNL     1      29.448  -1.299  53.359  1.00  0.00    -0.004 A 
HETATM   18  C13 UNL     1      29.691  -0.140  54.197  1.00  0.00    -0.001 A 
HETATM   19  C14 UNL     1      28.419   0.022  54.281  1.00  0.00     0.010 A 
HETATM   20  C15 UNL     1      27.026   0.258  54.413  1.00  0.00     0.090 A 
HETATM   21  C16 UNL     1      26.046   0.984  53.949  1.00  0.00     0.017 A 
HETATM   22  N3  UNL     1      26.044  -0.335  55.284  1.00  0.00    -0.390 N 
HETATM   23  H15 UNL     1      26.327  -0.376  56.279  1.00  0.00     0.155 HD
ENDBRANCH   1  13
TORSDOF 4
ENDMDL
MODEL 9
REMARK VINA RESULT:      -7.5      3.361      7.175
REMARK  4 active torsions:
REMARK  status: ('A' for Active; 'I' for Inactive)
REMARK    1  A    between atoms: C5_6  and  N1_7 
REMARK    2  A    between atoms: N1_7  and  C6_8 
REMARK    3  A    between atoms: N2_9  and  C7_10 
REMARK    4  A    between atoms: C7_10  and  C8_11 
ROOT
HETATM    1  C7  UNL     1      23.505  -0.954  54.676  1.00  0.00     0.185 C 
ENDROOT
BRANCH   1   2
HETATM    2  N2  UNL     1      24.429  -0.179  53.885  1.00  0.00    -0.282 NA
HETATM    3  C6  UNL     1      25.645   0.038  54.224  1.00  0.00     0.201 C 
BRANCH   3   4
HETATM    4  N1  UNL     1      26.414   0.821  53.325  1.00  0.00    -0.351 N 
HETATM    5  H4  UNL     1      27.438   0.628  53.244  1.00  0.00     0.166 HD
BRANCH   4   6
HETATM    6  C5  UNL     1      25.884   1.853  52.513  1.00  0.00     0.034 A 
HETATM    7  C4  UNL     1      24.693   2.519  52.722  1.00  0.00     0.029 A 
HETATM    8  C3  UNL     1      24.186   3.523  51.944  1.00  0.00     0.004 A 
HETATM    9  C2  UNL     1      24.908   3.935  50.835  1.00  0.00     0.024 A 
HETATM   10  C1  UNL     1      26.123   3.299  50.569  1.00  0.00     0.036 A 
HETATM   11 CL1  UNL     1      26.924   3.903  49.162  1.00  0.00    -0.084 Cl
HETATM   12  C17 UNL     1      26.554   2.299  51.408  1.00  0.00     0.053 A 
ENDBRANCH   4   6
ENDBRANCH   3   4
ENDBRANCH   1   2
BRANCH   1  13
HETATM   13  C8  UNL     1      22.141  -0.846  54.030  1.00  0.00     0.071 A 
HETATM   14  C9  UNL     1      22.172  -0.194  52.731  1.00  0.00     0.062 A 
HETATM   15  C10 UNL     1      21.728   0.359  51.554  1.00  0.00     0.002 A 
HETATM   16  C11 UNL     1      20.366   0.581  50.903  1.00  0.00    -0.026 A 
HETATM   17  C12 UNL     1      19.202   0.260  51.367  1.00  0.00    -0.004 A 
HETATM   18  C13 UNL     1      18.300  -0.301  52.354  1.00  0.00    -0.001 A 
HETATM   19  C14 UNL     1      19.325  -0.585  53.077  1.00  0.00     0.010 A 
HETATM   20  C15 UNL     1      20.412  -0.926  53.922  1.00  0.00     0.090 A 
HETATM   21  C16 UNL     1      21.182  -1.918  54.278  1.00  0.00     0.017 A 
HETATM   22  N3  UNL     1      21.165  -0.135  54.862  1.00  0.00    -0.390 N 
HETATM   23  H15 UNL     1      20.583   0.421  55.513  1.00  0.00     0.155 HD
ENDBRANCH   1  13
TORSDOF 4
ENDMDL
