MODEL 1
REMARK VINA RESULT:      -9.0      0.000      0.000
REMARK  0 active torsions:
REMARK  status: ('A' for Active; 'I' for Inactive)
ROOT
HETATM    1  C1  UNL     1      22.565   1.778  47.924  1.00  0.00     0.017 C 
HETATM    2  C2  UNL     1      21.910   1.651  49.305  1.00  0.00    -0.018 C 
HETATM    3  C3  UNL     1      22.220   1.735  50.618  1.00  0.00     0.056 C 
HETATM    4  C4  UNL     1      23.140   1.951  51.760  1.00  0.00     0.028 C 
HETATM    5  C5  UNL     1      23.334   3.272  52.047  1.00  0.00     0.100 C 
HETATM    6  C6  UNL     1      24.138   4.010  53.059  1.00  0.00     0.247 C 
HETATM    7  O1  UNL     1      23.673   5.063  53.529  1.00  0.00    -0.268 OA
HETATM    8  N1  UNL     1      25.406   3.501  53.459  1.00  0.00    -0.322 N 
HETATM    9  C7  UNL     1      25.960   2.174  53.296  1.00  0.00     0.062 A 
HETATM   10  C8  UNL     1      27.301   2.043  53.573  1.00  0.00     0.035 A 
HETATM   11  C9  UNL     1      27.821   0.780  53.411  1.00  0.00     0.044 A 
HETATM   12  C10 UNL     1      27.154  -0.340  53.009  1.00  0.00     0.118 A 
HETATM   13  F1  UNL     1      27.805  -1.524  52.895  1.00  0.00    -0.206 F 
HETATM   14  C11 UNL     1      25.774  -0.242  52.715  1.00  0.00     0.074 A 
HETATM   15  C12 UNL     1      25.231   1.040  52.878  1.00  0.00     0.069 A 
HETATM   16  N2  UNL     1      23.824   0.958  52.554  1.00  0.00    -0.317 N 
HETATM   17  C13 UNL     1      23.393  -0.285  53.198  1.00  0.00     0.009 C 
HETATM   18  C14 UNL     1      24.178  -0.896  54.254  1.00  0.00     0.068 C 
HETATM   19  C15 UNL     1      22.356  -1.092  53.162  1.00  0.00    -0.002 C 
HETATM   20  C16 UNL     1      21.366  -2.146  53.329  1.00  0.00     0.029 C 
HETATM   21  C17 UNL     1      20.215  -1.752  54.179  1.00  0.00     0.004 C 
HETATM   22  C18 UNL     1      19.542  -0.482  53.804  1.00  0.00     0.002 C 
HETATM   23  C19 UNL     1      19.090  -0.477  52.395  1.00  0.00     0.020 C 
HETATM   24  C20 UNL     1      18.339   0.802  52.040  1.00  0.00     0.122 C 
HETATM   25  N3  UNL     1      18.335   0.926  50.603  1.00  0.00    -0.361 N 
HETATM   26  C21 UNL     1      19.631   1.146  50.057  1.00  0.00     0.218 C 
HETATM   27  O2  UNL     1      20.265   1.169  51.118  1.00  0.00    -0.274 OA
HETATM   28  C22 UNL     1      20.533   1.347  48.903  1.00  0.00     0.113 C 
HETATM   29  H6  UNL     1      26.036   4.169  53.940  1.00  0.00     0.169 HD
HETATM   30  H24 UNL     1      17.995   0.967  49.629  1.00  0.00     0.162 HD
ENDROOT
TORSDOF 0
ENDMDL
MODEL 2
REMARK VINA RESULT:      -8.8     10.880     13.350
REMARK  0 active torsions:
REMARK  status: ('A' for Active; 'I' for Inactive)
ROOT
HETATM    1  C1  UNL     1      34.826   8.513  43.664  1.00  0.00     0.017 C 
HETATM    2  C2  UNL     1      34.200   8.806  45.033  1.00  0.00    -0.018 C 
HETATM    3  C3  UNL     1      33.921   8.194  46.204  1.00  0.00     0.056 C 
HETATM    4  C4  UNL     1      33.898   7.038  47.134  1.00  0.00     0.028 C 
HETATM    5  C5  UNL     1      35.082   6.856  47.788  1.00  0.00     0.100 C 
HETATM    6  C6  UNL     1      35.576   5.874  48.792  1.00  0.00     0.247 C 
HETATM    7  O1  UNL     1      36.366   6.271  49.667  1.00  0.00    -0.268 OA
HETATM    8  N1  UNL     1      35.140   4.520  48.727  1.00  0.00    -0.322 N 
HETATM    9  C7  UNL     1      34.010   3.948  48.027  1.00  0.00     0.062 A 
HETATM   10  C8  UNL     1      33.978   2.575  47.957  1.00  0.00     0.035 A 
HETATM   11  C9  UNL     1      32.904   2.038  47.285  1.00  0.00     0.044 A 
HETATM   12  C10 UNL     1      31.882   2.718  46.690  1.00  0.00     0.118 A 
HETATM   13  F1  UNL     1      30.885   2.049  46.061  1.00  0.00    -0.206 F 
HETATM   14  C11 UNL     1      31.883   4.132  46.742  1.00  0.00     0.074 A 
HETATM   15  C12 UNL     1      32.971   4.691  47.425  1.00  0.00     0.069 A 
HETATM   16  N2  UNL     1      32.809   6.128  47.396  1.00  0.00    -0.317 N 
HETATM   17  C13 UNL     1      31.383   6.320  47.676  1.00  0.00     0.009 C 
HETATM   18  C14 UNL     1      30.589   5.270  48.283  1.00  0.00     0.068 C 
HETATM   19  C15 UNL     1      30.497   7.287  47.597  1.00  0.00    -0.002 C 
HETATM   20  C16 UNL     1      29.323   8.146  47.615  1.00  0.00     0.029 C 
HETATM   21  C17 UNL     1      29.285   9.079  48.770  1.00  0.00     0.004 C 
HETATM   22  C18 UNL     1      30.509   9.892  48.981  1.00  0.00     0.002 C 
HETATM   23  C19 UNL     1      30.884  10.671  47.780  1.00  0.00     0.020 C 
HETATM   24  C20 UNL     1      32.100  11.557  48.028  1.00  0.00     0.122 C 
HETATM   25  N3  UNL     1      32.654  11.915  46.746  1.00  0.00    -0.361 N 
HETATM   26  C21 UNL     1      33.197  10.804  46.041  1.00  0.00     0.218 C 
HETATM   27  O2  UNL     1      32.979   9.935  46.893  1.00  0.00    -0.274 OA
HETATM   28  C22 UNL     1      33.856  10.221  44.853  1.00  0.00     0.113 C 
HETATM   29  H6  UNL     1      35.706   3.832  49.255  1.00  0.00     0.169 HD
HETATM   30  H24 UNL     1      32.944  12.482  45.933  1.00  0.00     0.162 HD
ENDROOT
TORSDOF 0
ENDMDL
MODEL 3
REMARK VINA RESULT:      -8.8      3.222      4.470
REMARK  0 active torsions:
REMARK  status: ('A' for Active; 'I' for Inactive)
ROOT
HETATM    1  C1  UNL     1      21.258   1.733  47.842  1.00  0.00     0.017 C 
HETATM    2  C2  UNL     1      21.747   1.739  49.296  1.00  0.00    -0.018 C 
HETATM    3  C3  UNL     1      22.534   2.456  50.128  1.00  0.00     0.056 C 
HETATM    4  C4  UNL     1      23.444   3.577  50.469  1.00  0.00     0.028 C 
HETATM    5  C5  UNL     1      22.780   4.734  50.757  1.00  0.00     0.100 C 
HETATM    6  C6  UNL     1      23.203   6.108  51.144  1.00  0.00     0.247 C 
HETATM    7  O1  UNL     1      22.493   6.742  51.944  1.00  0.00    -0.268 OA
HETATM    8  N1  UNL     1      24.395   6.659  50.593  1.00  0.00    -0.322 N 
HETATM    9  C7  UNL     1      25.500   5.995  49.935  1.00  0.00     0.062 A 
HETATM   10  C8  UNL     1      26.402   6.815  49.299  1.00  0.00     0.035 A 
HETATM   11  C9  UNL     1      27.447   6.176  48.672  1.00  0.00     0.044 A 
HETATM   12  C10 UNL     1      27.676   4.832  48.616  1.00  0.00     0.118 A 
HETATM   13  F1  UNL     1      28.756   4.346  47.957  1.00  0.00    -0.206 F 
HETATM   14  C11 UNL     1      26.768   3.960  49.260  1.00  0.00     0.074 A 
HETATM   15  C12 UNL     1      25.700   4.598  49.904  1.00  0.00     0.069 A 
HETATM   16  N2  UNL     1      24.886   3.570  50.516  1.00  0.00    -0.317 N 
HETATM   17  C13 UNL     1      25.869   2.656  51.104  1.00  0.00     0.009 C 
HETATM   18  C14 UNL     1      27.236   3.077  51.345  1.00  0.00     0.068 C 
HETATM   19  C15 UNL     1      25.892   1.442  51.604  1.00  0.00    -0.002 C 
HETATM   20  C16 UNL     1      26.214   0.153  52.198  1.00  0.00     0.029 C 
HETATM   21  C17 UNL     1      25.818   0.037  53.624  1.00  0.00     0.004 C 
HETATM   22  C18 UNL     1      24.410   0.397  53.932  1.00  0.00     0.002 C 
HETATM   23  C19 UNL     1      23.441  -0.377  53.127  1.00  0.00     0.020 C 
HETATM   24  C20 UNL     1      21.998  -0.052  53.500  1.00  0.00     0.122 C 
HETATM   25  N3  UNL     1      21.154  -0.480  52.412  1.00  0.00    -0.361 N 
HETATM   26  C21 UNL     1      21.359   0.267  51.218  1.00  0.00     0.218 C 
HETATM   27  O2  UNL     1      22.216   1.047  51.646  1.00  0.00    -0.274 OA
HETATM   28  C22 UNL     1      21.060   0.544  49.796  1.00  0.00     0.113 C 
HETATM   29  H6  UNL     1      24.500   7.687  50.668  1.00  0.00     0.169 HD
HETATM   30  H24 UNL     1      20.444  -1.006  51.877  1.00  0.00     0.162 HD
ENDROOT
TORSDOF 0
ENDMDL
MODEL 4
REMARK VINA RESULT:      -8.7      3.057      6.583
REMARK  0 active torsions:
REMARK  status: ('A' for Active; 'I' for Inactive)
ROOT
HETATM    1  C1  UNL     1      23.792   5.197  52.593  1.00  0.00     0.017 C 
HETATM    2  C2  UNL     1      23.712   3.671  52.466  1.00  0.00    -0.018 C 
HETATM    3  C3  UNL     1      22.996   2.714  51.835  1.00  0.00     0.056 C 
HETATM    4  C4  UNL     1      21.927   2.225  50.932  1.00  0.00     0.028 C 
HETATM    5  C5  UNL     1      22.288   2.249  49.616  1.00  0.00     0.100 C 
HETATM    6  C6  UNL     1      21.609   1.882  48.343  1.00  0.00     0.247 C 
HETATM    7  O1  UNL     1      22.293   1.385  47.430  1.00  0.00    -0.268 OA
HETATM    8  N1  UNL     1      20.210   2.107  48.201  1.00  0.00    -0.322 N 
HETATM    9  C7  UNL     1      19.207   2.350  49.215  1.00  0.00     0.062 A 
HETATM   10  C8  UNL     1      17.978   2.767  48.760  1.00  0.00     0.035 A 
HETATM   11  C9  UNL     1      17.032   3.000  49.730  1.00  0.00     0.044 A 
HETATM   12  C10 UNL     1      17.184   2.864  51.079  1.00  0.00     0.118 A 
HETATM   13  F1  UNL     1      16.154   3.131  51.918  1.00  0.00    -0.206 F 
HETATM   14  C11 UNL     1      18.436   2.437  51.582  1.00  0.00     0.074 A 
HETATM   15  C12 UNL     1      19.408   2.194  50.604  1.00  0.00     0.069 A 
HETATM   16  N2  UNL     1      20.608   1.757  51.284  1.00  0.00    -0.317 N 
HETATM   17  C13 UNL     1      20.109   0.827  52.300  1.00  0.00     0.009 C 
HETATM   18  C14 UNL     1      18.788   0.236  52.194  1.00  0.00     0.068 C 
HETATM   19  C15 UNL     1      20.559   0.234  53.383  1.00  0.00    -0.002 C 
HETATM   20  C16 UNL     1      20.777  -0.542  54.594  1.00  0.00     0.029 C 
HETATM   21  C17 UNL     1      21.543  -1.795  54.370  1.00  0.00     0.004 C 
HETATM   22  C18 UNL     1      22.822  -1.644  53.630  1.00  0.00     0.002 C 
HETATM   23  C19 UNL     1      23.729  -0.663  54.265  1.00  0.00     0.020 C 
HETATM   24  C20 UNL     1      25.067  -0.567  53.539  1.00  0.00     0.122 C 
HETATM   25  N3  UNL     1      25.688   0.677  53.922  1.00  0.00    -0.361 N 
HETATM   26  C21 UNL     1      24.981   1.821  53.457  1.00  0.00     0.218 C 
HETATM   27  O2  UNL     1      24.078   1.234  52.851  1.00  0.00    -0.274 OA
HETATM   28  C22 UNL     1      24.813   3.287  53.356  1.00  0.00     0.113 C 
HETATM   29  H6  UNL     1      19.842   2.099  47.232  1.00  0.00     0.169 HD
HETATM   30  H24 UNL     1      26.355   1.346  54.339  1.00  0.00     0.162 HD
ENDROOT
TORSDOF 0
ENDMDL
MODEL 5
REMARK VINA RESULT:      -7.9      4.345      8.024
REMARK  0 active torsions:
REMARK  status: ('A' for Active; 'I' for Inactive)
ROOT
HETATM    1  C1  UNL     1      15.559  -1.814  51.871  1.00  0.00     0.017 C 
HETATM    2  C2  UNL     1      16.764  -0.920  52.188  1.00  0.00    -0.018 C 
HETATM    3  C3  UNL     1      17.224   0.329  51.958  1.00  0.00     0.056 C 
HETATM    4  C4  UNL     1      17.148   1.695  51.385  1.00  0.00     0.028 C 
HETATM    5  C5  UNL     1      16.399   2.550  52.142  1.00  0.00     0.100 C 
HETATM    6  C6  UNL     1      16.013   3.982  52.020  1.00  0.00     0.247 C 
HETATM    7  O1  UNL     1      15.917   4.659  53.059  1.00  0.00    -0.268 OA
HETATM    8  N1  UNL     1      15.762   4.537  50.732  1.00  0.00    -0.322 N 
HETATM    9  C7  UNL     1      16.130   4.037  49.425  1.00  0.00     0.062 A 
HETATM   10  C8  UNL     1      15.546   4.668  48.352  1.00  0.00     0.035 A 
HETATM   11  C9  UNL     1      15.897   4.184  47.113  1.00  0.00     0.044 A 
HETATM   12  C10 UNL     1      16.751   3.155  46.843  1.00  0.00     0.118 A 
HETATM   13  F1  UNL     1      17.002   2.788  45.562  1.00  0.00    -0.206 F 
HETATM   14  C11 UNL     1      17.369   2.483  47.923  1.00  0.00     0.074 A 
HETATM   15  C12 UNL     1      17.022   2.968  49.190  1.00  0.00     0.069 A 
HETATM   16  N2  UNL     1      17.747   2.185  50.167  1.00  0.00    -0.317 N 
HETATM   17  C13 UNL     1      19.089   2.070  49.590  1.00  0.00     0.009 C 
HETATM   18  C14 UNL     1      19.539   2.975  48.549  1.00  0.00     0.068 C 
HETATM   19  C15 UNL     1      20.175   1.356  49.784  1.00  0.00    -0.002 C 
HETATM   20  C16 UNL     1      21.487   0.727  49.765  1.00  0.00     0.029 C 
HETATM   21  C17 UNL     1      22.400   1.221  50.827  1.00  0.00     0.004 C 
HETATM   22  C18 UNL     1      21.851   1.203  52.207  1.00  0.00     0.002 C 
HETATM   23  C19 UNL     1      21.372  -0.138  52.607  1.00  0.00     0.020 C 
HETATM   24  C20 UNL     1      20.877  -0.163  54.048  1.00  0.00     0.122 C 
HETATM   25  N3  UNL     1      20.042  -1.327  54.208  1.00  0.00    -0.361 N 
HETATM   26  C21 UNL     1      18.839  -1.261  53.450  1.00  0.00     0.218 C 
HETATM   27  O2  UNL     1      19.006  -0.141  52.956  1.00  0.00    -0.274 OA
HETATM   28  C22 UNL     1      17.561  -1.850  52.994  1.00  0.00     0.113 C 
HETATM   29  H6  UNL     1      15.241   5.432  50.714  1.00  0.00     0.169 HD
HETATM   30  H24 UNL     1      19.705  -2.249  54.530  1.00  0.00     0.162 HD
ENDROOT
TORSDOF 0
ENDMDL
MODEL 6
REMARK VINA RESULT:      -7.8      8.063      9.654
REMARK  0 active torsions:
REMARK  status: ('A' for Active; 'I' for Inactive)
ROOT
HETATM    1  C1  UNL     1      25.372   8.925  44.002  1.00  0.00     0.017 C 
HETATM    2  C2  UNL     1      25.369   8.517  45.480  1.00  0.00    -0.018 C 
HETATM    3  C3  UNL     1      26.160   8.558  46.574  1.00  0.00     0.056 C 
HETATM    4  C4  UNL     1      27.403   8.893  47.310  1.00  0.00     0.028 C 
HETATM    5  C5  UNL     1      27.439  10.189  47.737  1.00  0.00     0.100 C 
HETATM    6  C6  UNL     1      28.424  11.010  48.491  1.00  0.00     0.247 C 
HETATM    7  O1  UNL     1      27.996  11.870  49.282  1.00  0.00    -0.268 OA
HETATM    8  N1  UNL     1      29.818  10.798  48.291  1.00  0.00    -0.322 N 
HETATM    9  C7  UNL     1      30.503   9.670  47.697  1.00  0.00     0.062 A 
HETATM   10  C8  UNL     1      31.839   9.851  47.426  1.00  0.00     0.035 A 
HETATM   11  C9  UNL     1      32.482   8.776  46.858  1.00  0.00     0.044 A 
HETATM   12  C10 UNL     1      31.938   7.565  46.538  1.00  0.00     0.118 A 
HETATM   13  F1  UNL     1      32.701   6.595  45.980  1.00  0.00    -0.206 F 
HETATM   14  C11 UNL     1      30.567   7.345  46.804  1.00  0.00     0.074 A 
HETATM   15  C12 UNL     1      29.901   8.432  47.385  1.00  0.00     0.069 A 
HETATM   16  N2  UNL     1      28.526   8.034  47.599  1.00  0.00    -0.317 N 
HETATM   17  C13 UNL     1      28.641   6.670  48.123  1.00  0.00     0.009 C 
HETATM   18  C14 UNL     1      29.887   6.181  48.682  1.00  0.00     0.068 C 
HETATM   19  C15 UNL     1      27.854   5.638  48.331  1.00  0.00    -0.002 C 
HETATM   20  C16 UNL     1      27.239   4.361  48.663  1.00  0.00     0.029 C 
HETATM   21  C17 UNL     1      26.477   4.380  49.937  1.00  0.00     0.004 C 
HETATM   22  C18 UNL     1      25.480   5.472  50.075  1.00  0.00     0.002 C 
HETATM   23  C19 UNL     1      24.505   5.491  48.962  1.00  0.00     0.020 C 
HETATM   24  C20 UNL     1      23.444   6.570  49.148  1.00  0.00     0.122 C 
HETATM   25  N3  UNL     1      22.836   6.817  47.864  1.00  0.00    -0.361 N 
HETATM   26  C21 UNL     1      23.732   7.398  46.923  1.00  0.00     0.218 C 
HETATM   27  O2  UNL     1      24.723   7.484  47.657  1.00  0.00    -0.274 OA
HETATM   28  C22 UNL     1      24.033   7.919  45.572  1.00  0.00     0.113 C 
HETATM   29  H6  UNL     1      30.447  11.555  48.614  1.00  0.00     0.169 HD
HETATM   30  H24 UNL     1      22.131   6.859  47.111  1.00  0.00     0.162 HD
ENDROOT
TORSDOF 0
ENDMDL
MODEL 7
REMARK VINA RESULT:      -7.7     12.049     14.315
REMARK  0 active torsions:
REMARK  status: ('A' for Active; 'I' for Inactive)
ROOT
HETATM    1  C1  UNL     1      29.667   9.350  44.263  1.00  0.00     0.017 C 
HETATM    2  C2  UNL     1      30.599   8.632  45.248  1.00  0.00    -0.018 C 
HETATM    3  C3  UNL     1      31.852   8.132  45.322  1.00  0.00     0.056 C 
HETATM    4  C4  UNL     1      33.200   7.825  44.785  1.00  0.00     0.028 C 
HETATM    5  C5  UNL     1      34.056   8.886  44.853  1.00  0.00     0.100 C 
HETATM    6  C6  UNL     1      35.475   9.105  44.460  1.00  0.00     0.247 C 
HETATM    7  O1  UNL     1      36.177   9.847  45.170  1.00  0.00    -0.268 OA
HETATM    8  N1  UNL     1      35.989   8.471  43.294  1.00  0.00    -0.322 N 
HETATM    9  C7  UNL     1      35.463   7.349  42.546  1.00  0.00     0.062 A 
HETATM   10  C8  UNL     1      36.052   7.108  41.327  1.00  0.00     0.035 A 
HETATM   11  C9  UNL     1      35.543   6.043  40.621  1.00  0.00     0.044 A 
HETATM   12  C10 UNL     1      34.528   5.213  40.999  1.00  0.00     0.118 A 
HETATM   13  F1  UNL     1      34.134   4.198  40.193  1.00  0.00    -0.206 F 
HETATM   14  C11 UNL     1      33.900   5.432  42.247  1.00  0.00     0.074 A 
HETATM   15  C12 UNL     1      34.410   6.513  42.978  1.00  0.00     0.069 A 
HETATM   16  N2  UNL     1      33.672   6.584  44.220  1.00  0.00    -0.317 N 
HETATM   17  C13 UNL     1      33.574   5.184  44.643  1.00  0.00     0.009 C 
HETATM   18  C14 UNL     1      34.461   4.172  44.102  1.00  0.00     0.068 C 
HETATM   19  C15 UNL     1      32.891   4.476  45.514  1.00  0.00    -0.002 C 
HETATM   20  C16 UNL     1      32.294   3.457  46.365  1.00  0.00     0.029 C 
HETATM   21  C17 UNL     1      32.838   3.440  47.746  1.00  0.00     0.004 C 
HETATM   22  C18 UNL     1      32.843   4.747  48.452  1.00  0.00     0.002 C 
HETATM   23  C19 UNL     1      31.502   5.370  48.498  1.00  0.00     0.020 C 
HETATM   24  C20 UNL     1      31.504   6.675  49.285  1.00  0.00     0.122 C 
HETATM   25  N3  UNL     1      30.324   7.416  48.913  1.00  0.00    -0.361 N 
HETATM   26  C21 UNL     1      30.341   7.851  47.559  1.00  0.00     0.218 C 
HETATM   27  O2  UNL     1      31.451   7.407  47.247  1.00  0.00    -0.274 OA
HETATM   28  C22 UNL     1      29.710   8.537  46.411  1.00  0.00     0.113 C 
HETATM   29  H6  UNL     1      36.871   8.860  42.913  1.00  0.00     0.169 HD
HETATM   30  H24 UNL     1      29.404   7.880  48.977  1.00  0.00     0.162 HD
ENDROOT
TORSDOF 0
ENDMDL
MODEL 8
REMARK VINA RESULT:      -7.6      3.512      4.461
REMARK  0 active torsions:
REMARK  status: ('A' for Active; 'I' for Inactive)
ROOT
HETATM    1  C1  UNL     1      19.974   3.634  46.201  1.00  0.00     0.017 C 
HETATM    2  C2  UNL     1      19.975   3.557  47.733  1.00  0.00    -0.018 C 
HETATM    3  C3  UNL     1      20.640   4.048  48.801  1.00  0.00     0.056 C 
HETATM    4  C4  UNL     1      21.682   4.871  49.461  1.00  0.00     0.028 C 
HETATM    5  C5  UNL     1      21.323   6.181  49.594  1.00  0.00     0.100 C 
HETATM    6  C6  UNL     1      21.983   7.389  50.163  1.00  0.00     0.247 C 
HETATM    7  O1  UNL     1      21.275   8.232  50.741  1.00  0.00    -0.268 OA
HETATM    8  N1  UNL     1      23.391   7.550  50.031  1.00  0.00    -0.322 N 
HETATM    9  C7  UNL     1      24.405   6.570  49.707  1.00  0.00     0.062 A 
HETATM   10  C8  UNL     1      25.654   7.068  49.418  1.00  0.00     0.035 A 
HETATM   11  C9  UNL     1      26.612   6.130  49.107  1.00  0.00     0.044 A 
HETATM   12  C10 UNL     1      26.452   4.776  49.054  1.00  0.00     0.118 A 
HETATM   13  F1  UNL     1      27.494   3.973  48.730  1.00  0.00    -0.206 F 
HETATM   14  C11 UNL     1      25.180   4.230  49.344  1.00  0.00     0.074 A 
HETATM   15  C12 UNL     1      24.196   5.174  49.665  1.00  0.00     0.069 A 
HETATM   16  N2  UNL     1      22.975   4.450  49.945  1.00  0.00    -0.317 N 
HETATM   17  C13 UNL     1      23.425   3.316  50.756  1.00  0.00     0.009 C 
HETATM   18  C14 UNL     1      24.713   3.333  51.423  1.00  0.00     0.068 C 
HETATM   19  C15 UNL     1      22.944   2.167  51.175  1.00  0.00    -0.002 C 
HETATM   20  C16 UNL     1      22.686   0.864  51.770  1.00  0.00     0.029 C 
HETATM   21  C17 UNL     1      21.856   0.925  53.000  1.00  0.00     0.004 C 
HETATM   22  C18 UNL     1      20.587   1.688  52.883  1.00  0.00     0.002 C 
HETATM   23  C19 UNL     1      19.732   1.195  51.781  1.00  0.00     0.020 C 
HETATM   24  C20 UNL     1      18.401   1.937  51.714  1.00  0.00     0.122 C 
HETATM   25  N3  UNL     1      17.846   1.729  50.400  1.00  0.00    -0.361 N 
HETATM   26  C21 UNL     1      18.611   2.336  49.366  1.00  0.00     0.218 C 
HETATM   27  O2  UNL     1      19.482   2.853  50.075  1.00  0.00    -0.274 OA
HETATM   28  C22 UNL     1      18.855   2.631  47.938  1.00  0.00     0.113 C 
HETATM   29  H6  UNL     1      23.759   8.506  50.188  1.00  0.00     0.169 HD
HETATM   30  H24 UNL     1      17.214   1.409  49.648  1.00  0.00     0.162 HD
ENDROOT
TORSDOF 0
ENDMDL
MODEL 9
REMARK VINA RESULT:      -7.6     12.539     15.257
REMARK  0 active torsions:
REMARK  status: ('A' for Active; 'I' for Inactive)
ROOT
HETATM    1  C1  UNL     1      35.060   5.364  48.762  1.00  0.00     0.017 C 
HETATM    2  C2  UNL     1      33.864   6.074  48.116  1.00  0.00    -0.018 C 
HETATM    3  C3  UNL     1      33.501   6.654  46.951  1.00  0.00     0.056 C 
HETATM    4  C4  UNL     1      33.726   7.095  45.553  1.00  0.00     0.028 C 
HETATM    5  C5  UNL     1      33.541   6.095  44.642  1.00  0.00     0.100 C 
HETATM    6  C6  UNL     1      33.640   6.006  43.159  1.00  0.00     0.247 C 
HETATM    7  O1  UNL     1      32.841   5.267  42.557  1.00  0.00    -0.268 OA
HETATM    8  N1  UNL     1      34.636   6.759  42.473  1.00  0.00    -0.322 N 
HETATM    9  C7  UNL     1      35.412   7.892  42.929  1.00  0.00     0.062 A 
HETATM   10  C8  UNL     1      36.466   8.262  42.127  1.00  0.00     0.035 A 
HETATM   11  C9  UNL     1      37.202   9.336  42.569  1.00  0.00     0.044 A 
HETATM   12  C10 UNL     1      36.999  10.062  43.706  1.00  0.00     0.118 A 
HETATM   13  F1  UNL     1      37.811  11.102  44.012  1.00  0.00    -0.206 F 
HETATM   14  C11 UNL     1      35.924   9.709  44.554  1.00  0.00     0.074 A 
HETATM   15  C12 UNL     1      35.164   8.617  44.114  1.00  0.00     0.069 A 
HETATM   16  N2  UNL     1      34.110   8.404  45.082  1.00  0.00    -0.317 N 
HETATM   17  C13 UNL     1      33.639   9.759  45.382  1.00  0.00     0.009 C 
HETATM   18  C14 UNL     1      33.924  10.868  44.493  1.00  0.00     0.068 C 
HETATM   19  C15 UNL     1      32.891  10.352  46.286  1.00  0.00    -0.002 C 
HETATM   20  C16 UNL     1      32.128  11.261  47.128  1.00  0.00     0.029 C 
HETATM   21  C17 UNL     1      30.665  11.217  46.881  1.00  0.00     0.004 C 
HETATM   22  C18 UNL     1      30.048   9.866  46.908  1.00  0.00     0.002 C 
HETATM   23  C19 UNL     1      30.318   9.148  48.174  1.00  0.00     0.020 C 
HETATM   24  C20 UNL     1      29.623   7.792  48.222  1.00  0.00     0.122 C 
HETATM   25  N3  UNL     1      30.274   6.998  49.234  1.00  0.00    -0.361 N 
HETATM   26  C21 UNL     1      31.618   6.665  48.904  1.00  0.00     0.218 C 
HETATM   27  O2  UNL     1      31.665   7.208  47.795  1.00  0.00    -0.274 OA
HETATM   28  C22 UNL     1      32.909   6.020  49.228  1.00  0.00     0.113 C 
HETATM   29  H6  UNL     1      34.845   6.462  41.503  1.00  0.00     0.169 HD
HETATM   30  H24 UNL     1      30.431   6.466  50.105  1.00  0.00     0.162 HD
ENDROOT
TORSDOF 0
ENDMDL
