MODEL 1
REMARK VINA RESULT:      -7.0      0.000      0.000
REMARK  7 active torsions:
REMARK  status: ('A' for Active; 'I' for Inactive)
REMARK    1  A    between atoms: C3_3  and  N1_5 
REMARK    2  A    between atoms: N1_5  and  C4_6 
REMARK    3  A    between atoms: C4_6  and  C5_7 
REMARK    4  A    between atoms: C7_9  and  O1_10 
REMARK    5  A    between atoms: O1_10  and  C8_11 
REMARK    6  A    between atoms: C8_11  and  C9_12 
REMARK    7  A    between atoms: C9_12  and  C10_13 
ROOT
HETATM    1  C5  UNL     1      24.994   0.319  53.232  1.00  0.00    -0.056 A 
HETATM    2  C6  UNL     1      25.126   1.112  52.228  1.00  0.00     0.041 A 
HETATM    3  C7  UNL     1      23.844   1.397  51.631  1.00  0.00     0.065 A 
HETATM    4  C15 UNL     1      22.906   0.745  52.285  1.00  0.00     0.014 A 
HETATM    5  C16 UNL     1      23.561  -0.072  53.315  1.00  0.00     0.066 A 
ENDROOT
BRANCH   3   6
HETATM    6  O1  UNL     1      23.432   2.146  50.622  1.00  0.00    -0.351 OA
BRANCH   6   7
HETATM    7  C8  UNL     1      23.922   3.103  49.789  1.00  0.00     0.181 C 
BRANCH   7   8
HETATM    8  C9  UNL     1      24.553   4.272  50.571  1.00  0.00     0.086 C 
BRANCH   8   9
HETATM    9  C10 UNL     1      25.712   4.829  49.845  1.00  0.00     0.036 A 
HETATM   10  C11 UNL     1      26.685   3.968  49.405  1.00  0.00     0.027 A 
HETATM   11  C12 UNL     1      27.617   4.657  48.704  1.00  0.00     0.003 A 
HETATM   12  C13 UNL     1      27.777   5.949  48.390  1.00  0.00     0.019 A 
HETATM   13  C14 UNL     1      26.724   6.727  48.912  1.00  0.00     0.117 A 
HETATM   14  N2  UNL     1      25.676   6.206  49.633  1.00  0.00    -0.266 NA
ENDBRANCH   8   9
ENDBRANCH   7   8
ENDBRANCH   6   7
ENDBRANCH   3   6
BRANCH   1  15
HETATM   15  C4  UNL     1      25.919  -0.279  54.185  1.00  0.00     0.155 C 
BRANCH  15  16
HETATM   16  N1  UNL     1      27.233   0.294  54.176  1.00  0.00    -0.377 N 
HETATM   17  H5  UNL     1      26.724   1.282  54.035  1.00  0.00     0.160 HD
BRANCH  16  18
HETATM   18  C3  UNL     1      28.614   0.885  54.169  1.00  0.00     0.095 C 
HETATM   19  C2  UNL     1      29.016  -0.326  54.403  1.00  0.00     0.011 C 
HETATM   20  C1  UNL     1      30.076  -0.511  53.417  1.00  0.00     0.039 C 
HETATM   21 CL1  UNL     1      28.320   2.501  53.625  1.00  0.00    -0.065 Cl
ENDBRANCH  16  18
ENDBRANCH  15  16
ENDBRANCH   1  15
TORSDOF 7
ENDMDL
MODEL 2
REMARK VINA RESULT:      -6.8      1.981      6.901
REMARK  7 active torsions:
REMARK  status: ('A' for Active; 'I' for Inactive)
REMARK    1  A    between atoms: C3_3  and  N1_5 
REMARK    2  A    between atoms: N1_5  and  C4_6 
REMARK    3  A    between atoms: C4_6  and  C5_7 
REMARK    4  A    between atoms: C7_9  and  O1_10 
REMARK    5  A    between atoms: O1_10  and  C8_11 
REMARK    6  A    between atoms: C8_11  and  C9_12 
REMARK    7  A    between atoms: C9_12  and  C10_13 
ROOT
HETATM    1  C5  UNL     1      26.383   3.561  49.786  1.00  0.00    -0.056 A 
HETATM    2  C6  UNL     1      26.529   2.709  50.739  1.00  0.00     0.041 A 
HETATM    3  C7  UNL     1      25.250   2.199  51.167  1.00  0.00     0.065 A 
HETATM    4  C15 UNL     1      24.297   2.770  50.463  1.00  0.00     0.014 A 
HETATM    5  C16 UNL     1      24.924   3.757  49.574  1.00  0.00     0.066 A 
ENDROOT
BRANCH   3   6
HETATM    6  O1  UNL     1      24.854   1.315  52.068  1.00  0.00    -0.351 OA
BRANCH   6   7
HETATM    7  C8  UNL     1      25.226   0.866  53.296  1.00  0.00     0.181 C 
BRANCH   7   8
HETATM    8  C9  UNL     1      25.783  -0.570  53.235  1.00  0.00     0.086 C 
BRANCH   8   9
HETATM    9  C10 UNL     1      27.257  -0.569  53.314  1.00  0.00     0.036 A 
HETATM   10  C11 UNL     1      27.900   0.618  53.564  1.00  0.00     0.027 A 
HETATM   11  C12 UNL     1      29.232   0.399  53.670  1.00  0.00     0.003 A 
HETATM   12  C13 UNL     1      30.007  -0.688  53.567  1.00  0.00     0.019 A 
HETATM   13  C14 UNL     1      29.232  -1.834  53.295  1.00  0.00     0.117 A 
HETATM   14  N2  UNL     1      27.863  -1.816  53.170  1.00  0.00    -0.266 NA
ENDBRANCH   8   9
ENDBRANCH   7   8
ENDBRANCH   6   7
ENDBRANCH   3   6
BRANCH   1  15
HETATM   15  C4  UNL     1      27.301   4.362  48.988  1.00  0.00     0.155 C 
BRANCH  15  16
HETATM   16  N1  UNL     1      27.035   5.771  49.014  1.00  0.00    -0.377 N 
HETATM   17  H5  UNL     1      26.062   5.525  48.516  1.00  0.00     0.160 HD
BRANCH  16  18
HETATM   18  C3  UNL     1      26.765   7.248  49.047  1.00  0.00     0.095 C 
HETATM   19  C2  UNL     1      27.353   7.271  47.890  1.00  0.00     0.011 C 
HETATM   20  C1  UNL     1      26.422   8.040  47.070  1.00  0.00     0.039 C 
HETATM   21 CL1  UNL     1      25.749   7.406  50.438  1.00  0.00    -0.065 Cl
ENDBRANCH  16  18
ENDBRANCH  15  16
ENDBRANCH   1  15
TORSDOF 7
ENDMDL
MODEL 3
REMARK VINA RESULT:      -6.6      2.702      5.452
REMARK  7 active torsions:
REMARK  status: ('A' for Active; 'I' for Inactive)
REMARK    1  A    between atoms: C3_3  and  N1_5 
REMARK    2  A    between atoms: N1_5  and  C4_6 
REMARK    3  A    between atoms: C4_6  and  C5_7 
REMARK    4  A    between atoms: C7_9  and  O1_10 
REMARK    5  A    between atoms: O1_10  and  C8_11 
REMARK    6  A    between atoms: C8_11  and  C9_12 
REMARK    7  A    between atoms: C9_12  and  C10_13 
ROOT
HETATM    1  C5  UNL     1      26.399   2.362  52.215  1.00  0.00    -0.056 A 
HETATM    2  C6  UNL     1      25.208   2.418  52.698  1.00  0.00     0.041 A 
HETATM    3  C7  UNL     1      24.255   2.753  51.668  1.00  0.00     0.065 A 
HETATM    4  C15 UNL     1      24.890   2.920  50.528  1.00  0.00     0.014 A 
HETATM    5  C16 UNL     1      26.328   2.771  50.786  1.00  0.00     0.066 A 
ENDROOT
BRANCH   3   6
HETATM    6  O1  UNL     1      22.943   2.910  51.629  1.00  0.00    -0.351 OA
BRANCH   6   7
HETATM    7  C8  UNL     1      21.863   2.368  51.005  1.00  0.00     0.181 C 
BRANCH   7   8
HETATM    8  C9  UNL     1      21.930   0.828  50.982  1.00  0.00     0.086 C 
BRANCH   8   9
HETATM    9  C10 UNL     1      21.849   0.275  52.348  1.00  0.00     0.036 A 
HETATM   10  C11 UNL     1      22.869  -0.529  52.792  1.00  0.00     0.027 A 
HETATM   11  C12 UNL     1      22.646  -0.872  54.083  1.00  0.00     0.003 A 
HETATM   12  C13 UNL     1      21.669  -0.611  54.959  1.00  0.00     0.019 A 
HETATM   13  C14 UNL     1      20.679   0.208  54.379  1.00  0.00     0.117 A 
HETATM   14  N2  UNL     1      20.737   0.674  53.087  1.00  0.00    -0.266 NA
ENDBRANCH   8   9
ENDBRANCH   7   8
ENDBRANCH   6   7
ENDBRANCH   3   6
BRANCH   1  15
HETATM   15  C4  UNL     1      27.711   2.069  52.774  1.00  0.00     0.155 C 
BRANCH  15  16
HETATM   16  N1  UNL     1      27.932   0.684  53.075  1.00  0.00    -0.377 N 
HETATM   17  H5  UNL     1      27.974   0.997  54.150  1.00  0.00     0.160 HD
BRANCH  16  18
HETATM   18  C3  UNL     1      28.161  -0.769  53.380  1.00  0.00     0.095 C 
HETATM   19  C2  UNL     1      26.877  -0.889  53.237  1.00  0.00     0.011 C 
HETATM   20  C1  UNL     1      26.759  -2.033  52.338  1.00  0.00     0.039 C 
HETATM   21 CL1  UNL     1      29.888  -0.878  53.374  1.00  0.00    -0.065 Cl
ENDBRANCH  16  18
ENDBRANCH  15  16
ENDBRANCH   1  15
TORSDOF 7
ENDMDL
MODEL 4
REMARK VINA RESULT:      -6.6      2.701      3.587
REMARK  7 active torsions:
REMARK  status: ('A' for Active; 'I' for Inactive)
REMARK    1  A    between atoms: C3_3  and  N1_5 
REMARK    2  A    between atoms: N1_5  and  C4_6 
REMARK    3  A    between atoms: C4_6  and  C5_7 
REMARK    4  A    between atoms: C7_9  and  O1_10 
REMARK    5  A    between atoms: O1_10  and  C8_11 
REMARK    6  A    between atoms: C8_11  and  C9_12 
REMARK    7  A    between atoms: C9_12  and  C10_13 
ROOT
HETATM    1  C5  UNL     1      24.086  -0.798  54.648  1.00  0.00    -0.056 A 
HETATM    2  C6  UNL     1      23.567  -0.367  53.553  1.00  0.00     0.041 A 
HETATM    3  C7  UNL     1      22.138  -0.570  53.553  1.00  0.00     0.065 A 
HETATM    4  C15 UNL     1      21.783  -1.156  54.676  1.00  0.00     0.014 A 
HETATM    5  C16 UNL     1      23.003  -1.436  55.444  1.00  0.00     0.066 A 
ENDROOT
BRANCH   3   6
HETATM    6  O1  UNL     1      21.159  -0.296  52.707  1.00  0.00    -0.351 OA
BRANCH   6   7
HETATM    7  C8  UNL     1      20.776   0.707  51.873  1.00  0.00     0.181 C 
BRANCH   7   8
HETATM    8  C9  UNL     1      21.303   0.493  50.440  1.00  0.00     0.086 C 
BRANCH   8   9
HETATM    9  C10 UNL     1      22.222   1.578  50.047  1.00  0.00     0.036 A 
HETATM   10  C11 UNL     1      23.249   1.907  50.895  1.00  0.00     0.027 A 
HETATM   11  C12 UNL     1      24.017   2.867  50.327  1.00  0.00     0.003 A 
HETATM   12  C13 UNL     1      23.963   3.536  49.169  1.00  0.00     0.019 A 
HETATM   13  C14 UNL     1      22.858   3.119  48.398  1.00  0.00     0.117 A 
HETATM   14  N2  UNL     1      21.976   2.144  48.797  1.00  0.00    -0.266 NA
ENDBRANCH   8   9
ENDBRANCH   7   8
ENDBRANCH   6   7
ENDBRANCH   3   6
BRANCH   1  15
HETATM   15  C4  UNL     1      25.441  -0.844  55.183  1.00  0.00     0.155 C 
BRANCH  15  16
HETATM   16  N1  UNL     1      26.456  -0.424  54.262  1.00  0.00    -0.377 N 
HETATM   17  H5  UNL     1      26.634   0.435  54.958  1.00  0.00     0.160 HD
BRANCH  16  18
HETATM   18  C3  UNL     1      27.519   0.006  53.291  1.00  0.00     0.095 C 
HETATM   19  C2  UNL     1      28.337  -0.149  54.286  1.00  0.00     0.011 C 
HETATM   20  C1  UNL     1      29.408  -0.950  53.701  1.00  0.00     0.039 C 
HETATM   21 CL1  UNL     1      26.657   0.041  51.792  1.00  0.00    -0.065 Cl
ENDBRANCH  16  18
ENDBRANCH  15  16
ENDBRANCH   1  15
TORSDOF 7
ENDMDL
MODEL 5
REMARK VINA RESULT:      -6.5      3.986      6.661
REMARK  7 active torsions:
REMARK  status: ('A' for Active; 'I' for Inactive)
REMARK    1  A    between atoms: C3_3  and  N1_5 
REMARK    2  A    between atoms: N1_5  and  C4_6 
REMARK    3  A    between atoms: C4_6  and  C5_7 
REMARK    4  A    between atoms: C7_9  and  O1_10 
REMARK    5  A    between atoms: O1_10  and  C8_11 
REMARK    6  A    between atoms: C8_11  and  C9_12 
REMARK    7  A    between atoms: C9_12  and  C10_13 
ROOT
HETATM    1  C5  UNL     1      21.970  -0.925  53.874  1.00  0.00    -0.056 A 
HETATM    2  C6  UNL     1      22.105  -0.134  52.868  1.00  0.00     0.041 A 
HETATM    3  C7  UNL     1      23.466   0.333  52.765  1.00  0.00     0.065 A 
HETATM    4  C15 UNL     1      24.175  -0.179  53.749  1.00  0.00     0.014 A 
HETATM    5  C16 UNL     1      23.268  -0.961  54.599  1.00  0.00     0.066 A 
ENDROOT
BRANCH   3   6
HETATM    6  O1  UNL     1      24.120   1.120  51.928  1.00  0.00    -0.351 OA
BRANCH   6   7
HETATM    7  C8  UNL     1      24.949   2.197  51.970  1.00  0.00     0.181 C 
BRANCH   7   8
HETATM    8  C9  UNL     1      26.313   1.894  51.319  1.00  0.00     0.086 C 
BRANCH   8   9
HETATM    9  C10 UNL     1      27.263   1.352  52.311  1.00  0.00     0.036 A 
HETATM   10  C11 UNL     1      27.323  -0.007  52.487  1.00  0.00     0.027 A 
HETATM   11  C12 UNL     1      28.298  -0.307  53.377  1.00  0.00     0.003 A 
HETATM   12  C13 UNL     1      29.157   0.425  54.096  1.00  0.00     0.019 A 
HETATM   13  C14 UNL     1      28.985   1.800  53.838  1.00  0.00     0.117 A 
HETATM   14  N2  UNL     1      28.060   2.299  52.952  1.00  0.00    -0.266 NA
ENDBRANCH   8   9
ENDBRANCH   7   8
ENDBRANCH   6   7
ENDBRANCH   3   6
BRANCH   1  15
HETATM   15  C4  UNL     1      20.855  -1.674  54.436  1.00  0.00     0.155 C 
BRANCH  15  16
HETATM   16  N1  UNL     1      19.593  -1.425  53.802  1.00  0.00    -0.377 N 
HETATM   17  H5  UNL     1      20.089  -1.743  52.849  1.00  0.00     0.160 HD
BRANCH  16  18
HETATM   18  C3  UNL     1      18.267  -1.162  53.148  1.00  0.00     0.095 C 
HETATM   19  C2  UNL     1      18.822  -0.075  52.709  1.00  0.00     0.011 C 
HETATM   20  C1  UNL     1      18.493  -0.097  51.287  1.00  0.00     0.039 C 
HETATM   21 CL1  UNL     1      17.422  -2.648  53.419  1.00  0.00    -0.065 Cl
ENDBRANCH  16  18
ENDBRANCH  15  16
ENDBRANCH   1  15
TORSDOF 7
ENDMDL
MODEL 6
REMARK VINA RESULT:      -6.4      3.897      6.694
REMARK  7 active torsions:
REMARK  status: ('A' for Active; 'I' for Inactive)
REMARK    1  A    between atoms: C3_3  and  N1_5 
REMARK    2  A    between atoms: N1_5  and  C4_6 
REMARK    3  A    between atoms: C4_6  and  C5_7 
REMARK    4  A    between atoms: C7_9  and  O1_10 
REMARK    5  A    between atoms: O1_10  and  C8_11 
REMARK    6  A    between atoms: C8_11  and  C9_12 
REMARK    7  A    between atoms: C9_12  and  C10_13 
ROOT
HETATM    1  C5  UNL     1      25.037   0.536  52.480  1.00  0.00    -0.056 A 
HETATM    2  C6  UNL     1      23.881   1.078  52.318  1.00  0.00     0.041 A 
HETATM    3  C7  UNL     1      22.910   0.479  53.201  1.00  0.00     0.065 A 
HETATM    4  C15 UNL     1      23.491  -0.466  53.909  1.00  0.00     0.014 A 
HETATM    5  C16 UNL     1      24.884  -0.578  53.455  1.00  0.00     0.066 A 
ENDROOT
BRANCH   3   6
HETATM    6  O1  UNL     1      21.624   0.675  53.442  1.00  0.00    -0.351 OA
BRANCH   6   7
HETATM    7  C8  UNL     1      20.541   1.231  52.836  1.00  0.00     0.181 C 
BRANCH   7   8
HETATM    8  C9  UNL     1      20.102   0.425  51.598  1.00  0.00     0.086 C 
BRANCH   8   9
HETATM    9  C10 UNL     1      18.780  -0.196  51.813  1.00  0.00     0.036 A 
HETATM   10  C11 UNL     1      18.546  -0.847  52.998  1.00  0.00     0.027 A 
HETATM   11  C12 UNL     1      17.264  -1.280  53.033  1.00  0.00     0.003 A 
HETATM   12  C13 UNL     1      16.238  -1.217  52.175  1.00  0.00     0.019 A 
HETATM   13  C14 UNL     1      16.609  -0.540  50.996  1.00  0.00     0.117 A 
HETATM   14  N2  UNL     1      17.860  -0.012  50.782  1.00  0.00    -0.266 NA
ENDBRANCH   8   9
ENDBRANCH   7   8
ENDBRANCH   6   7
ENDBRANCH   3   6
BRANCH   1  15
HETATM   15  C4  UNL     1      26.349   0.742  51.883  1.00  0.00     0.155 C 
BRANCH  15  16
HETATM   16  N1  UNL     1      27.429   0.789  52.825  1.00  0.00    -0.377 N 
HETATM   17  H5  UNL     1      26.863   0.016  53.406  1.00  0.00     0.160 HD
BRANCH  16  18
HETATM   18  C3  UNL     1      28.566   0.845  53.806  1.00  0.00     0.095 C 
HETATM   19  C2  UNL     1      28.534  -0.451  53.750  1.00  0.00     0.011 C 
HETATM   20  C1  UNL     1      29.935  -0.800  53.535  1.00  0.00     0.039 C 
HETATM   21 CL1  UNL     1      28.939   2.534  53.842  1.00  0.00    -0.065 Cl
ENDBRANCH  16  18
ENDBRANCH  15  16
ENDBRANCH   1  15
TORSDOF 7
ENDMDL
MODEL 7
REMARK VINA RESULT:      -6.4      2.481      6.369
REMARK  7 active torsions:
REMARK  status: ('A' for Active; 'I' for Inactive)
REMARK    1  A    between atoms: C3_3  and  N1_5 
REMARK    2  A    between atoms: N1_5  and  C4_6 
REMARK    3  A    between atoms: C4_6  and  C5_7 
REMARK    4  A    between atoms: C7_9  and  O1_10 
REMARK    5  A    between atoms: O1_10  and  C8_11 
REMARK    6  A    between atoms: C8_11  and  C9_12 
REMARK    7  A    between atoms: C9_12  and  C10_13 
ROOT
HETATM    1  C5  UNL     1      23.031   3.179  52.214  1.00  0.00    -0.056 A 
HETATM    2  C6  UNL     1      23.875   2.525  52.932  1.00  0.00     0.041 A 
HETATM    3  C7  UNL     1      23.459   1.152  53.083  1.00  0.00     0.065 A 
HETATM    4  C15 UNL     1      22.319   0.972  52.450  1.00  0.00     0.014 A 
HETATM    5  C16 UNL     1      21.895   2.269  51.908  1.00  0.00     0.066 A 
ENDROOT
BRANCH   3   6
HETATM    6  O1  UNL     1      23.961   0.087  53.685  1.00  0.00    -0.351 OA
BRANCH   6   7
HETATM    7  C8  UNL     1      25.173  -0.487  53.911  1.00  0.00     0.181 C 
BRANCH   7   8
HETATM    8  C9  UNL     1      26.055  -0.476  52.647  1.00  0.00     0.086 C 
BRANCH   8   9
HETATM    9  C10 UNL     1      27.480  -0.637  52.995  1.00  0.00     0.036 A 
HETATM   10  C11 UNL     1      28.205   0.481  53.324  1.00  0.00     0.027 A 
HETATM   11  C12 UNL     1      29.460   0.119  53.680  1.00  0.00     0.003 A 
HETATM   12  C13 UNL     1      30.105  -1.052  53.751  1.00  0.00     0.019 A 
HETATM   13  C14 UNL     1      29.260  -2.115  53.374  1.00  0.00     0.117 A 
HETATM   14  N2  UNL     1      27.948  -1.950  53.000  1.00  0.00    -0.266 NA
ENDBRANCH   8   9
ENDBRANCH   7   8
ENDBRANCH   6   7
ENDBRANCH   3   6
BRANCH   1  15
HETATM   15  C4  UNL     1      22.948   4.555  51.744  1.00  0.00     0.155 C 
BRANCH  15  16
HETATM   16  N1  UNL     1      23.713   4.825  50.561  1.00  0.00    -0.377 N 
HETATM   17  H5  UNL     1      24.081   5.740  51.093  1.00  0.00     0.160 HD
BRANCH  16  18
HETATM   18  C3  UNL     1      24.511   5.098  49.319  1.00  0.00     0.095 C 
HETATM   19  C2  UNL     1      25.549   4.956  50.085  1.00  0.00     0.011 C 
HETATM   20  C1  UNL     1      26.387   4.034  49.326  1.00  0.00     0.039 C 
HETATM   21 CL1  UNL     1      23.295   5.086  48.089  1.00  0.00    -0.065 Cl
ENDBRANCH  16  18
ENDBRANCH  15  16
ENDBRANCH   1  15
TORSDOF 7
ENDMDL
MODEL 8
REMARK VINA RESULT:      -6.3      4.171      6.632
REMARK  7 active torsions:
REMARK  status: ('A' for Active; 'I' for Inactive)
REMARK    1  A    between atoms: C3_3  and  N1_5 
REMARK    2  A    between atoms: N1_5  and  C4_6 
REMARK    3  A    between atoms: C4_6  and  C5_7 
REMARK    4  A    between atoms: C7_9  and  O1_10 
REMARK    5  A    between atoms: O1_10  and  C8_11 
REMARK    6  A    between atoms: C8_11  and  C9_12 
REMARK    7  A    between atoms: C9_12  and  C10_13 
ROOT
HETATM    1  C5  UNL     1      25.944   4.667  49.376  1.00  0.00    -0.056 A 
HETATM    2  C6  UNL     1      27.094   4.132  49.162  1.00  0.00     0.041 A 
HETATM    3  C7  UNL     1      27.987   5.078  48.537  1.00  0.00     0.065 A 
HETATM    4  C15 UNL     1      27.353   6.216  48.351  1.00  0.00     0.014 A 
HETATM    5  C16 UNL     1      25.963   6.034  48.790  1.00  0.00     0.066 A 
ENDROOT
BRANCH   3   6
HETATM    6  O1  UNL     1      29.248   5.046  48.139  1.00  0.00    -0.351 OA
BRANCH   6   7
HETATM    7  C8  UNL     1      30.265   5.912  47.886  1.00  0.00     0.181 C 
BRANCH   7   8
HETATM    8  C9  UNL     1      31.347   5.859  48.983  1.00  0.00     0.086 C 
BRANCH   8   9
HETATM    9  C10 UNL     1      32.550   5.150  48.506  1.00  0.00     0.036 A 
HETATM   10  C11 UNL     1      33.757   5.801  48.555  1.00  0.00     0.027 A 
HETATM   11  C12 UNL     1      34.740   4.965  48.146  1.00  0.00     0.003 A 
HETATM   12  C13 UNL     1      34.763   3.700  47.707  1.00  0.00     0.019 A 
HETATM   13  C14 UNL     1      33.464   3.151  47.689  1.00  0.00     0.117 A 
HETATM   14  N2  UNL     1      32.341   3.838  48.085  1.00  0.00    -0.266 NA
ENDBRANCH   8   9
ENDBRANCH   7   8
ENDBRANCH   6   7
ENDBRANCH   3   6
BRANCH   1  15
HETATM   15  C4  UNL     1      24.699   4.198  49.970  1.00  0.00     0.155 C 
BRANCH  15  16
HETATM   16  N1  UNL     1      24.867   3.223  51.008  1.00  0.00    -0.377 N 
HETATM   17  H5  UNL     1      23.749   3.202  51.072  1.00  0.00     0.160 HD
BRANCH  16  18
HETATM   18  C3  UNL     1      25.054   2.202  52.093  1.00  0.00     0.095 C 
HETATM   19  C2  UNL     1      23.940   2.666  52.571  1.00  0.00     0.011 C 
HETATM   20  C1  UNL     1      23.165   1.454  52.818  1.00  0.00     0.039 C 
HETATM   21 CL1  UNL     1      26.399   1.284  51.509  1.00  0.00    -0.065 Cl
ENDBRANCH  16  18
ENDBRANCH  15  16
ENDBRANCH   1  15
TORSDOF 7
ENDMDL
MODEL 9
REMARK VINA RESULT:      -6.3      2.329      6.937
REMARK  7 active torsions:
REMARK  status: ('A' for Active; 'I' for Inactive)
REMARK    1  A    between atoms: C3_3  and  N1_5 
REMARK    2  A    between atoms: N1_5  and  C4_6 
REMARK    3  A    between atoms: C4_6  and  C5_7 
REMARK    4  A    between atoms: C7_9  and  O1_10 
REMARK    5  A    between atoms: O1_10  and  C8_11 
REMARK    6  A    between atoms: C8_11  and  C9_12 
REMARK    7  A    between atoms: C9_12  and  C10_13 
ROOT
HETATM    1  C5  UNL     1      26.932   4.841  48.939  1.00  0.00    -0.056 A 
HETATM    2  C6  UNL     1      26.655   3.701  49.466  1.00  0.00     0.041 A 
HETATM    3  C7  UNL     1      25.235   3.574  49.687  1.00  0.00     0.065 A 
HETATM    4  C15 UNL     1      24.634   4.678  49.297  1.00  0.00     0.014 A 
HETATM    5  C16 UNL     1      25.669   5.625  48.863  1.00  0.00     0.066 A 
ENDROOT
BRANCH   3   6
HETATM    6  O1  UNL     1      24.448   2.625  50.168  1.00  0.00    -0.351 OA
BRANCH   6   7
HETATM    7  C8  UNL     1      24.090   2.103  51.371  1.00  0.00     0.181 C 
BRANCH   7   8
HETATM    8  C9  UNL     1      25.033   2.566  52.499  1.00  0.00     0.086 C 
BRANCH   8   9
HETATM    9  C10 UNL     1      25.938   1.476  52.912  1.00  0.00     0.036 A 
HETATM   10  C11 UNL     1      26.216   0.477  52.012  1.00  0.00     0.027 A 
HETATM   11  C12 UNL     1      27.115  -0.381  52.549  1.00  0.00     0.003 A 
HETATM   12  C13 UNL     1      27.740  -0.453  53.731  1.00  0.00     0.019 A 
HETATM   13  C14 UNL     1      27.360   0.617  54.567  1.00  0.00     0.117 A 
HETATM   14  N2  UNL     1      26.474   1.599  54.193  1.00  0.00    -0.266 NA
ENDBRANCH   8   9
ENDBRANCH   7   8
ENDBRANCH   6   7
ENDBRANCH   3   6
BRANCH   1  15
HETATM   15  C4  UNL     1      28.162   5.489  48.506  1.00  0.00     0.155 C 
BRANCH  15  16
HETATM   16  N1  UNL     1      28.214   6.899  48.765  1.00  0.00    -0.377 N 
HETATM   17  H5  UNL     1      28.058   7.035  47.664  1.00  0.00     0.160 HD
BRANCH  16  18
HETATM   18  C3  UNL     1      28.268   8.373  49.047  1.00  0.00     0.095 C 
HETATM   19  C2  UNL     1      29.117   8.419  48.067  1.00  0.00     0.011 C 
HETATM   20  C1  UNL     1      28.608   9.517  47.251  1.00  0.00     0.039 C 
HETATM   21 CL1  UNL     1      26.996   8.574  50.202  1.00  0.00    -0.065 Cl
ENDBRANCH  16  18
ENDBRANCH  15  16
ENDBRANCH   1  15
TORSDOF 7
ENDMDL
