MODEL 1
REMARK VINA RESULT:      -8.8      0.000      0.000
REMARK  2 active torsions:
REMARK  status: ('A' for Active; 'I' for Inactive)
REMARK    1  A    between atoms: O1_1  and  C1_2 
REMARK    2  A    between atoms: N1_7  and  C6_8 
ROOT
HETATM    1  C6  UNL     1      24.371   0.075  54.017  1.00  0.00     0.142 A 
HETATM    2  N2  UNL     1      23.952  -1.004  54.739  1.00  0.00    -0.224 NA
HETATM    3  C7  UNL     1      22.642  -1.310  54.843  1.00  0.00     0.236 A 
HETATM    4  N3  UNL     1      21.711  -0.559  54.235  1.00  0.00    -0.241 NA
HETATM    5  C8  UNL     1      22.151   0.488  53.537  1.00  0.00     0.074 A 
HETATM    6  C9  UNL     1      21.184   1.263  52.916  1.00  0.00     0.070 A 
HETATM    7  C10 UNL     1      21.545   2.348  52.190  1.00  0.00     0.079 A 
HETATM    8  C11 UNL     1      22.865   2.771  52.005  1.00  0.00     0.011 A 
HETATM    9  C12 UNL     1      23.825   1.975  52.639  1.00  0.00     0.030 A 
HETATM   10  C13 UNL     1      23.459   0.889  53.367  1.00  0.00     0.039 A 
HETATM   11  C14 UNL     1      23.299   3.955  51.208  1.00  0.00     0.282 C 
HETATM   12  C15 UNL     1      24.756   4.046  51.018  1.00  0.00     0.208 C 
HETATM   13  O2  UNL     1      25.105   5.197  50.377  1.00  0.00    -0.387 OA
HETATM   14  C16 UNL     1      24.387   5.590  49.293  1.00  0.00     0.198 C 
HETATM   15  C17 UNL     1      22.909   5.306  49.382  1.00  0.00     0.299 C 
HETATM   16  N4  UNL     1      22.613   4.021  49.943  1.00  0.00     0.101 N 
HETATM   17  C18 UNL     1      22.920   3.004  49.025  1.00  0.00     0.275 C 
HETATM   18  C19 UNL     1      22.083   1.812  48.910  1.00  0.00     0.049 C 
HETATM   19  C20 UNL     1      20.721   1.884  48.334  1.00  0.00     0.115 C 
HETATM   20  N5  UNL     1      19.713   2.717  48.685  1.00  0.00    -0.419 N 
HETATM   21  C21 UNL     1      19.008   2.807  49.857  1.00  0.00     0.140 C 
HETATM   22  C22 UNL     1      19.662   3.537  50.967  1.00  0.00     0.195 C 
HETATM   23  O3  UNL     1      20.813   3.221  51.522  1.00  0.00    -0.349 OA
HETATM   24  H25 UNL     1      19.314   3.315  47.899  1.00  0.00     0.153 HD
ENDROOT
BRANCH   1  25
HETATM   25  N1  UNL     1      25.764   0.343  53.942  1.00  0.00    -0.335 N 
HETATM   26  C1  UNL     1      26.531  -0.497  53.043  1.00  0.00     0.225 C 
HETATM   27  C2  UNL     1      26.823   0.329  51.805  1.00  0.00     0.080 C 
HETATM   28  C3  UNL     1      27.456   1.607  52.281  1.00  0.00    -0.025 C 
HETATM   29  C4  UNL     1      27.408   2.077  53.524  1.00  0.00    -0.011 C 
HETATM   30  C5  UNL     1      26.672   1.308  54.587  1.00  0.00     0.154 C 
BRANCH  26  31
HETATM   31  O1  UNL     1      25.793  -1.620  52.619  1.00  0.00    -0.376 OA
HETATM   32  H1  UNL     1      25.373  -2.026  53.408  1.00  0.00     0.212 HD
ENDBRANCH  26  31
ENDBRANCH   1  25
TORSDOF 2
ENDMDL
MODEL 2
REMARK VINA RESULT:      -8.4      5.201      9.104
REMARK  2 active torsions:
REMARK  status: ('A' for Active; 'I' for Inactive)
REMARK    1  A    between atoms: O1_1  and  C1_2 
REMARK    2  A    between atoms: N1_7  and  C6_8 
ROOT
HETATM    1  C6  UNL     1      25.107   5.301  49.400  1.00  0.00     0.142 A 
HETATM    2  N2  UNL     1      25.184   4.075  49.991  1.00  0.00    -0.224 NA
HETATM    3  C7  UNL     1      26.332   3.365  49.983  1.00  0.00     0.236 A 
HETATM    4  N3  UNL     1      27.434   3.850  49.390  1.00  0.00    -0.241 NA
HETATM    5  C8  UNL     1      27.327   5.051  48.821  1.00  0.00     0.074 A 
HETATM    6  C9  UNL     1      28.468   5.543  48.206  1.00  0.00     0.070 A 
HETATM    7  C10 UNL     1      28.445   6.753  47.599  1.00  0.00     0.079 A 
HETATM    8  C11 UNL     1      27.322   7.585  47.539  1.00  0.00     0.011 A 
HETATM    9  C12 UNL     1      26.182   7.070  48.166  1.00  0.00     0.030 A 
HETATM   10  C13 UNL     1      26.209   5.856  48.771  1.00  0.00     0.039 A 
HETATM   11  C14 UNL     1      27.262   8.925  46.886  1.00  0.00     0.282 C 
HETATM   12  C15 UNL     1      26.015   9.663  47.149  1.00  0.00     0.208 C 
HETATM   13  O2  UNL     1      25.967  10.829  46.447  1.00  0.00    -0.387 OA
HETATM   14  C16 UNL     1      27.072  11.619  46.408  1.00  0.00     0.198 C 
HETATM   15  C17 UNL     1      28.379  10.870  46.356  1.00  0.00     0.299 C 
HETATM   16  N4  UNL     1      28.411   9.727  47.220  1.00  0.00     0.101 N 
HETATM   17  C18 UNL     1      28.508  10.131  48.561  1.00  0.00     0.275 C 
HETATM   18  C19 UNL     1      29.313   9.379  49.520  1.00  0.00     0.049 C 
HETATM   19  C20 UNL     1      30.791   9.372  49.443  1.00  0.00     0.115 C 
HETATM   20  N5  UNL     1      31.566   9.085  48.370  1.00  0.00    -0.419 N 
HETATM   21  C21 UNL     1      31.722   7.911  47.681  1.00  0.00     0.140 C 
HETATM   22  C22 UNL     1      30.670   7.580  46.693  1.00  0.00     0.195 C 
HETATM   23  O3  UNL     1      29.390   7.416  46.959  1.00  0.00    -0.349 OA
HETATM   24  H25 UNL     1      32.257   9.844  48.085  1.00  0.00     0.153 HD
ENDROOT
BRANCH   1  25
HETATM   25  N1  UNL     1      23.871   6.000  49.445  1.00  0.00    -0.335 N 
HETATM   26  C1  UNL     1      23.528   6.613  50.714  1.00  0.00     0.225 C 
HETATM   27  C2  UNL     1      23.781   8.102  50.571  1.00  0.00     0.080 C 
HETATM   28  C3  UNL     1      23.029   8.550  49.350  1.00  0.00    -0.025 C 
HETATM   29  C4  UNL     1      22.569   7.754  48.389  1.00  0.00    -0.011 C 
HETATM   30  C5  UNL     1      22.793   6.269  48.478  1.00  0.00     0.154 C 
BRANCH  26  31
HETATM   31  O1  UNL     1      24.358   6.156  51.757  1.00  0.00    -0.376 OA
HETATM   32  H1  UNL     1      24.027   6.534  52.600  1.00  0.00     0.212 HD
ENDBRANCH  26  31
ENDBRANCH   1  25
TORSDOF 2
ENDMDL
MODEL 3
REMARK VINA RESULT:      -8.0      8.260     12.247
REMARK  2 active torsions:
REMARK  status: ('A' for Active; 'I' for Inactive)
REMARK    1  A    between atoms: O1_1  and  C1_2 
REMARK    2  A    between atoms: N1_7  and  C6_8 
ROOT
HETATM    1  C6  UNL     1      28.430   9.599  48.605  1.00  0.00     0.142 A 
HETATM    2  N2  UNL     1      27.897  10.853  48.546  1.00  0.00    -0.224 NA
HETATM    3  C7  UNL     1      28.654  11.922  48.220  1.00  0.00     0.236 A 
HETATM    4  N3  UNL     1      29.959  11.779  47.944  1.00  0.00    -0.241 NA
HETATM    5  C8  UNL     1      30.452  10.542  48.008  1.00  0.00     0.074 A 
HETATM    6  C9  UNL     1      31.802  10.402  47.726  1.00  0.00     0.070 A 
HETATM    7  C10 UNL     1      32.383   9.180  47.774  1.00  0.00     0.079 A 
HETATM    8  C11 UNL     1      31.711   7.997  48.097  1.00  0.00     0.011 A 
HETATM    9  C12 UNL     1      30.350   8.160  48.378  1.00  0.00     0.030 A 
HETATM   10  C13 UNL     1      29.771   9.387  48.330  1.00  0.00     0.039 A 
HETATM   11  C14 UNL     1      32.317   6.635  48.153  1.00  0.00     0.282 C 
HETATM   12  C15 UNL     1      31.335   5.551  48.320  1.00  0.00     0.208 C 
HETATM   13  O2  UNL     1      31.947   4.343  48.471  1.00  0.00    -0.387 OA
HETATM   14  C16 UNL     1      32.981   4.022  47.651  1.00  0.00     0.198 C 
HETATM   15  C17 UNL     1      33.881   5.177  47.292  1.00  0.00     0.299 C 
HETATM   16  N4  UNL     1      33.164   6.387  47.014  1.00  0.00     0.101 N 
HETATM   17  C18 UNL     1      32.513   6.296  45.774  1.00  0.00     0.275 C 
HETATM   18  C19 UNL     1      32.416   7.451  44.885  1.00  0.00     0.049 C 
HETATM   19  C20 UNL     1      33.607   7.988  44.190  1.00  0.00     0.115 C 
HETATM   20  N5  UNL     1      34.796   8.342  44.733  1.00  0.00    -0.419 N 
HETATM   21  C21 UNL     1      35.103   9.346  45.614  1.00  0.00     0.140 C 
HETATM   22  C22 UNL     1      34.814   9.083  47.042  1.00  0.00     0.195 C 
HETATM   23  O3  UNL     1      33.631   8.809  47.550  1.00  0.00    -0.349 OA
HETATM   24  H25 UNL     1      35.652   7.853  44.327  1.00  0.00     0.153 HD
ENDROOT
BRANCH   1  25
HETATM   25  N1  UNL     1      27.581   8.515  48.950  1.00  0.00    -0.335 N 
HETATM   26  C1  UNL     1      26.940   8.593  50.249  1.00  0.00     0.225 C 
HETATM   27  C2  UNL     1      25.494   8.983  50.007  1.00  0.00     0.080 C 
HETATM   28  C3  UNL     1      24.945   8.000  49.011  1.00  0.00    -0.025 C 
HETATM   29  C4  UNL     1      25.669   7.211  48.223  1.00  0.00    -0.011 C 
HETATM   30  C5  UNL     1      27.171   7.264  48.289  1.00  0.00     0.154 C 
BRANCH  26  31
HETATM   31  O1  UNL     1      27.505   9.602  51.052  1.00  0.00    -0.376 OA
HETATM   32  H1  UNL     1      27.519  10.435  50.532  1.00  0.00     0.212 HD
ENDBRANCH  26  31
ENDBRANCH   1  25
TORSDOF 2
ENDMDL
MODEL 4
REMARK VINA RESULT:      -7.9      3.546      7.080
REMARK  2 active torsions:
REMARK  status: ('A' for Active; 'I' for Inactive)
REMARK    1  A    between atoms: O1_1  and  C1_2 
REMARK    2  A    between atoms: N1_7  and  C6_8 
ROOT
HETATM    1  C6  UNL     1      24.195   3.355  50.684  1.00  0.00     0.142 A 
HETATM    2  N2  UNL     1      24.759   2.314  51.361  1.00  0.00    -0.224 NA
HETATM    3  C7  UNL     1      26.091   2.099  51.330  1.00  0.00     0.236 A 
HETATM    4  N3  UNL     1      26.901   2.907  50.629  1.00  0.00    -0.241 NA
HETATM    5  C8  UNL     1      26.321   3.916  49.979  1.00  0.00     0.074 A 
HETATM    6  C9  UNL     1      27.163   4.744  49.253  1.00  0.00     0.070 A 
HETATM    7  C10 UNL     1      26.654   5.789  48.558  1.00  0.00     0.079 A 
HETATM    8  C11 UNL     1      25.296   6.120  48.509  1.00  0.00     0.011 A 
HETATM    9  C12 UNL     1      24.464   5.272  49.249  1.00  0.00     0.030 A 
HETATM   10  C13 UNL     1      24.977   4.224  49.942  1.00  0.00     0.039 A 
HETATM   11  C14 UNL     1      24.702   7.267  47.761  1.00  0.00     0.282 C 
HETATM   12  C15 UNL     1      23.277   7.494  48.051  1.00  0.00     0.208 C 
HETATM   13  O2  UNL     1      22.760   8.481  47.266  1.00  0.00    -0.387 OA
HETATM   14  C16 UNL     1      23.472   9.625  47.092  1.00  0.00     0.198 C 
HETATM   15  C17 UNL     1      24.965   9.429  47.010  1.00  0.00     0.299 C 
HETATM   16  N4  UNL     1      25.463   8.474  47.956  1.00  0.00     0.101 N 
HETATM   17  C18 UNL     1      25.440   9.012  49.252  1.00  0.00     0.275 C 
HETATM   18  C19 UNL     1      26.504   8.720  50.210  1.00  0.00     0.049 C 
HETATM   19  C20 UNL     1      27.867   9.270  50.035  1.00  0.00     0.115 C 
HETATM   20  N5  UNL     1      28.657   9.198  48.937  1.00  0.00    -0.419 N 
HETATM   21  C21 UNL     1      29.232   8.111  48.330  1.00  0.00     0.140 C 
HETATM   22  C22 UNL     1      28.357   7.310  47.444  1.00  0.00     0.195 C 
HETATM   23  O3  UNL     1      27.250   6.698  47.806  1.00  0.00    -0.349 OA
HETATM   24  H25 UNL     1      28.993  10.131  48.549  1.00  0.00     0.153 HD
ENDROOT
BRANCH   1  25
HETATM   25  N1  UNL     1      22.788   3.531  50.758  1.00  0.00    -0.335 N 
HETATM   26  C1  UNL     1      22.287   4.186  51.951  1.00  0.00     0.225 C 
HETATM   27  C2  UNL     1      21.931   5.609  51.560  1.00  0.00     0.080 C 
HETATM   28  C3  UNL     1      21.012   5.510  50.374  1.00  0.00    -0.025 C 
HETATM   29  C4  UNL     1      20.861   4.441  49.599  1.00  0.00    -0.011 C 
HETATM   30  C5  UNL     1      21.650   3.193  49.885  1.00  0.00     0.154 C 
BRANCH  26  31
HETATM   31  O1  UNL     1      23.273   4.274  52.953  1.00  0.00    -0.376 OA
HETATM   32  H1  UNL     1      23.440   5.224  53.135  1.00  0.00     0.212 HD
ENDBRANCH  26  31
ENDBRANCH   1  25
TORSDOF 2
ENDMDL
MODEL 5
REMARK VINA RESULT:      -7.7      7.872     11.580
REMARK  2 active torsions:
REMARK  status: ('A' for Active; 'I' for Inactive)
REMARK    1  A    between atoms: O1_1  and  C1_2 
REMARK    2  A    between atoms: N1_7  and  C6_8 
ROOT
HETATM    1  C6  UNL     1      27.595   7.299  48.284  1.00  0.00     0.142 A 
HETATM    2  N2  UNL     1      26.855   6.347  48.922  1.00  0.00    -0.224 NA
HETATM    3  C7  UNL     1      27.306   5.082  49.052  1.00  0.00     0.236 A 
HETATM    4  N3  UNL     1      28.501   4.725  48.556  1.00  0.00    -0.241 NA
HETATM    5  C8  UNL     1      29.200   5.677  47.940  1.00  0.00     0.074 A 
HETATM    6  C9  UNL     1      30.431   5.300  47.425  1.00  0.00     0.070 A 
HETATM    7  C10 UNL     1      31.204   6.205  46.779  1.00  0.00     0.079 A 
HETATM    8  C11 UNL     1      30.852   7.544  46.578  1.00  0.00     0.011 A 
HETATM    9  C12 UNL     1      29.607   7.903  47.105  1.00  0.00     0.030 A 
HETATM   10  C13 UNL     1      28.835   6.993  47.751  1.00  0.00     0.039 A 
HETATM   11  C14 UNL     1      31.680   8.569  45.878  1.00  0.00     0.282 C 
HETATM   12  C15 UNL     1      31.155   9.939  45.990  1.00  0.00     0.208 C 
HETATM   13  O2  UNL     1      31.887  10.817  45.248  1.00  0.00    -0.387 OA
HETATM   14  C16 UNL     1      33.243  10.746  45.292  1.00  0.00     0.198 C 
HETATM   15  C17 UNL     1      33.795   9.347  45.396  1.00  0.00     0.299 C 
HETATM   16  N4  UNL     1      33.057   8.512  46.298  1.00  0.00     0.101 N 
HETATM   17  C18 UNL     1      33.309   8.886  47.627  1.00  0.00     0.275 C 
HETATM   18  C19 UNL     1      33.411   7.886  48.687  1.00  0.00     0.049 C 
HETATM   19  C20 UNL     1      34.562   6.958  48.758  1.00  0.00     0.115 C 
HETATM   20  N5  UNL     1      35.047   6.160  47.778  1.00  0.00    -0.419 N 
HETATM   21  C21 UNL     1      34.475   5.086  47.148  1.00  0.00     0.140 C 
HETATM   22  C22 UNL     1      33.505   5.391  46.072  1.00  0.00     0.195 C 
HETATM   23  O3  UNL     1      32.391   6.079  46.214  1.00  0.00    -0.349 OA
HETATM   24  H25 UNL     1      36.076   6.298  47.538  1.00  0.00     0.153 HD
ENDROOT
BRANCH   1  25
HETATM   25  N1  UNL     1      27.067   8.614  48.182  1.00  0.00    -0.335 N 
HETATM   26  C1  UNL     1      27.046   9.392  49.406  1.00  0.00     0.225 C 
HETATM   27  C2  UNL     1      28.184  10.391  49.316  1.00  0.00     0.080 C 
HETATM   28  C3  UNL     1      28.009  11.124  48.015  1.00  0.00    -0.025 C 
HETATM   29  C4  UNL     1      27.261  10.719  46.993  1.00  0.00    -0.011 C 
HETATM   30  C5  UNL     1      26.501   9.425  47.090  1.00  0.00     0.154 C 
BRANCH  26  31
HETATM   31  O1  UNL     1      27.294   8.593  50.539  1.00  0.00    -0.376 OA
HETATM   32  H1  UNL     1      26.665   7.839  50.526  1.00  0.00     0.212 HD
ENDBRANCH  26  31
ENDBRANCH   1  25
TORSDOF 2
ENDMDL
MODEL 6
REMARK VINA RESULT:      -7.5      4.182      7.475
REMARK  2 active torsions:
REMARK  status: ('A' for Active; 'I' for Inactive)
REMARK    1  A    between atoms: O1_1  and  C1_2 
REMARK    2  A    between atoms: N1_7  and  C6_8 
ROOT
HETATM    1  C6  UNL     1      27.428   7.404  48.381  1.00  0.00     0.142 A 
HETATM    2  N2  UNL     1      28.664   6.910  48.087  1.00  0.00    -0.224 NA
HETATM    3  C7  UNL     1      28.939   5.594  48.208  1.00  0.00     0.236 A 
HETATM    4  N3  UNL     1      27.998   4.732  48.622  1.00  0.00    -0.241 NA
HETATM    5  C8  UNL     1      26.799   5.244  48.901  1.00  0.00     0.074 A 
HETATM    6  C9  UNL     1      25.833   4.349  49.333  1.00  0.00     0.070 A 
HETATM    7  C10 UNL     1      24.590   4.787  49.642  1.00  0.00     0.079 A 
HETATM    8  C11 UNL     1      24.179   6.121  49.560  1.00  0.00     0.011 A 
HETATM    9  C12 UNL     1      25.169   7.008  49.121  1.00  0.00     0.030 A 
HETATM   10  C13 UNL     1      26.414   6.565  48.813  1.00  0.00     0.039 A 
HETATM   11  C14 UNL     1      22.818   6.638  49.886  1.00  0.00     0.282 C 
HETATM   12  C15 UNL     1      22.610   8.048  49.515  1.00  0.00     0.208 C 
HETATM   13  O2  UNL     1      21.392   8.498  49.929  1.00  0.00    -0.387 OA
HETATM   14  C16 UNL     1      20.300   7.714  49.734  1.00  0.00     0.198 C 
HETATM   15  C17 UNL     1      20.549   6.237  49.899  1.00  0.00     0.299 C 
HETATM   16  N4  UNL     1      21.788   5.804  49.323  1.00  0.00     0.101 N 
HETATM   17  C18 UNL     1      21.699   5.798  47.922  1.00  0.00     0.275 C 
HETATM   18  C19 UNL     1      22.351   4.760  47.128  1.00  0.00     0.049 C 
HETATM   19  C20 UNL     1      21.858   3.364  47.137  1.00  0.00     0.115 C 
HETATM   20  N5  UNL     1      21.618   2.575  48.212  1.00  0.00    -0.419 N 
HETATM   21  C21 UNL     1      22.482   2.067  49.147  1.00  0.00     0.140 C 
HETATM   22  C22 UNL     1      22.897   2.986  50.231  1.00  0.00     0.195 C 
HETATM   23  O3  UNL     1      23.525   4.132  50.069  1.00  0.00    -0.349 OA
HETATM   24  H25 UNL     1      20.631   2.180  48.281  1.00  0.00     0.153 HD
ENDROOT
BRANCH   1  25
HETATM   25  N1  UNL     1      27.200   8.798  48.231  1.00  0.00    -0.335 N 
HETATM   26  C1  UNL     1      27.717   9.648  49.285  1.00  0.00     0.225 C 
HETATM   27  C2  UNL     1      28.970  10.313  48.745  1.00  0.00     0.080 C 
HETATM   28  C3  UNL     1      28.584  10.962  47.445  1.00  0.00    -0.025 C 
HETATM   29  C4  UNL     1      27.495  10.684  46.735  1.00  0.00    -0.011 C 
HETATM   30  C5  UNL     1      26.530   9.639  47.223  1.00  0.00     0.154 C 
BRANCH  26  31
HETATM   31  O1  UNL     1      28.107   8.902  50.415  1.00  0.00    -0.376 OA
HETATM   32  H1  UNL     1      28.688   9.468  50.970  1.00  0.00     0.212 HD
ENDBRANCH  26  31
ENDBRANCH   1  25
TORSDOF 2
ENDMDL
MODEL 7
REMARK VINA RESULT:      -7.5      7.988     10.658
REMARK  2 active torsions:
REMARK  status: ('A' for Active; 'I' for Inactive)
REMARK    1  A    between atoms: O1_1  and  C1_2 
REMARK    2  A    between atoms: N1_7  and  C6_8 
ROOT
HETATM    1  C6  UNL     1      32.857   6.055  47.202  1.00  0.00     0.142 A 
HETATM    2  N2  UNL     1      33.116   4.758  46.868  1.00  0.00    -0.224 NA
HETATM    3  C7  UNL     1      32.163   3.807  46.964  1.00  0.00     0.236 A 
HETATM    4  N3  UNL     1      30.930   4.113  47.394  1.00  0.00    -0.241 NA
HETATM    5  C8  UNL     1      30.707   5.389  47.713  1.00  0.00     0.074 A 
HETATM    6  C9  UNL     1      29.432   5.696  48.161  1.00  0.00     0.070 A 
HETATM    7  C10 UNL     1      29.123   6.968  48.511  1.00  0.00     0.079 A 
HETATM    8  C11 UNL     1      30.017   8.042  48.456  1.00  0.00     0.011 A 
HETATM    9  C12 UNL     1      31.298   7.709  48.001  1.00  0.00     0.030 A 
HETATM   10  C13 UNL     1      31.604   6.434  47.653  1.00  0.00     0.039 A 
HETATM   11  C14 UNL     1      29.710   9.454  48.827  1.00  0.00     0.282 C 
HETATM   12  C15 UNL     1      30.777  10.408  48.480  1.00  0.00     0.208 C 
HETATM   13  O2  UNL     1      30.492  11.661  48.933  1.00  0.00    -0.387 OA
HETATM   14  C16 UNL     1      29.239  12.155  48.759  1.00  0.00     0.198 C 
HETATM   15  C17 UNL     1      28.137  11.136  48.899  1.00  0.00     0.299 C 
HETATM   16  N4  UNL     1      28.446   9.880  48.283  1.00  0.00     0.101 N 
HETATM   17  C18 UNL     1      28.387   9.993  46.885  1.00  0.00     0.275 C 
HETATM   18  C19 UNL     1      27.867   8.905  46.061  1.00  0.00     0.049 C 
HETATM   19  C20 UNL     1      26.428   8.557  46.066  1.00  0.00     0.115 C 
HETATM   20  N5  UNL     1      25.641   8.296  47.137  1.00  0.00    -0.419 N 
HETATM   21  C21 UNL     1      25.691   7.267  48.042  1.00  0.00     0.140 C 
HETATM   22  C22 UNL     1      26.694   7.387  49.125  1.00  0.00     0.195 C 
HETATM   23  O3  UNL     1      27.996   7.490  48.959  1.00  0.00    -0.349 OA
HETATM   24  H25 UNL     1      24.772   8.905  47.230  1.00  0.00     0.153 HD
ENDROOT
BRANCH   1  25
HETATM   25  N1  UNL     1      33.901   7.010  47.076  1.00  0.00    -0.335 N 
HETATM   26  C1  UNL     1      34.168   7.492  45.735  1.00  0.00     0.225 C 
HETATM   27  C2  UNL     1      33.573   8.885  45.637  1.00  0.00     0.080 C 
HETATM   28  C3  UNL     1      34.132   9.671  46.789  1.00  0.00    -0.025 C 
HETATM   29  C4  UNL     1      34.704   9.156  47.873  1.00  0.00    -0.011 C 
HETATM   30  C5  UNL     1      34.831   7.664  48.013  1.00  0.00     0.154 C 
BRANCH  26  31
HETATM   31  O1  UNL     1      33.527   6.706  44.758  1.00  0.00    -0.376 OA
HETATM   32  H1  UNL     1      32.751   6.272  45.176  1.00  0.00     0.212 HD
ENDBRANCH  26  31
ENDBRANCH   1  25
TORSDOF 2
ENDMDL
MODEL 8
REMARK VINA RESULT:      -7.5      1.898      4.858
REMARK  2 active torsions:
REMARK  status: ('A' for Active; 'I' for Inactive)
REMARK    1  A    between atoms: O1_1  and  C1_2 
REMARK    2  A    between atoms: N1_7  and  C6_8 
ROOT
HETATM    1  C6  UNL     1      24.209   0.945  53.023  1.00  0.00     0.142 A 
HETATM    2  N2  UNL     1      25.066   0.522  53.996  1.00  0.00    -0.224 NA
HETATM    3  C7  UNL     1      26.353   0.928  54.020  1.00  0.00     0.236 A 
HETATM    4  N3  UNL     1      26.826   1.763  53.083  1.00  0.00    -0.241 NA
HETATM    5  C8  UNL     1      25.964   2.160  52.146  1.00  0.00     0.074 A 
HETATM    6  C9  UNL     1      26.461   3.019  51.178  1.00  0.00     0.070 A 
HETATM    7  C10 UNL     1      25.654   3.465  50.186  1.00  0.00     0.079 A 
HETATM    8  C11 UNL     1      24.306   3.121  50.050  1.00  0.00     0.011 A 
HETATM    9  C12 UNL     1      23.824   2.254  51.037  1.00  0.00     0.030 A 
HETATM   10  C13 UNL     1      24.637   1.807  52.028  1.00  0.00     0.039 A 
HETATM   11  C14 UNL     1      23.386   3.598  48.976  1.00  0.00     0.282 C 
HETATM   12  C15 UNL     1      21.976   3.237  49.193  1.00  0.00     0.208 C 
HETATM   13  O2  UNL     1      21.198   3.604  48.136  1.00  0.00    -0.387 OA
HETATM   14  C16 UNL     1      21.370   4.835  47.588  1.00  0.00     0.198 C 
HETATM   15  C17 UNL     1      22.799   5.315  47.555  1.00  0.00     0.299 C 
HETATM   16  N4  UNL     1      23.524   5.015  48.754  1.00  0.00     0.101 N 
HETATM   17  C18 UNL     1      23.098   5.844  49.804  1.00  0.00     0.275 C 
HETATM   18  C19 UNL     1      24.044   6.359  50.790  1.00  0.00     0.049 C 
HETATM   19  C20 UNL     1      25.051   7.382  50.427  1.00  0.00     0.115 C 
HETATM   20  N5  UNL     1      25.937   7.348  49.403  1.00  0.00    -0.419 N 
HETATM   21  C21 UNL     1      26.997   6.510  49.178  1.00  0.00     0.140 C 
HETATM   22  C22 UNL     1      26.678   5.178  48.614  1.00  0.00     0.195 C 
HETATM   23  O3  UNL     1      25.900   4.273  49.171  1.00  0.00    -0.349 OA
HETATM   24  H25 UNL     1      25.890   8.170  48.727  1.00  0.00     0.153 HD
ENDROOT
BRANCH   1  25
HETATM   25  N1  UNL     1      22.865   0.485  53.054  1.00  0.00    -0.335 N 
HETATM   26  C1  UNL     1      22.681  -0.954  53.035  1.00  0.00     0.225 C 
HETATM   27  C2  UNL     1      22.320  -1.374  54.448  1.00  0.00     0.080 C 
HETATM   28  C3  UNL     1      21.154  -0.523  54.864  1.00  0.00    -0.025 C 
HETATM   29  C4  UNL     1      20.776   0.611  54.280  1.00  0.00    -0.011 C 
HETATM   30  C5  UNL     1      21.544   1.136  53.098  1.00  0.00     0.154 C 
BRANCH  26  31
HETATM   31  O1  UNL     1      23.871  -1.629  52.700  1.00  0.00    -0.376 OA
HETATM   32  H1  UNL     1      24.242  -2.020  53.521  1.00  0.00     0.212 HD
ENDBRANCH  26  31
ENDBRANCH   1  25
TORSDOF 2
ENDMDL
MODEL 9
REMARK VINA RESULT:      -7.1      3.029      6.798
REMARK  2 active torsions:
REMARK  status: ('A' for Active; 'I' for Inactive)
REMARK    1  A    between atoms: O1_1  and  C1_2 
REMARK    2  A    between atoms: N1_7  and  C6_8 
ROOT
HETATM    1  C6  UNL     1      17.432  -0.263  51.441  1.00  0.00     0.142 A 
HETATM    2  N2  UNL     1      17.108  -1.043  52.512  1.00  0.00    -0.224 NA
HETATM    3  C7  UNL     1      18.032  -1.386  53.433  1.00  0.00     0.236 A 
HETATM    4  N3  UNL     1      19.302  -0.967  53.320  1.00  0.00    -0.241 NA
HETATM    5  C8  UNL     1      19.588  -0.206  52.264  1.00  0.00     0.074 A 
HETATM    6  C9  UNL     1      20.902   0.220  52.150  1.00  0.00     0.070 A 
HETATM    7  C10 UNL     1      21.279   0.992  51.104  1.00  0.00     0.079 A 
HETATM    8  C11 UNL     1      20.420   1.416  50.085  1.00  0.00     0.011 A 
HETATM    9  C12 UNL     1      19.098   0.976  50.219  1.00  0.00     0.030 A 
HETATM   10  C13 UNL     1      18.725   0.201  51.268  1.00  0.00     0.039 A 
HETATM   11  C14 UNL     1      20.798   2.271  48.923  1.00  0.00     0.282 C 
HETATM   12  C15 UNL     1      19.651   2.728  48.119  1.00  0.00     0.208 C 
HETATM   13  O2  UNL     1      20.058   3.414  47.015  1.00  0.00    -0.387 OA
HETATM   14  C16 UNL     1      21.041   4.343  47.142  1.00  0.00     0.198 C 
HETATM   15  C17 UNL     1      22.120   3.985  48.132  1.00  0.00     0.299 C 
HETATM   16  N4  UNL     1      21.613   3.387  49.331  1.00  0.00     0.101 N 
HETATM   17  C18 UNL     1      20.977   4.353  50.127  1.00  0.00     0.275 C 
HETATM   18  C19 UNL     1      21.081   4.319  51.583  1.00  0.00     0.049 C 
HETATM   19  C20 UNL     1      22.355   4.632  52.269  1.00  0.00     0.115 C 
HETATM   20  N5  UNL     1      23.576   4.094  52.039  1.00  0.00    -0.419 N 
HETATM   21  C21 UNL     1      24.026   2.811  52.216  1.00  0.00     0.140 C 
HETATM   22  C22 UNL     1      23.675   1.836  51.158  1.00  0.00     0.195 C 
HETATM   23  O3  UNL     1      22.454   1.507  50.790  1.00  0.00    -0.349 OA
HETATM   24  H25 UNL     1      24.348   4.788  51.802  1.00  0.00     0.153 HD
ENDROOT
BRANCH   1  25
HETATM   25  N1  UNL     1      16.413   0.066  50.507  1.00  0.00    -0.335 N 
HETATM   26  C1  UNL     1      15.421   1.025  50.954  1.00  0.00     0.225 C 
HETATM   27  C2  UNL     1      15.751   2.348  50.288  1.00  0.00     0.080 C 
HETATM   28  C3  UNL     1      15.847   2.073  48.813  1.00  0.00    -0.025 C 
HETATM   29  C4  UNL     1      16.001   0.875  48.258  1.00  0.00    -0.011 C 
HETATM   30  C5  UNL     1      16.092  -0.347  49.130  1.00  0.00     0.154 C 
BRANCH  26  31
HETATM   31  O1  UNL     1      15.491   1.241  52.345  1.00  0.00    -0.376 OA
HETATM   32  H1  UNL     1      15.150   0.439  52.796  1.00  0.00     0.212 HD
ENDBRANCH  26  31
ENDBRANCH   1  25
TORSDOF 2
ENDMDL
