MODEL 1
REMARK VINA RESULT:      -6.5      0.000      0.000
REMARK  6 active torsions:
REMARK  status: ('A' for Active; 'I' for Inactive)
REMARK    1  A    between atoms: C3_3  and  N1_4 
REMARK    2  A    between atoms: N1_4  and  C4_5 
REMARK    3  A    between atoms: C7_10  and  O1_11 
REMARK    4  A    between atoms: C9_13  and  C10_14 
REMARK    5  A    between atoms: C10_14  and  O2_15 
REMARK    6  A    between atoms: C12_17  and  O3_18 
ROOT
HETATM    1  C4  UNL     1      25.873   0.267  54.572  1.00  0.00     0.141 A 
HETATM    2  N2  UNL     1      25.484  -0.770  55.315  1.00  0.00    -0.224 NA
HETATM    3  C5  UNL     1      24.248  -1.307  55.107  1.00  0.00     0.236 A 
HETATM    4  N3  UNL     1      23.412  -0.817  54.176  1.00  0.00    -0.238 NA
HETATM    5  C6  UNL     1      23.809   0.243  53.417  1.00  0.00     0.106 A 
HETATM    6  C7  UNL     1      22.980   0.795  52.431  1.00  0.00     0.109 A 
HETATM    7  C9  UNL     1      23.364   1.862  51.656  1.00  0.00     0.034 A 
HETATM    8  C12 UNL     1      24.628   2.436  51.842  1.00  0.00     0.080 A 
HETATM    9  C14 UNL     1      25.424   1.878  52.817  1.00  0.00     0.055 A 
HETATM   10  C15 UNL     1      25.064   0.814  53.602  1.00  0.00     0.044 A 
ENDROOT
BRANCH   1  11
HETATM   11  N1  UNL     1      27.157   0.818  54.795  1.00  0.00    -0.350 N 
HETATM   12  H6  UNL     1      27.487   1.734  55.153  1.00  0.00     0.166 HD
BRANCH  11  13
HETATM   13  C3  UNL     1      28.454   0.319  54.613  1.00  0.00     0.085 C 
HETATM   14  C2  UNL     1      28.819  -0.645  53.815  1.00  0.00    -0.014 C 
HETATM   15  C1  UNL     1      30.182  -1.194  53.600  1.00  0.00     0.037 C 
ENDBRANCH  11  13
ENDBRANCH   1  11
BRANCH   6  16
HETATM   16  O1  UNL     1      21.762   0.167  52.322  1.00  0.00    -0.353 OA
HETATM   17  C8  UNL     1      20.664   0.722  53.025  1.00  0.00     0.210 C 
ENDBRANCH   6  16
BRANCH   8  18
HETATM   18  O3  UNL     1      24.966   3.510  51.036  1.00  0.00    -0.355 OA
HETATM   19  C13 UNL     1      26.021   3.481  50.119  1.00  0.00     0.210 C 
ENDBRANCH   8  18
BRANCH   7  20
HETATM   20  C10 UNL     1      22.472   2.419  50.610  1.00  0.00     0.211 C 
BRANCH  20  21
HETATM   21  O2  UNL     1      22.637   1.671  49.421  1.00  0.00    -0.391 OA
HETATM   22  C11 UNL     1      21.428   1.172  48.977  1.00  0.00     0.201 C 
ENDBRANCH  20  21
ENDBRANCH   7  20
TORSDOF 6
ENDMDL
MODEL 2
REMARK VINA RESULT:      -6.3      1.643      3.620
REMARK  6 active torsions:
REMARK  status: ('A' for Active; 'I' for Inactive)
REMARK    1  A    between atoms: C3_3  and  N1_4 
REMARK    2  A    between atoms: N1_4  and  C4_5 
REMARK    3  A    between atoms: C7_10  and  O1_11 
REMARK    4  A    between atoms: C9_13  and  C10_14 
REMARK    5  A    between atoms: C10_14  and  O2_15 
REMARK    6  A    between atoms: C12_17  and  O3_18 
ROOT
HETATM    1  C4  UNL     1      26.614   1.688  52.992  1.00  0.00     0.141 A 
HETATM    2  N2  UNL     1      27.294   2.449  52.133  1.00  0.00    -0.224 NA
HETATM    3  C5  UNL     1      26.674   2.884  50.999  1.00  0.00     0.236 A 
HETATM    4  N3  UNL     1      25.397   2.565  50.724  1.00  0.00    -0.238 NA
HETATM    5  C6  UNL     1      24.702   1.788  51.602  1.00  0.00     0.106 A 
HETATM    6  C7  UNL     1      23.369   1.424  51.369  1.00  0.00     0.109 A 
HETATM    7  C9  UNL     1      22.653   0.643  52.243  1.00  0.00     0.034 A 
HETATM    8  C12 UNL     1      23.259   0.181  53.417  1.00  0.00     0.080 A 
HETATM    9  C14 UNL     1      24.569   0.549  53.625  1.00  0.00     0.055 A 
HETATM   10  C15 UNL     1      25.304   1.328  52.769  1.00  0.00     0.044 A 
ENDROOT
BRANCH   1  11
HETATM   11  N1  UNL     1      27.266   1.241  54.165  1.00  0.00    -0.350 N 
HETATM   12  H6  UNL     1      27.221   1.530  55.159  1.00  0.00     0.166 HD
BRANCH  11  13
HETATM   13  C3  UNL     1      28.214   0.235  54.405  1.00  0.00     0.085 C 
HETATM   14  C2  UNL     1      29.030  -0.297  53.539  1.00  0.00    -0.014 C 
HETATM   15  C1  UNL     1      30.041  -1.360  53.763  1.00  0.00     0.037 C 
ENDBRANCH  11  13
ENDBRANCH   1  11
BRANCH   6  16
HETATM   16  O1  UNL     1      22.861   1.924  50.193  1.00  0.00    -0.353 OA
HETATM   17  C8  UNL     1      22.283   3.218  50.218  1.00  0.00     0.210 C 
ENDBRANCH   6  16
BRANCH   8  18
HETATM   18  O3  UNL     1      22.494  -0.604  54.264  1.00  0.00    -0.355 OA
HETATM   19  C13 UNL     1      23.032  -1.341  55.324  1.00  0.00     0.210 C 
ENDBRANCH   8  18
BRANCH   7  20
HETATM   20  C10 UNL     1      21.238   0.284  51.979  1.00  0.00     0.211 C 
BRANCH  20  21
HETATM   21  O2  UNL     1      20.403   1.307  52.485  1.00  0.00    -0.391 OA
HETATM   22  C11 UNL     1      19.214   1.368  51.785  1.00  0.00     0.201 C 
ENDBRANCH  20  21
ENDBRANCH   7  20
TORSDOF 6
ENDMDL
MODEL 3
REMARK VINA RESULT:      -6.2      1.599      2.169
REMARK  6 active torsions:
REMARK  status: ('A' for Active; 'I' for Inactive)
REMARK    1  A    between atoms: C3_3  and  N1_4 
REMARK    2  A    between atoms: N1_4  and  C4_5 
REMARK    3  A    between atoms: C7_10  and  O1_11 
REMARK    4  A    between atoms: C9_13  and  C10_14 
REMARK    5  A    between atoms: C10_14  and  O2_15 
REMARK    6  A    between atoms: C12_17  and  O3_18 
ROOT
HETATM    1  C4  UNL     1      25.259  -0.217  53.775  1.00  0.00     0.141 A 
HETATM    2  N2  UNL     1      25.360  -0.994  54.855  1.00  0.00    -0.224 NA
HETATM    3  C5  UNL     1      24.223  -1.368  55.509  1.00  0.00     0.236 A 
HETATM    4  N3  UNL     1      23.007  -0.974  55.097  1.00  0.00    -0.238 NA
HETATM    5  C6  UNL     1      22.904  -0.179  53.994  1.00  0.00     0.106 A 
HETATM    6  C7  UNL     1      21.662   0.263  53.518  1.00  0.00     0.109 A 
HETATM    7  C9  UNL     1      21.540   1.062  52.407  1.00  0.00     0.034 A 
HETATM    8  C12 UNL     1      22.686   1.463  51.711  1.00  0.00     0.080 A 
HETATM    9  C14 UNL     1      23.894   1.019  52.198  1.00  0.00     0.055 A 
HETATM   10  C15 UNL     1      24.043   0.220  53.302  1.00  0.00     0.044 A 
ENDROOT
BRANCH   1  11
HETATM   11  N1  UNL     1      26.443   0.167  53.103  1.00  0.00    -0.350 N 
HETATM   12  H6  UNL     1      26.629   0.616  52.187  1.00  0.00     0.166 HD
BRANCH  11  13
HETATM   13  C3  UNL     1      27.802   0.079  53.439  1.00  0.00     0.085 C 
HETATM   14  C2  UNL     1      28.576  -0.962  53.312  1.00  0.00    -0.014 C 
HETATM   15  C1  UNL     1      30.014  -1.085  53.658  1.00  0.00     0.037 C 
ENDBRANCH  11  13
ENDBRANCH   1  11
BRANCH   6  16
HETATM   16  O1  UNL     1      20.597  -0.181  54.265  1.00  0.00    -0.353 OA
HETATM   17  C8  UNL     1      19.908  -1.335  53.816  1.00  0.00     0.210 C 
ENDBRANCH   6  16
BRANCH   8  18
HETATM   18  O3  UNL     1      22.508   2.270  50.599  1.00  0.00    -0.355 OA
HETATM   19  C13 UNL     1      23.022   3.566  50.499  1.00  0.00     0.210 C 
ENDBRANCH   8  18
BRANCH   7  20
HETATM   20  C10 UNL     1      20.212   1.505  51.916  1.00  0.00     0.211 C 
BRANCH  20  21
HETATM   21  O2  UNL     1      19.863   2.713  52.561  1.00  0.00    -0.391 OA
HETATM   22  C11 UNL     1      19.439   3.658  51.648  1.00  0.00     0.201 C 
ENDBRANCH  20  21
ENDBRANCH   7  20
TORSDOF 6
ENDMDL
MODEL 4
REMARK VINA RESULT:      -6.1      2.346      5.469
REMARK  6 active torsions:
REMARK  status: ('A' for Active; 'I' for Inactive)
REMARK    1  A    between atoms: C3_3  and  N1_4 
REMARK    2  A    between atoms: N1_4  and  C4_5 
REMARK    3  A    between atoms: C7_10  and  O1_11 
REMARK    4  A    between atoms: C9_13  and  C10_14 
REMARK    5  A    between atoms: C10_14  and  O2_15 
REMARK    6  A    between atoms: C12_17  and  O3_18 
ROOT
HETATM    1  C4  UNL     1      22.006   0.647  52.479  1.00  0.00     0.141 A 
HETATM    2  N2  UNL     1      21.038   0.036  53.163  1.00  0.00    -0.224 NA
HETATM    3  C5  UNL     1      21.376  -0.791  54.193  1.00  0.00     0.236 A 
HETATM    4  N3  UNL     1      22.658  -1.008  54.534  1.00  0.00    -0.238 NA
HETATM    5  C6  UNL     1      23.647  -0.384  53.834  1.00  0.00     0.106 A 
HETATM    6  C7  UNL     1      25.001  -0.573  54.145  1.00  0.00     0.109 A 
HETATM    7  C9  UNL     1      26.011   0.049  53.452  1.00  0.00     0.034 A 
HETATM    8  C12 UNL     1      25.698   0.906  52.390  1.00  0.00     0.080 A 
HETATM    9  C14 UNL     1      24.363   1.074  52.101  1.00  0.00     0.055 A 
HETATM   10  C15 UNL     1      23.337   0.466  52.779  1.00  0.00     0.044 A 
ENDROOT
BRANCH   1  11
HETATM   11  N1  UNL     1      21.646   1.502  51.411  1.00  0.00    -0.350 N 
HETATM   12  H6  UNL     1      21.270   2.468  51.368  1.00  0.00     0.166 HD
BRANCH  11  13
HETATM   13  C3  UNL     1      21.670   1.351  50.017  1.00  0.00     0.085 C 
HETATM   14  C2  UNL     1      22.330   2.077  49.159  1.00  0.00    -0.014 C 
HETATM   15  C1  UNL     1      22.374   1.941  47.682  1.00  0.00     0.037 C 
ENDBRANCH  11  13
ENDBRANCH   1  11
BRANCH   6  16
HETATM   16  O1  UNL     1      25.209  -1.429  55.200  1.00  0.00    -0.353 OA
HETATM   17  C8  UNL     1      25.213  -0.882  56.507  1.00  0.00     0.210 C 
ENDBRANCH   6  16
BRANCH   8  18
HETATM   18  O3  UNL     1      26.753   1.506  51.723  1.00  0.00    -0.355 OA
HETATM   19  C13 UNL     1      26.634   2.710  51.021  1.00  0.00     0.210 C 
ENDBRANCH   8  18
BRANCH   7  20
HETATM   20  C10 UNL     1      27.435  -0.157  53.810  1.00  0.00     0.211 C 
BRANCH  20  21
HETATM   21  O2  UNL     1      27.830   0.851  54.720  1.00  0.00    -0.391 OA
HETATM   22  C11 UNL     1      29.090   1.327  54.417  1.00  0.00     0.201 C 
ENDBRANCH  20  21
ENDBRANCH   7  20
TORSDOF 6
ENDMDL
MODEL 5
REMARK VINA RESULT:      -6.0      2.282      4.945
REMARK  6 active torsions:
REMARK  status: ('A' for Active; 'I' for Inactive)
REMARK    1  A    between atoms: C3_3  and  N1_4 
REMARK    2  A    between atoms: N1_4  and  C4_5 
REMARK    3  A    between atoms: C7_10  and  O1_11 
REMARK    4  A    between atoms: C9_13  and  C10_14 
REMARK    5  A    between atoms: C10_14  and  O2_15 
REMARK    6  A    between atoms: C12_17  and  O3_18 
ROOT
HETATM    1  C4  UNL     1      26.082   2.483  51.418  1.00  0.00     0.141 A 
HETATM    2  N2  UNL     1      27.361   2.500  51.794  1.00  0.00    -0.224 NA
HETATM    3  C5  UNL     1      27.786   1.610  52.735  1.00  0.00     0.236 A 
HETATM    4  N3  UNL     1      26.950   0.718  53.293  1.00  0.00    -0.238 NA
HETATM    5  C6  UNL     1      25.642   0.701  52.909  1.00  0.00     0.106 A 
HETATM    6  C7  UNL     1      24.726  -0.206  53.456  1.00  0.00     0.109 A 
HETATM    7  C9  UNL     1      23.405  -0.239  53.080  1.00  0.00     0.034 A 
HETATM    8  C12 UNL     1      22.936   0.661  52.115  1.00  0.00     0.080 A 
HETATM    9  C14 UNL     1      23.854   1.544  51.593  1.00  0.00     0.055 A 
HETATM   10  C15 UNL     1      25.176   1.595  51.951  1.00  0.00     0.044 A 
ENDROOT
BRANCH   1  11
HETATM   11  N1  UNL     1      25.650   3.412  50.442  1.00  0.00    -0.350 N 
HETATM   12  H6  UNL     1      24.757   3.545  49.931  1.00  0.00     0.166 HD
BRANCH  11  13
HETATM   13  C3  UNL     1      26.278   4.495  49.811  1.00  0.00     0.085 C 
HETATM   14  C2  UNL     1      27.279   4.445  48.976  1.00  0.00    -0.014 C 
HETATM   15  C1  UNL     1      27.964   5.571  48.294  1.00  0.00     0.037 C 
ENDBRANCH  11  13
ENDBRANCH   1  11
BRANCH   6  16
HETATM   16  O1  UNL     1      25.277  -1.048  54.393  1.00  0.00    -0.353 OA
HETATM   17  C8  UNL     1      25.351  -0.591  55.732  1.00  0.00     0.210 C 
ENDBRANCH   6  16
BRANCH   8  18
HETATM   18  O3  UNL     1      21.596   0.587  51.772  1.00  0.00    -0.355 OA
HETATM   19  C13 UNL     1      21.136   0.637  50.452  1.00  0.00     0.210 C 
ENDBRANCH   8  18
BRANCH   7  20
HETATM   20  C10 UNL     1      22.458  -1.219  53.665  1.00  0.00     0.211 C 
BRANCH  20  21
HETATM   21  O2  UNL     1      22.062  -0.768  54.945  1.00  0.00    -0.391 OA
HETATM   22  C11 UNL     1      20.948   0.043  54.863  1.00  0.00     0.201 C 
ENDBRANCH  20  21
ENDBRANCH   7  20
TORSDOF 6
ENDMDL
MODEL 6
REMARK VINA RESULT:      -5.9      2.418      5.876
REMARK  6 active torsions:
REMARK  status: ('A' for Active; 'I' for Inactive)
REMARK    1  A    between atoms: C3_3  and  N1_4 
REMARK    2  A    between atoms: N1_4  and  C4_5 
REMARK    3  A    between atoms: C7_10  and  O1_11 
REMARK    4  A    between atoms: C9_13  and  C10_14 
REMARK    5  A    between atoms: C10_14  and  O2_15 
REMARK    6  A    between atoms: C12_17  and  O3_18 
ROOT
HETATM    1  C4  UNL     1      21.270   0.392  52.949  1.00  0.00     0.141 A 
HETATM    2  N2  UNL     1      20.633  -0.472  53.740  1.00  0.00    -0.224 NA
HETATM    3  C5  UNL     1      21.363  -1.279  54.562  1.00  0.00     0.236 A 
HETATM    4  N3  UNL     1      22.706  -1.226  54.595  1.00  0.00    -0.238 NA
HETATM    5  C6  UNL     1      23.356  -0.342  53.786  1.00  0.00     0.106 A 
HETATM    6  C7  UNL     1      24.754  -0.243  53.778  1.00  0.00     0.109 A 
HETATM    7  C9  UNL     1      25.426   0.643  52.971  1.00  0.00     0.034 A 
HETATM    8  C12 UNL     1      24.707   1.486  52.116  1.00  0.00     0.080 A 
HETATM    9  C14 UNL     1      23.336   1.370  52.140  1.00  0.00     0.055 A 
HETATM   10  C15 UNL     1      22.642   0.495  52.936  1.00  0.00     0.044 A 
ENDROOT
BRANCH   1  11
HETATM   11  N1  UNL     1      20.504   1.224  52.099  1.00  0.00    -0.350 N 
HETATM   12  H6  UNL     1      20.708   2.107  51.593  1.00  0.00     0.166 HD
BRANCH  11  13
HETATM   13  C3  UNL     1      19.184   1.153  51.630  1.00  0.00     0.085 C 
HETATM   14  C2  UNL     1      18.710   0.324  50.744  1.00  0.00    -0.014 C 
HETATM   15  C1  UNL     1      17.321   0.224  50.229  1.00  0.00     0.037 C 
ENDBRANCH  11  13
ENDBRANCH   1  11
BRANCH   6  16
HETATM   16  O1  UNL     1      25.372  -1.109  54.648  1.00  0.00    -0.353 OA
HETATM   17  C8  UNL     1      25.535  -0.694  55.993  1.00  0.00     0.210 C 
ENDBRANCH   6  16
BRANCH   8  18
HETATM   18  O3  UNL     1      25.433   2.360  51.323  1.00  0.00    -0.355 OA
HETATM   19  C13 UNL     1      24.953   3.609  50.916  1.00  0.00     0.210 C 
ENDBRANCH   8  18
BRANCH   7  20
HETATM   20  C10 UNL     1      26.907   0.737  52.991  1.00  0.00     0.211 C 
BRANCH  20  21
HETATM   21  O2  UNL     1      27.293   1.678  53.974  1.00  0.00    -0.391 OA
HETATM   22  C11 UNL     1      28.432   2.357  53.590  1.00  0.00     0.201 C 
ENDBRANCH  20  21
ENDBRANCH   7  20
TORSDOF 6
ENDMDL
MODEL 7
REMARK VINA RESULT:      -5.8      3.189      5.353
REMARK  6 active torsions:
REMARK  status: ('A' for Active; 'I' for Inactive)
REMARK    1  A    between atoms: C3_3  and  N1_4 
REMARK    2  A    between atoms: N1_4  and  C4_5 
REMARK    3  A    between atoms: C7_10  and  O1_11 
REMARK    4  A    between atoms: C9_13  and  C10_14 
REMARK    5  A    between atoms: C10_14  and  O2_15 
REMARK    6  A    between atoms: C12_17  and  O3_18 
ROOT
HETATM    1  C4  UNL     1      23.150   4.501  51.645  1.00  0.00     0.141 A 
HETATM    2  N2  UNL     1      22.090   5.249  51.333  1.00  0.00    -0.224 NA
HETATM    3  C5  UNL     1      20.844   4.706  51.439  1.00  0.00     0.236 A 
HETATM    4  N3  UNL     1      20.656   3.439  51.846  1.00  0.00    -0.238 NA
HETATM    5  C6  UNL     1      21.740   2.675  52.164  1.00  0.00     0.106 A 
HETATM    6  C7  UNL     1      21.605   1.349  52.595  1.00  0.00     0.109 A 
HETATM    7  C9  UNL     1      22.685   0.565  52.921  1.00  0.00     0.034 A 
HETATM    8  C12 UNL     1      23.979   1.092  52.826  1.00  0.00     0.080 A 
HETATM    9  C14 UNL     1      24.087   2.396  52.399  1.00  0.00     0.055 A 
HETATM   10  C15 UNL     1      23.025   3.198  52.069  1.00  0.00     0.044 A 
ENDROOT
BRANCH   1  11
HETATM   11  N1  UNL     1      24.440   5.073  51.531  1.00  0.00    -0.350 N 
HETATM   12  H6  UNL     1      25.183   5.297  52.219  1.00  0.00     0.166 HD
BRANCH  11  13
HETATM   13  C3  UNL     1      25.181   5.543  50.438  1.00  0.00     0.085 C 
HETATM   14  C2  UNL     1      26.081   4.888  49.759  1.00  0.00    -0.014 C 
HETATM   15  C1  UNL     1      26.880   5.359  48.601  1.00  0.00     0.037 C 
ENDBRANCH  11  13
ENDBRANCH   1  11
BRANCH   6  16
HETATM   16  O1  UNL     1      20.300   0.920  52.658  1.00  0.00    -0.353 OA
HETATM   17  C8  UNL     1      19.759   0.275  51.518  1.00  0.00     0.210 C 
ENDBRANCH   6  16
BRANCH   8  18
HETATM   18  O3  UNL     1      25.033   0.260  53.165  1.00  0.00    -0.355 OA
HETATM   19  C13 UNL     1      25.989   0.586  54.132  1.00  0.00     0.210 C 
ENDBRANCH   8  18
BRANCH   7  20
HETATM   20  C10 UNL     1      22.514  -0.833  53.388  1.00  0.00     0.211 C 
BRANCH  20  21
HETATM   21  O2  UNL     1      22.164  -0.819  54.758  1.00  0.00    -0.391 OA
HETATM   22  C11 UNL     1      23.114  -1.472  55.519  1.00  0.00     0.201 C 
ENDBRANCH  20  21
ENDBRANCH   7  20
TORSDOF 6
ENDMDL
MODEL 8
REMARK VINA RESULT:      -5.7      2.221      3.849
REMARK  6 active torsions:
REMARK  status: ('A' for Active; 'I' for Inactive)
REMARK    1  A    between atoms: C3_3  and  N1_4 
REMARK    2  A    between atoms: N1_4  and  C4_5 
REMARK    3  A    between atoms: C7_10  and  O1_11 
REMARK    4  A    between atoms: C9_13  and  C10_14 
REMARK    5  A    between atoms: C10_14  and  O2_15 
REMARK    6  A    between atoms: C12_17  and  O3_18 
ROOT
HETATM    1  C4  UNL     1      25.900   1.379  51.959  1.00  0.00     0.141 A 
HETATM    2  N2  UNL     1      26.587   2.099  51.071  1.00  0.00    -0.224 NA
HETATM    3  C5  UNL     1      25.927   3.017  50.310  1.00  0.00     0.236 A 
HETATM    4  N3  UNL     1      24.602   3.215  50.430  1.00  0.00    -0.238 NA
HETATM    5  C6  UNL     1      23.900   2.478  51.337  1.00  0.00     0.106 A 
HETATM    6  C7  UNL     1      22.518   2.641  51.505  1.00  0.00     0.109 A 
HETATM    7  C9  UNL     1      21.795   1.909  52.415  1.00  0.00     0.034 A 
HETATM    8  C12 UNL     1      22.442   0.959  53.214  1.00  0.00     0.080 A 
HETATM    9  C14 UNL     1      23.799   0.816  53.030  1.00  0.00     0.055 A 
HETATM   10  C15 UNL     1      24.543   1.534  52.130  1.00  0.00     0.044 A 
ENDROOT
BRANCH   1  11
HETATM   11  N1  UNL     1      26.593   0.427  52.743  1.00  0.00    -0.350 N 
HETATM   12  H6  UNL     1      26.300  -0.432  53.244  1.00  0.00     0.166 HD
BRANCH  11  13
HETATM   13  C3  UNL     1      27.936   0.304  53.127  1.00  0.00     0.085 C 
HETATM   14  C2  UNL     1      28.609  -0.801  53.285  1.00  0.00    -0.014 C 
HETATM   15  C1  UNL     1      30.028  -0.962  53.689  1.00  0.00     0.037 C 
ENDBRANCH  11  13
ENDBRANCH   1  11
BRANCH   6  16
HETATM   16  O1  UNL     1      21.972   3.595  50.679  1.00  0.00    -0.353 OA
HETATM   17  C8  UNL     1      21.679   4.864  51.236  1.00  0.00     0.210 C 
ENDBRANCH   6  16
BRANCH   8  18
HETATM   18  O3  UNL     1      21.667   0.248  54.115  1.00  0.00    -0.355 OA
HETATM   19  C13 UNL     1      21.671  -1.148  54.198  1.00  0.00     0.210 C 
ENDBRANCH   8  18
BRANCH   7  20
HETATM   20  C10 UNL     1      20.335   2.111  52.584  1.00  0.00     0.211 C 
BRANCH  20  21
HETATM   21  O2  UNL     1      19.656   1.459  51.528  1.00  0.00    -0.391 OA
HETATM   22  C11 UNL     1      18.601   2.223  51.070  1.00  0.00     0.201 C 
ENDBRANCH  20  21
ENDBRANCH   7  20
TORSDOF 6
ENDMDL
MODEL 9
REMARK VINA RESULT:      -5.5      2.400      4.704
REMARK  6 active torsions:
REMARK  status: ('A' for Active; 'I' for Inactive)
REMARK    1  A    between atoms: C3_3  and  N1_4 
REMARK    2  A    between atoms: N1_4  and  C4_5 
REMARK    3  A    between atoms: C7_10  and  O1_11 
REMARK    4  A    between atoms: C9_13  and  C10_14 
REMARK    5  A    between atoms: C10_14  and  O2_15 
REMARK    6  A    between atoms: C12_17  and  O3_18 
ROOT
HETATM    1  C4  UNL     1      25.951   2.897  50.600  1.00  0.00     0.141 A 
HETATM    2  N2  UNL     1      27.022   2.521  51.300  1.00  0.00    -0.224 NA
HETATM    3  C5  UNL     1      26.850   1.737  52.402  1.00  0.00     0.236 A 
HETATM    4  N3  UNL     1      25.631   1.335  52.802  1.00  0.00    -0.238 NA
HETATM    5  C6  UNL     1      24.536   1.720  52.086  1.00  0.00     0.106 A 
HETATM    6  C7  UNL     1      23.242   1.331  52.454  1.00  0.00     0.109 A 
HETATM    7  C9  UNL     1      22.127   1.708  51.744  1.00  0.00     0.034 A 
HETATM    8  C12 UNL     1      22.269   2.512  50.607  1.00  0.00     0.080 A 
HETATM    9  C14 UNL     1      23.549   2.883  50.265  1.00  0.00     0.055 A 
HETATM   10  C15 UNL     1      24.676   2.519  50.956  1.00  0.00     0.044 A 
ENDROOT
BRANCH   1  11
HETATM   11  N1  UNL     1      26.139   3.712  49.459  1.00  0.00    -0.350 N 
HETATM   12  H6  UNL     1      25.559   3.911  48.622  1.00  0.00     0.166 HD
BRANCH  11  13
HETATM   13  C3  UNL     1      27.184   4.551  49.047  1.00  0.00     0.085 C 
HETATM   14  C2  UNL     1      27.077   5.746  48.536  1.00  0.00    -0.014 C 
HETATM   15  C1  UNL     1      28.163   6.655  48.092  1.00  0.00     0.037 C 
ENDBRANCH  11  13
ENDBRANCH   1  11
BRANCH   6  16
HETATM   16  O1  UNL     1      23.203   0.545  53.581  1.00  0.00    -0.353 OA
HETATM   17  C8  UNL     1      23.052  -0.853  53.409  1.00  0.00     0.210 C 
ENDBRANCH   6  16
BRANCH   8  18
HETATM   18  O3  UNL     1      21.114   2.865  49.928  1.00  0.00    -0.355 OA
HETATM   19  C13 UNL     1      20.906   2.593  48.572  1.00  0.00     0.210 C 
ENDBRANCH   8  18
BRANCH   7  20
HETATM   20  C10 UNL     1      20.769   1.271  52.148  1.00  0.00     0.211 C 
BRANCH  20  21
HETATM   21  O2  UNL     1      20.378   0.181  51.338  1.00  0.00    -0.391 OA
HETATM   22  C11 UNL     1      19.010   0.169  51.148  1.00  0.00     0.201 C 
ENDBRANCH  20  21
ENDBRANCH   7  20
TORSDOF 6
ENDMDL
