MODEL 1
REMARK VINA RESULT:      -8.3      0.000      0.000
REMARK  6 active torsions:
REMARK  status: ('A' for Active; 'I' for Inactive)
REMARK    1  A    between atoms: C3_4  and  C4_5 
REMARK    2  A    between atoms: C5_6  and  C6_7 
REMARK    3  A    between atoms: N3_9  and  C7_10 
REMARK    4  A    between atoms: C7_10  and  C8_11 
REMARK    5  A    between atoms: C8_11  and  O1_12 
REMARK    6  A    between atoms: C10_14  and  C11_15 
ROOT
HETATM    1  C1  UNL     1      19.132  -0.582  53.253  1.00  0.00     0.039 C 
HETATM    2  C2  UNL     1      20.322  -0.477  53.373  1.00  0.00     0.023 C 
HETATM    3  N1  UNL     1      21.703  -0.341  53.497  1.00  0.00    -0.211 NA
HETATM    4  C3  UNL     1      22.347  -1.077  54.321  1.00  0.00     0.128 C 
ENDROOT
BRANCH   4   5
HETATM    5  C4  UNL     1      23.729  -0.647  54.162  1.00  0.00     0.022 C 
HETATM    6  C5  UNL     1      24.435  -0.613  53.044  1.00  0.00     0.036 C 
BRANCH   6   7
HETATM    7  C6  UNL     1      25.798  -0.157  53.062  1.00  0.00     0.089 A 
HETATM    8  N2  UNL     1      26.700  -1.039  53.572  1.00  0.00    -0.172 NA
HETATM    9  N3  UNL     1      27.908  -0.452  53.546  1.00  0.00    -0.278 N 
HETATM   10  C9  UNL     1      27.728   0.767  53.024  1.00  0.00     0.126 A 
HETATM   11  C10 UNL     1      26.412   0.989  52.707  1.00  0.00     0.018 A 
BRANCH   9  12
HETATM   12  C7  UNL     1      29.160  -1.032  53.996  1.00  0.00     0.176 C 
BRANCH  12  13
HETATM   13  C8  UNL     1      29.491  -2.266  53.210  1.00  0.00     0.185 C 
BRANCH  13  14
HETATM   14  O1  UNL     1      28.681  -3.348  53.462  1.00  0.00    -0.399 OA
HETATM   15  H9  UNL     1      27.785  -3.070  53.725  1.00  0.00     0.209 HD
ENDBRANCH  13  14
ENDBRANCH  12  13
ENDBRANCH   9  12
BRANCH  11  16
HETATM   16  C11 UNL     1      25.763   2.138  52.070  1.00  0.00    -0.043 C 
HETATM   17  C12 UNL     1      26.533   2.424  50.978  1.00  0.00     0.010 C 
HETATM   18  C13 UNL     1      26.310   3.669  50.154  1.00  0.00     0.025 C 
HETATM   19  C14 UNL     1      25.070   4.190  50.355  1.00  0.00     0.005 C 
HETATM   20  C15 UNL     1      23.718   3.448  50.291  1.00  0.00     0.067 C 
HETATM   21  N4  UNL     1      24.643   5.463  50.819  1.00  0.00    -0.392 N 
HETATM   22  C16 UNL     1      23.609   3.532  51.816  1.00  0.00    -0.019 C 
HETATM   23  C17 UNL     1      22.171   3.212  52.164  1.00  0.00     0.017 C 
HETATM   24  C18 UNL     1      23.718   5.064  51.928  1.00  0.00     0.129 C 
HETATM   25  C19 UNL     1      24.523   2.727  52.602  1.00  0.00     0.050 C 
HETATM   26  H20 UNL     1      25.125   6.239  50.246  1.00  0.00     0.159 HD
ENDBRANCH  11  16
ENDBRANCH   6   7
ENDBRANCH   4   5
TORSDOF 6
ENDMDL
MODEL 2
REMARK VINA RESULT:      -7.7      1.696      5.097
REMARK  6 active torsions:
REMARK  status: ('A' for Active; 'I' for Inactive)
REMARK    1  A    between atoms: C3_4  and  C4_5 
REMARK    2  A    between atoms: C5_6  and  C6_7 
REMARK    3  A    between atoms: N3_9  and  C7_10 
REMARK    4  A    between atoms: C7_10  and  C8_11 
REMARK    5  A    between atoms: C8_11  and  O1_12 
REMARK    6  A    between atoms: C10_14  and  C11_15 
ROOT
HETATM    1  C1  UNL     1      21.833   6.443  50.797  1.00  0.00     0.039 C 
HETATM    2  C2  UNL     1      22.484   5.458  51.015  1.00  0.00     0.023 C 
HETATM    3  N1  UNL     1      23.227   4.309  51.283  1.00  0.00    -0.211 NA
HETATM    4  C3  UNL     1      24.279   4.055  50.602  1.00  0.00     0.128 C 
ENDROOT
BRANCH   4   5
HETATM    5  C4  UNL     1      24.762   2.803  51.169  1.00  0.00     0.022 C 
HETATM    6  C5  UNL     1      24.863   2.488  52.449  1.00  0.00     0.036 C 
BRANCH   6   7
HETATM    7  C6  UNL     1      25.364   1.199  52.841  1.00  0.00     0.089 A 
HETATM    8  N2  UNL     1      26.716   1.053  52.765  1.00  0.00    -0.172 NA
HETATM    9  N3  UNL     1      27.013  -0.205  53.130  1.00  0.00    -0.278 N 
HETATM   10  C9  UNL     1      25.852  -0.802  53.423  1.00  0.00     0.126 A 
HETATM   11  C10 UNL     1      24.791   0.052  53.253  1.00  0.00     0.018 A 
BRANCH   9  12
HETATM   12  C7  UNL     1      28.338  -0.794  53.195  1.00  0.00     0.176 C 
BRANCH  12  13
HETATM   13  C8  UNL     1      29.223  -0.020  54.125  1.00  0.00     0.185 C 
BRANCH  13  14
HETATM   14  O1  UNL     1      28.560   0.733  55.065  1.00  0.00    -0.399 OA
HETATM   15  H9  UNL     1      27.796   0.253  55.432  1.00  0.00     0.209 HD
ENDBRANCH  13  14
ENDBRANCH  12  13
ENDBRANCH   9  12
BRANCH  11  16
HETATM   16  C11 UNL     1      23.360  -0.140  53.503  1.00  0.00    -0.043 C 
HETATM   17  C12 UNL     1      23.295  -1.001  54.562  1.00  0.00     0.010 C 
HETATM   18  C13 UNL     1      21.988  -1.606  55.015  1.00  0.00     0.025 C 
HETATM   19  C14 UNL     1      20.921  -0.898  54.555  1.00  0.00     0.005 C 
HETATM   20  C15 UNL     1      20.689   0.624  54.659  1.00  0.00     0.067 C 
HETATM   21  N4  UNL     1      19.819  -1.271  53.740  1.00  0.00    -0.392 N 
HETATM   22  C16 UNL     1      20.969   0.761  53.160  1.00  0.00    -0.019 C 
HETATM   23  C17 UNL     1      20.474   2.133  52.753  1.00  0.00     0.017 C 
HETATM   24  C18 UNL     1      19.885  -0.219  52.675  1.00  0.00     0.129 C 
HETATM   25  C19 UNL     1      22.330   0.548  52.708  1.00  0.00     0.050 C 
HETATM   26  H20 UNL     1      19.349  -2.153  54.145  1.00  0.00     0.159 HD
ENDBRANCH  11  16
ENDBRANCH   6   7
ENDBRANCH   4   5
TORSDOF 6
ENDMDL
MODEL 3
REMARK VINA RESULT:      -7.6      1.205      2.163
REMARK  6 active torsions:
REMARK  status: ('A' for Active; 'I' for Inactive)
REMARK    1  A    between atoms: C3_4  and  C4_5 
REMARK    2  A    between atoms: C5_6  and  C6_7 
REMARK    3  A    between atoms: N3_9  and  C7_10 
REMARK    4  A    between atoms: C7_10  and  C8_11 
REMARK    5  A    between atoms: C8_11  and  O1_12 
REMARK    6  A    between atoms: C10_14  and  C11_15 
ROOT
HETATM    1  C1  UNL     1      18.500  -0.943  53.202  1.00  0.00     0.039 C 
HETATM    2  C2  UNL     1      19.663  -0.701  53.379  1.00  0.00     0.023 C 
HETATM    3  N1  UNL     1      21.010  -0.401  53.574  1.00  0.00    -0.211 NA
HETATM    4  C3  UNL     1      21.778  -1.253  54.137  1.00  0.00     0.128 C 
ENDROOT
BRANCH   4   5
HETATM    5  C4  UNL     1      23.074  -0.589  54.156  1.00  0.00     0.022 C 
HETATM    6  C5  UNL     1      23.703  -0.026  53.138  1.00  0.00     0.036 C 
BRANCH   6   7
HETATM    7  C6  UNL     1      24.986   0.592  53.330  1.00  0.00     0.089 A 
HETATM    8  N2  UNL     1      25.873  -0.127  54.071  1.00  0.00    -0.172 NA
HETATM    9  N3  UNL     1      26.999   0.598  54.182  1.00  0.00    -0.278 N 
HETATM   10  C9  UNL     1      26.785   1.737  53.513  1.00  0.00     0.126 A 
HETATM   11  C10 UNL     1      25.529   1.769  52.962  1.00  0.00     0.018 A 
BRANCH   9  12
HETATM   12  C7  UNL     1      28.207   0.214  54.889  1.00  0.00     0.176 C 
BRANCH  12  13
HETATM   13  C8  UNL     1      29.072  -0.662  54.033  1.00  0.00     0.185 C 
BRANCH  13  14
HETATM   14  O1  UNL     1      28.404  -1.663  53.366  1.00  0.00    -0.399 OA
HETATM   15  H9  UNL     1      27.609  -1.947  53.853  1.00  0.00     0.209 HD
ENDBRANCH  13  14
ENDBRANCH  12  13
ENDBRANCH   9  12
BRANCH  11  16
HETATM   16  C11 UNL     1      24.884   2.772  52.111  1.00  0.00    -0.043 C 
HETATM   17  C12 UNL     1      23.940   3.361  52.905  1.00  0.00     0.010 C 
HETATM   18  C13 UNL     1      22.922   4.326  52.346  1.00  0.00     0.025 C 
HETATM   19  C14 UNL     1      23.314   4.829  51.144  1.00  0.00     0.005 C 
HETATM   20  C15 UNL     1      24.673   5.469  50.793  1.00  0.00     0.067 C 
HETATM   21  N4  UNL     1      22.708   4.790  49.860  1.00  0.00    -0.392 N 
HETATM   22  C16 UNL     1      25.043   4.222  49.986  1.00  0.00    -0.019 C 
HETATM   23  C17 UNL     1      26.232   4.601  49.128  1.00  0.00     0.017 C 
HETATM   24  C18 UNL     1      23.833   4.250  49.032  1.00  0.00     0.129 C 
HETATM   25  C19 UNL     1      25.302   2.999  50.718  1.00  0.00     0.050 C 
HETATM   26  H20 UNL     1      21.688   5.134  49.929  1.00  0.00     0.159 HD
ENDBRANCH  11  16
ENDBRANCH   6   7
ENDBRANCH   4   5
TORSDOF 6
ENDMDL
MODEL 4
REMARK VINA RESULT:      -7.3      2.761      6.418
REMARK  6 active torsions:
REMARK  status: ('A' for Active; 'I' for Inactive)
REMARK    1  A    between atoms: C3_4  and  C4_5 
REMARK    2  A    between atoms: C5_6  and  C6_7 
REMARK    3  A    between atoms: N3_9  and  C7_10 
REMARK    4  A    between atoms: C7_10  and  C8_11 
REMARK    5  A    between atoms: C8_11  and  O1_12 
REMARK    6  A    between atoms: C10_14  and  C11_15 
ROOT
HETATM    1  C1  UNL     1      29.894  -1.774  53.818  1.00  0.00     0.039 C 
HETATM    2  C2  UNL     1      29.190  -0.878  53.438  1.00  0.00     0.023 C 
HETATM    3  N1  UNL     1      28.366   0.149  52.982  1.00  0.00    -0.211 NA
HETATM    4  C3  UNL     1      28.405   1.297  53.543  1.00  0.00     0.128 C 
ENDROOT
BRANCH   4   5
HETATM    5  C4  UNL     1      27.426   2.078  52.801  1.00  0.00     0.022 C 
HETATM    6  C5  UNL     1      26.698   1.682  51.770  1.00  0.00     0.036 C 
BRANCH   6   7
HETATM    7  C6  UNL     1      25.770   2.586  51.147  1.00  0.00     0.089 A 
HETATM    8  N2  UNL     1      26.335   3.606  50.444  1.00  0.00    -0.172 NA
HETATM    9  N3  UNL     1      25.341   4.369  49.959  1.00  0.00    -0.278 N 
HETATM   10  C9  UNL     1      24.196   3.808  50.367  1.00  0.00     0.126 A 
HETATM   11  C10 UNL     1      24.427   2.683  51.117  1.00  0.00     0.018 A 
BRANCH   9  12
HETATM   12  C7  UNL     1      25.487   5.564  49.149  1.00  0.00     0.176 C 
BRANCH  12  13
HETATM   13  C8  UNL     1      26.917   5.764  48.743  1.00  0.00     0.185 C 
BRANCH  13  14
HETATM   14  O1  UNL     1      27.486   6.936  49.183  1.00  0.00    -0.399 OA
HETATM   15  H9  UNL     1      28.036   7.347  48.492  1.00  0.00     0.209 HD
ENDBRANCH  13  14
ENDBRANCH  12  13
ENDBRANCH   9  12
BRANCH  11  16
HETATM   16  C11 UNL     1      23.493   1.727  51.717  1.00  0.00    -0.043 C 
HETATM   17  C12 UNL     1      22.578   1.457  50.738  1.00  0.00     0.010 C 
HETATM   18  C13 UNL     1      21.330   0.655  51.017  1.00  0.00     0.025 C 
HETATM   19  C14 UNL     1      21.447  -0.076  52.158  1.00  0.00     0.005 C 
HETATM   20  C15 UNL     1      22.599  -1.024  52.551  1.00  0.00     0.067 C 
HETATM   21  N4  UNL     1      20.683  -0.089  53.355  1.00  0.00    -0.392 N 
HETATM   22  C16 UNL     1      23.076  -0.000  53.585  1.00  0.00    -0.019 C 
HETATM   23  C17 UNL     1      24.040  -0.728  54.499  1.00  0.00     0.017 C 
HETATM   24  C18 UNL     1      21.760   0.091  54.380  1.00  0.00     0.129 C 
HETATM   25  C19 UNL     1      23.660   1.232  53.094  1.00  0.00     0.050 C 
HETATM   26  H20 UNL     1      19.637  -0.203  53.118  1.00  0.00     0.159 HD
ENDBRANCH  11  16
ENDBRANCH   6   7
ENDBRANCH   4   5
TORSDOF 6
ENDMDL
MODEL 5
REMARK VINA RESULT:      -7.2      2.974      6.154
REMARK  6 active torsions:
REMARK  status: ('A' for Active; 'I' for Inactive)
REMARK    1  A    between atoms: C3_4  and  C4_5 
REMARK    2  A    between atoms: C5_6  and  C6_7 
REMARK    3  A    between atoms: N3_9  and  C7_10 
REMARK    4  A    between atoms: C7_10  and  C8_11 
REMARK    5  A    between atoms: C8_11  and  O1_12 
REMARK    6  A    between atoms: C10_14  and  C11_15 
ROOT
HETATM    1  C1  UNL     1      29.851  -0.821  54.052  1.00  0.00     0.039 C 
HETATM    2  C2  UNL     1      29.195  -0.011  53.456  1.00  0.00     0.023 C 
HETATM    3  N1  UNL     1      28.452   0.939  52.757  1.00  0.00    -0.211 NA
HETATM    4  C3  UNL     1      27.175   0.910  52.802  1.00  0.00     0.128 C 
ENDROOT
BRANCH   4   5
HETATM    5  C4  UNL     1      26.774   2.034  51.968  1.00  0.00     0.022 C 
HETATM    6  C5  UNL     1      26.459   2.009  50.683  1.00  0.00     0.036 C 
BRANCH   6   7
HETATM    7  C6  UNL     1      26.083   3.219  50.005  1.00  0.00     0.089 A 
HETATM    8  N2  UNL     1      27.118   4.010  49.608  1.00  0.00    -0.172 NA
HETATM    9  N3  UNL     1      26.599   5.104  49.026  1.00  0.00    -0.278 N 
HETATM   10  C9  UNL     1      25.268   4.966  49.075  1.00  0.00     0.126 A 
HETATM   11  C10 UNL     1      24.906   3.791  49.684  1.00  0.00     0.018 A 
BRANCH   9  12
HETATM   12  C7  UNL     1      27.341   6.213  48.456  1.00  0.00     0.176 C 
BRANCH  12  13
HETATM   13  C8  UNL     1      28.750   5.809  48.142  1.00  0.00     0.185 C 
BRANCH  13  14
HETATM   14  O1  UNL     1      29.563   5.637  49.239  1.00  0.00    -0.399 OA
HETATM   15  H9  UNL     1      30.505   5.643  48.989  1.00  0.00     0.209 HD
ENDBRANCH  13  14
ENDBRANCH  12  13
ENDBRANCH   9  12
BRANCH  11  16
HETATM   16  C11 UNL     1      23.585   3.198  49.907  1.00  0.00    -0.043 C 
HETATM   17  C12 UNL     1      23.032   3.079  48.663  1.00  0.00     0.010 C 
HETATM   18  C13 UNL     1      21.588   2.682  48.472  1.00  0.00     0.025 C 
HETATM   19  C14 UNL     1      21.080   2.080  49.581  1.00  0.00     0.005 C 
HETATM   20  C15 UNL     1      21.692   0.905  50.373  1.00  0.00     0.067 C 
HETATM   21  N4  UNL     1      19.980   2.409  50.417  1.00  0.00    -0.392 N 
HETATM   22  C16 UNL     1      22.058   1.870  51.504  1.00  0.00    -0.019 C 
HETATM   23  C17 UNL     1      22.385   1.016  52.711  1.00  0.00     0.017 C 
HETATM   24  C18 UNL     1      20.637   2.405  51.763  1.00  0.00     0.129 C 
HETATM   25  C19 UNL     1      23.111   2.834  51.253  1.00  0.00     0.050 C 
HETATM   26  H20 UNL     1      19.098   2.557  49.815  1.00  0.00     0.159 HD
ENDBRANCH  11  16
ENDBRANCH   6   7
ENDBRANCH   4   5
TORSDOF 6
ENDMDL
MODEL 6
REMARK VINA RESULT:      -7.0      2.363      5.330
REMARK  6 active torsions:
REMARK  status: ('A' for Active; 'I' for Inactive)
REMARK    1  A    between atoms: C3_4  and  C4_5 
REMARK    2  A    between atoms: C5_6  and  C6_7 
REMARK    3  A    between atoms: N3_9  and  C7_10 
REMARK    4  A    between atoms: C7_10  and  C8_11 
REMARK    5  A    between atoms: C8_11  and  O1_12 
REMARK    6  A    between atoms: C10_14  and  C11_15 
ROOT
HETATM    1  C1  UNL     1      26.321   7.670  47.443  1.00  0.00     0.039 C 
HETATM    2  C2  UNL     1      26.276   6.793  48.263  1.00  0.00     0.023 C 
HETATM    3  N1  UNL     1      26.213   5.789  49.227  1.00  0.00    -0.211 NA
HETATM    4  C3  UNL     1      26.748   4.651  49.000  1.00  0.00     0.128 C 
ENDROOT
BRANCH   4   5
HETATM    5  C4  UNL     1      26.478   3.894  50.215  1.00  0.00     0.022 C 
HETATM    6  C5  UNL     1      26.467   2.579  50.355  1.00  0.00     0.036 C 
BRANCH   6   7
HETATM    7  C6  UNL     1      26.180   1.989  51.634  1.00  0.00     0.089 A 
HETATM    8  N2  UNL     1      27.257   1.489  52.299  1.00  0.00    -0.172 NA
HETATM    9  N3  UNL     1      26.816   0.951  53.449  1.00  0.00    -0.278 N 
HETATM   10  C9  UNL     1      25.490   1.130  53.469  1.00  0.00     0.126 A 
HETATM   11  C10 UNL     1      25.053   1.781  52.342  1.00  0.00     0.018 A 
BRANCH   9  12
HETATM   12  C7  UNL     1      27.625   0.306  54.466  1.00  0.00     0.176 C 
BRANCH  12  13
HETATM   13  C8  UNL     1      29.002   0.012  53.949  1.00  0.00     0.185 C 
BRANCH  13  14
HETATM   14  O1  UNL     1      29.804   1.115  53.773  1.00  0.00    -0.399 OA
HETATM   15  H9  UNL     1      30.640   0.882  53.330  1.00  0.00     0.209 HD
ENDBRANCH  13  14
ENDBRANCH  12  13
ENDBRANCH   9  12
BRANCH  11  16
HETATM   16  C11 UNL     1      23.714   2.236  51.961  1.00  0.00    -0.043 C 
HETATM   17  C12 UNL     1      23.639   3.530  52.394  1.00  0.00     0.010 C 
HETATM   18  C13 UNL     1      22.343   4.304  52.362  1.00  0.00     0.025 C 
HETATM   19  C14 UNL     1      21.444   3.744  51.509  1.00  0.00     0.005 C 
HETATM   20  C15 UNL     1      21.674   3.334  50.039  1.00  0.00     0.067 C 
HETATM   21  N4  UNL     1      20.134   3.235  51.715  1.00  0.00    -0.392 N 
HETATM   22  C16 UNL     1      21.655   1.860  50.456  1.00  0.00    -0.019 C 
HETATM   23  C17 UNL     1      21.487   1.055  49.184  1.00  0.00     0.017 C 
HETATM   24  C18 UNL     1      20.263   1.869  51.113  1.00  0.00     0.129 C 
HETATM   25  C19 UNL     1      22.772   1.367  51.237  1.00  0.00     0.050 C 
HETATM   26  H20 UNL     1      19.534   3.971  52.225  1.00  0.00     0.159 HD
ENDBRANCH  11  16
ENDBRANCH   6   7
ENDBRANCH   4   5
TORSDOF 6
ENDMDL
MODEL 7
REMARK VINA RESULT:      -6.9      2.421      5.609
REMARK  6 active torsions:
REMARK  status: ('A' for Active; 'I' for Inactive)
REMARK    1  A    between atoms: C3_4  and  C4_5 
REMARK    2  A    between atoms: C5_6  and  C6_7 
REMARK    3  A    between atoms: N3_9  and  C7_10 
REMARK    4  A    between atoms: C7_10  and  C8_11 
REMARK    5  A    between atoms: C8_11  and  O1_12 
REMARK    6  A    between atoms: C10_14  and  C11_15 
ROOT
HETATM    1  C1  UNL     1      29.163   6.610  47.660  1.00  0.00     0.039 C 
HETATM    2  C2  UNL     1      28.620   5.713  48.244  1.00  0.00     0.023 C 
HETATM    3  N1  UNL     1      28.008   4.664  48.929  1.00  0.00    -0.211 NA
HETATM    4  C3  UNL     1      26.738   4.523  48.878  1.00  0.00     0.128 C 
ENDROOT
BRANCH   4   5
HETATM    5  C4  UNL     1      26.489   3.345  49.698  1.00  0.00     0.022 C 
HETATM    6  C5  UNL     1      26.290   3.305  51.005  1.00  0.00     0.036 C 
BRANCH   6   7
HETATM    7  C6  UNL     1      26.056   2.049  51.664  1.00  0.00     0.089 A 
HETATM    8  N2  UNL     1      27.174   1.402  52.095  1.00  0.00    -0.172 NA
HETATM    9  N3  UNL     1      26.787   0.243  52.654  1.00  0.00    -0.278 N 
HETATM   10  C9  UNL     1      25.452   0.201  52.558  1.00  0.00     0.126 A 
HETATM   11  C10 UNL     1      24.957   1.321  51.941  1.00  0.00     0.018 A 
BRANCH   9  12
HETATM   12  C7  UNL     1      27.651  -0.761  53.246  1.00  0.00     0.176 C 
BRANCH  12  13
HETATM   13  C8  UNL     1      28.470  -0.175  54.357  1.00  0.00     0.185 C 
BRANCH  13  14
HETATM   14  O1  UNL     1      27.953   0.970  54.917  1.00  0.00    -0.399 OA
HETATM   15  H9  UNL     1      27.493   1.515  54.254  1.00  0.00     0.209 HD
ENDBRANCH  13  14
ENDBRANCH  12  13
ENDBRANCH   9  12
BRANCH  11  16
HETATM   16  C11 UNL     1      23.577   1.733  51.672  1.00  0.00    -0.043 C 
HETATM   17  C12 UNL     1      22.819   0.621  51.913  1.00  0.00     0.010 C 
HETATM   18  C13 UNL     1      21.350   0.572  51.569  1.00  0.00     0.025 C 
HETATM   19  C14 UNL     1      20.827   1.818  51.414  1.00  0.00     0.005 C 
HETATM   20  C15 UNL     1      20.947   3.012  52.384  1.00  0.00     0.067 C 
HETATM   21  N4  UNL     1      20.181   2.443  50.315  1.00  0.00    -0.392 N 
HETATM   22  C16 UNL     1      21.919   3.691  51.415  1.00  0.00    -0.019 C 
HETATM   23  C17 UNL     1      22.018   5.139  51.847  1.00  0.00     0.017 C 
HETATM   24  C18 UNL     1      20.988   3.699  50.189  1.00  0.00     0.129 C 
HETATM   25  C19 UNL     1      23.237   3.106  51.264  1.00  0.00     0.050 C 
HETATM   26  H20 UNL     1      19.379   1.815  49.959  1.00  0.00     0.159 HD
ENDBRANCH  11  16
ENDBRANCH   6   7
ENDBRANCH   4   5
TORSDOF 6
ENDMDL
MODEL 8
REMARK VINA RESULT:      -6.9      3.222      6.377
REMARK  6 active torsions:
REMARK  status: ('A' for Active; 'I' for Inactive)
REMARK    1  A    between atoms: C3_4  and  C4_5 
REMARK    2  A    between atoms: C5_6  and  C6_7 
REMARK    3  A    between atoms: N3_9  and  C7_10 
REMARK    4  A    between atoms: C7_10  and  C8_11 
REMARK    5  A    between atoms: C8_11  and  O1_12 
REMARK    6  A    between atoms: C10_14  and  C11_15 
ROOT
HETATM    1  C1  UNL     1      28.242  -0.997  53.175  1.00  0.00     0.039 C 
HETATM    2  C2  UNL     1      27.047  -0.919  53.083  1.00  0.00     0.023 C 
HETATM    3  N1  UNL     1      25.662  -0.830  52.956  1.00  0.00    -0.211 NA
HETATM    4  C3  UNL     1      24.940  -0.600  53.985  1.00  0.00     0.128 C 
ENDROOT
BRANCH   4   5
HETATM    5  C4  UNL     1      23.583  -0.580  53.456  1.00  0.00     0.022 C 
HETATM    6  C5  UNL     1      22.498  -0.105  54.047  1.00  0.00     0.036 C 
BRANCH   6   7
HETATM    7  C6  UNL     1      21.226  -0.164  53.380  1.00  0.00     0.089 A 
HETATM    8  N2  UNL     1      20.294  -0.959  53.974  1.00  0.00    -0.172 NA
HETATM    9  N3  UNL     1      19.186  -0.928  53.216  1.00  0.00    -0.278 N 
HETATM   10  C9  UNL     1      19.454  -0.122  52.182  1.00  0.00     0.126 A 
HETATM   11  C10 UNL     1      20.729   0.378  52.252  1.00  0.00     0.018 A 
BRANCH   9  12
HETATM   12  C7  UNL     1      17.943  -1.632  53.475  1.00  0.00     0.176 C 
BRANCH  12  13
HETATM   13  C8  UNL     1      16.821  -1.053  52.665  1.00  0.00     0.185 C 
BRANCH  13  14
HETATM   14  O1  UNL     1      15.786  -0.526  53.402  1.00  0.00    -0.399 OA
HETATM   15  H9  UNL     1      15.396   0.252  52.964  1.00  0.00     0.209 HD
ENDBRANCH  13  14
ENDBRANCH  12  13
ENDBRANCH   9  12
BRANCH  11  16
HETATM   16  C11 UNL     1      21.431   1.330  51.386  1.00  0.00    -0.043 C 
HETATM   17  C12 UNL     1      21.246   0.861  50.116  1.00  0.00     0.010 C 
HETATM   18  C13 UNL     1      21.975   1.457  48.936  1.00  0.00     0.025 C 
HETATM   19  C14 UNL     1      22.455   2.699  49.216  1.00  0.00     0.005 C 
HETATM   20  C15 UNL     1      21.682   3.889  49.822  1.00  0.00     0.067 C 
HETATM   21  N4  UNL     1      23.772   3.230  49.198  1.00  0.00    -0.392 N 
HETATM   22  C16 UNL     1      22.432   3.693  51.142  1.00  0.00    -0.019 C 
HETATM   23  C17 UNL     1      22.214   4.953  51.953  1.00  0.00     0.017 C 
HETATM   24  C18 UNL     1      23.856   3.824  50.571  1.00  0.00     0.129 C 
HETATM   25  C19 UNL     1      22.120   2.514  51.925  1.00  0.00     0.050 C 
HETATM   26  H20 UNL     1      24.238   3.015  48.250  1.00  0.00     0.159 HD
ENDBRANCH  11  16
ENDBRANCH   6   7
ENDBRANCH   4   5
TORSDOF 6
ENDMDL
MODEL 9
REMARK VINA RESULT:      -6.8      2.905      4.893
REMARK  6 active torsions:
REMARK  status: ('A' for Active; 'I' for Inactive)
REMARK    1  A    between atoms: C3_4  and  C4_5 
REMARK    2  A    between atoms: C5_6  and  C6_7 
REMARK    3  A    between atoms: N3_9  and  C7_10 
REMARK    4  A    between atoms: C7_10  and  C8_11 
REMARK    5  A    between atoms: C8_11  and  O1_12 
REMARK    6  A    between atoms: C10_14  and  C11_15 
ROOT
HETATM    1  C1  UNL     1      21.045   4.015  44.563  1.00  0.00     0.039 C 
HETATM    2  C2  UNL     1      21.591   3.653  45.569  1.00  0.00     0.023 C 
HETATM    3  N1  UNL     1      22.243   3.239  46.729  1.00  0.00    -0.211 NA
HETATM    4  C3  UNL     1      21.585   2.667  47.663  1.00  0.00     0.128 C 
ENDROOT
BRANCH   4   5
HETATM    5  C4  UNL     1      22.593   2.392  48.678  1.00  0.00     0.022 C 
HETATM    6  C5  UNL     1      22.462   2.498  49.989  1.00  0.00     0.036 C 
BRANCH   6   7
HETATM    7  C6  UNL     1      23.564   2.185  50.856  1.00  0.00     0.089 A 
HETATM    8  N2  UNL     1      23.421   1.050  51.594  1.00  0.00    -0.172 NA
HETATM    9  N3  UNL     1      24.513   0.921  52.366  1.00  0.00    -0.278 N 
HETATM   10  C9  UNL     1      25.301   1.968  52.089  1.00  0.00     0.126 A 
HETATM   11  C10 UNL     1      24.736   2.785  51.142  1.00  0.00     0.018 A 
BRANCH   9  12
HETATM   12  C7  UNL     1      24.782  -0.147  53.310  1.00  0.00     0.176 C 
BRANCH  12  13
HETATM   13  C8  UNL     1      26.238  -0.506  53.313  1.00  0.00     0.185 C 
BRANCH  13  14
HETATM   14  O1  UNL     1      26.601  -1.463  52.395  1.00  0.00    -0.399 OA
HETATM   15  H9  UNL     1      27.385  -1.961  52.690  1.00  0.00     0.209 HD
ENDBRANCH  13  14
ENDBRANCH  12  13
ENDBRANCH   9  12
BRANCH  11  16
HETATM   16  C11 UNL     1      25.250   3.996  50.497  1.00  0.00    -0.043 C 
HETATM   17  C12 UNL     1      26.245   3.565  49.666  1.00  0.00     0.010 C 
HETATM   18  C13 UNL     1      27.160   4.531  48.954  1.00  0.00     0.025 C 
HETATM   19  C14 UNL     1      26.628   5.782  48.903  1.00  0.00     0.005 C 
HETATM   20  C15 UNL     1      25.215   6.183  48.429  1.00  0.00     0.067 C 
HETATM   21  N4  UNL     1      27.101   7.032  49.386  1.00  0.00    -0.392 N 
HETATM   22  C16 UNL     1      24.817   6.462  49.881  1.00  0.00    -0.019 C 
HETATM   23  C17 UNL     1      23.532   7.262  49.829  1.00  0.00     0.017 C 
HETATM   24  C18 UNL     1      25.920   7.492  50.184  1.00  0.00     0.129 C 
HETATM   25  C19 UNL     1      24.683   5.327  50.772  1.00  0.00     0.050 C 
HETATM   26  H20 UNL     1      28.108   7.198  49.037  1.00  0.00     0.159 HD
ENDBRANCH  11  16
ENDBRANCH   6   7
ENDBRANCH   4   5
TORSDOF 6
ENDMDL
