MODEL 1
REMARK VINA RESULT:      -7.8      0.000      0.000
REMARK  4 active torsions:
REMARK  status: ('A' for Active; 'I' for Inactive)
REMARK    1  A    between atoms: O1_2  and  C2_3 
REMARK    2  A    between atoms: C6_9  and  N3_10 
REMARK    3  A    between atoms: N3_10  and  C8_12 
REMARK    4  A    between atoms: C16_20  and  O2_21 
ROOT
HETATM    1  C2  UNL     1      21.364   0.136  52.072  1.00  0.00     0.103 A 
HETATM    2  C3  UNL     1      21.372  -0.621  53.229  1.00  0.00     0.072 A 
HETATM    3  C4  UNL     1      22.533  -0.756  53.999  1.00  0.00     0.075 A 
HETATM    4  N1  UNL     1      22.596  -1.480  55.134  1.00  0.00    -0.241 NA
HETATM    5  C5  UNL     1      23.785  -1.536  55.794  1.00  0.00     0.236 A 
HETATM    6  N2  UNL     1      24.891  -0.902  55.364  1.00  0.00    -0.223 NA
HETATM    7  C6  UNL     1      24.835  -0.165  54.216  1.00  0.00     0.144 A 
HETATM    8  C14 UNL     1      23.644  -0.090  53.523  1.00  0.00     0.042 A 
HETATM    9  C15 UNL     1      23.691   0.679  52.376  1.00  0.00     0.057 A 
HETATM   10  C16 UNL     1      22.510   0.779  51.650  1.00  0.00     0.102 A 
ENDROOT
BRANCH   7  11
HETATM   11  N3  UNL     1      26.080   0.442  53.893  1.00  0.00    -0.335 N 
HETATM   12  C7  UNL     1      26.200   1.904  53.781  1.00  0.00     0.158 C 
BRANCH  11  13
HETATM   13  C8  UNL     1      27.221  -0.361  53.674  1.00  0.00     0.035 A 
HETATM   14  C9  UNL     1      27.179  -1.523  52.948  1.00  0.00     0.029 A 
HETATM   15  C10 UNL     1      28.317  -2.306  52.739  1.00  0.00     0.002 A 
HETATM   16  C11 UNL     1      29.545  -1.924  53.271  1.00  0.00     0.000 A 
HETATM   17  C12 UNL     1      29.589  -0.756  54.003  1.00  0.00     0.002 A 
HETATM   18  C13 UNL     1      28.449   0.000  54.193  1.00  0.00     0.029 A 
ENDBRANCH  11  13
ENDBRANCH   7  11
BRANCH  10  19
HETATM   19  O2  UNL     1      22.433   1.531  50.466  1.00  0.00    -0.353 OA
HETATM   20  C17 UNL     1      23.388   2.582  50.302  1.00  0.00     0.210 C 
ENDBRANCH  10  19
BRANCH   1  21
HETATM   21  O1  UNL     1      20.203   0.253  51.332  1.00  0.00    -0.353 OA
HETATM   22  C1  UNL     1      18.931   0.274  51.923  1.00  0.00     0.210 C 
ENDBRANCH   1  21
TORSDOF 4
ENDMDL
MODEL 2
REMARK VINA RESULT:      -7.5      2.689      6.000
REMARK  4 active torsions:
REMARK  status: ('A' for Active; 'I' for Inactive)
REMARK    1  A    between atoms: O1_2  and  C2_3 
REMARK    2  A    between atoms: C6_9  and  N3_10 
REMARK    3  A    between atoms: N3_10  and  C8_12 
REMARK    4  A    between atoms: C16_20  and  O2_21 
ROOT
HETATM    1  C2  UNL     1      26.870  -0.156  53.832  1.00  0.00     0.103 A 
HETATM    2  C3  UNL     1      25.734  -0.792  54.298  1.00  0.00     0.072 A 
HETATM    3  C4  UNL     1      24.455  -0.333  53.961  1.00  0.00     0.075 A 
HETATM    4  N1  UNL     1      23.318  -0.916  54.387  1.00  0.00    -0.241 NA
HETATM    5  C5  UNL     1      22.132  -0.374  53.991  1.00  0.00     0.236 A 
HETATM    6  N2  UNL     1      22.053   0.709  53.197  1.00  0.00    -0.223 NA
HETATM    7  C6  UNL     1      23.201   1.303  52.761  1.00  0.00     0.144 A 
HETATM    8  C14 UNL     1      24.418   0.779  53.146  1.00  0.00     0.042 A 
HETATM    9  C15 UNL     1      25.519   1.453  52.652  1.00  0.00     0.057 A 
HETATM   10  C16 UNL     1      26.764   0.953  53.018  1.00  0.00     0.102 A 
ENDROOT
BRANCH   7  11
HETATM   11  N3  UNL     1      22.953   2.434  51.933  1.00  0.00    -0.335 N 
HETATM   12  C7  UNL     1      22.945   3.793  52.495  1.00  0.00     0.158 C 
BRANCH  11  13
HETATM   13  C8  UNL     1      22.711   2.259  50.553  1.00  0.00     0.035 A 
HETATM   14  C9  UNL     1      21.855   1.304  50.068  1.00  0.00     0.029 A 
HETATM   15  C10 UNL     1      21.625   1.143  48.699  1.00  0.00     0.002 A 
HETATM   16  C11 UNL     1      22.269   1.960  47.774  1.00  0.00     0.000 A 
HETATM   17  C12 UNL     1      23.131   2.920  48.260  1.00  0.00     0.002 A 
HETATM   18  C13 UNL     1      23.339   3.058  49.618  1.00  0.00     0.029 A 
ENDBRANCH  11  13
ENDBRANCH   7  11
BRANCH  10  19
HETATM   19  O2  UNL     1      27.956   1.552  52.579  1.00  0.00    -0.353 OA
HETATM   20  C17 UNL     1      28.579   2.484  53.466  1.00  0.00     0.210 C 
ENDBRANCH  10  19
BRANCH   1  21
HETATM   21  O1  UNL     1      28.120  -0.631  54.179  1.00  0.00    -0.353 OA
HETATM   22  C1  UNL     1      28.837  -1.526  53.371  1.00  0.00     0.210 C 
ENDBRANCH   1  21
TORSDOF 4
ENDMDL
MODEL 3
REMARK VINA RESULT:      -7.2      2.909      6.634
REMARK  4 active torsions:
REMARK  status: ('A' for Active; 'I' for Inactive)
REMARK    1  A    between atoms: O1_2  and  C2_3 
REMARK    2  A    between atoms: C6_9  and  N3_10 
REMARK    3  A    between atoms: N3_10  and  C8_12 
REMARK    4  A    between atoms: C16_20  and  O2_21 
ROOT
HETATM    1  C2  UNL     1      26.131  -0.248  52.987  1.00  0.00     0.103 A 
HETATM    2  C3  UNL     1      26.829   0.600  52.147  1.00  0.00     0.072 A 
HETATM    3  C4  UNL     1      26.221   1.731  51.590  1.00  0.00     0.075 A 
HETATM    4  N1  UNL     1      26.854   2.588  50.766  1.00  0.00    -0.241 NA
HETATM    5  C5  UNL     1      26.153   3.654  50.287  1.00  0.00     0.236 A 
HETATM    6  N2  UNL     1      24.865   3.882  50.602  1.00  0.00    -0.223 NA
HETATM    7  C6  UNL     1      24.218   3.018  51.436  1.00  0.00     0.144 A 
HETATM    8  C14 UNL     1      24.901   1.928  51.937  1.00  0.00     0.042 A 
HETATM    9  C15 UNL     1      24.157   1.115  52.772  1.00  0.00     0.057 A 
HETATM   10  C16 UNL     1      24.811   0.006  53.297  1.00  0.00     0.102 A 
ENDROOT
BRANCH   7  11
HETATM   11  N3  UNL     1      22.866   3.392  51.672  1.00  0.00    -0.335 N 
HETATM   12  C7  UNL     1      22.540   4.650  52.363  1.00  0.00     0.158 C 
BRANCH  11  13
HETATM   13  C8  UNL     1      21.815   2.553  51.241  1.00  0.00     0.035 A 
HETATM   14  C9  UNL     1      21.786   1.987  49.993  1.00  0.00     0.029 A 
HETATM   15  C10 UNL     1      20.739   1.158  49.581  1.00  0.00     0.002 A 
HETATM   16  C11 UNL     1      19.680   0.878  50.439  1.00  0.00     0.000 A 
HETATM   17  C12 UNL     1      19.708   1.447  51.695  1.00  0.00     0.002 A 
HETATM   18  C13 UNL     1      20.754   2.262  52.077  1.00  0.00     0.029 A 
ENDBRANCH  11  13
ENDBRANCH   7  11
BRANCH  10  19
HETATM   19  O2  UNL     1      24.161  -0.895  54.157  1.00  0.00    -0.353 OA
HETATM   20  C17 UNL     1      22.732  -0.889  54.142  1.00  0.00     0.210 C 
ENDBRANCH  10  19
BRANCH   1  21
HETATM   21  O1  UNL     1      26.757  -1.357  53.524  1.00  0.00    -0.353 OA
HETATM   22  C1  UNL     1      27.368  -2.337  52.727  1.00  0.00     0.210 C 
ENDBRANCH   1  21
TORSDOF 4
ENDMDL
MODEL 4
REMARK VINA RESULT:      -7.0      2.562      5.901
REMARK  4 active torsions:
REMARK  status: ('A' for Active; 'I' for Inactive)
REMARK    1  A    between atoms: O1_2  and  C2_3 
REMARK    2  A    between atoms: C6_9  and  N3_10 
REMARK    3  A    between atoms: N3_10  and  C8_12 
REMARK    4  A    between atoms: C16_20  and  O2_21 
ROOT
HETATM    1  C2  UNL     1      26.068  -0.359  53.695  1.00  0.00     0.103 A 
HETATM    2  C3  UNL     1      25.055  -0.836  54.506  1.00  0.00     0.072 A 
HETATM    3  C4  UNL     1      23.710  -0.589  54.208  1.00  0.00     0.075 A 
HETATM    4  N1  UNL     1      22.686  -1.031  54.964  1.00  0.00    -0.241 NA
HETATM    5  C5  UNL     1      21.419  -0.725  54.569  1.00  0.00     0.236 A 
HETATM    6  N2  UNL     1      21.151  -0.005  53.464  1.00  0.00    -0.223 NA
HETATM    7  C6  UNL     1      22.184   0.444  52.694  1.00  0.00     0.144 A 
HETATM    8  C14 UNL     1      23.480   0.151  53.068  1.00  0.00     0.042 A 
HETATM    9  C15 UNL     1      24.452   0.652  52.222  1.00  0.00     0.057 A 
HETATM   10  C16 UNL     1      25.770   0.376  52.566  1.00  0.00     0.102 A 
ENDROOT
BRANCH   7  11
HETATM   11  N3  UNL     1      21.742   1.188  51.564  1.00  0.00    -0.335 N 
HETATM   12  C7  UNL     1      20.916   0.558  50.522  1.00  0.00     0.158 C 
BRANCH  11  13
HETATM   13  C8  UNL     1      22.095   2.549  51.433  1.00  0.00     0.035 A 
HETATM   14  C9  UNL     1      21.832   3.478  52.406  1.00  0.00     0.029 A 
HETATM   15  C10 UNL     1      22.187   4.821  52.261  1.00  0.00     0.002 A 
HETATM   16  C11 UNL     1      22.830   5.262  51.107  1.00  0.00     0.000 A 
HETATM   17  C12 UNL     1      23.094   4.329  50.127  1.00  0.00     0.002 A 
HETATM   18  C13 UNL     1      22.732   3.007  50.296  1.00  0.00     0.029 A 
ENDBRANCH  11  13
ENDBRANCH   7  11
BRANCH  10  19
HETATM   19  O2  UNL     1      26.846   0.832  51.785  1.00  0.00    -0.353 OA
HETATM   20  C17 UNL     1      26.756   2.161  51.268  1.00  0.00     0.210 C 
ENDBRANCH  10  19
BRANCH   1  21
HETATM   21  O1  UNL     1      27.388  -0.618  54.012  1.00  0.00    -0.353 OA
HETATM   22  C1  UNL     1      28.118   0.178  54.909  1.00  0.00     0.210 C 
ENDBRANCH   1  21
TORSDOF 4
ENDMDL
MODEL 5
REMARK VINA RESULT:      -6.8      2.945      6.507
REMARK  4 active torsions:
REMARK  status: ('A' for Active; 'I' for Inactive)
REMARK    1  A    between atoms: O1_2  and  C2_3 
REMARK    2  A    between atoms: C6_9  and  N3_10 
REMARK    3  A    between atoms: N3_10  and  C8_12 
REMARK    4  A    between atoms: C16_20  and  O2_21 
ROOT
HETATM    1  C2  UNL     1      27.001   1.638  52.496  1.00  0.00     0.103 A 
HETATM    2  C3  UNL     1      26.267   0.763  53.277  1.00  0.00     0.072 A 
HETATM    3  C4  UNL     1      24.903   0.554  53.046  1.00  0.00     0.075 A 
HETATM    4  N1  UNL     1      24.143  -0.286  53.775  1.00  0.00    -0.241 NA
HETATM    5  C5  UNL     1      22.825  -0.403  53.452  1.00  0.00     0.236 A 
HETATM    6  N2  UNL     1      22.256   0.281  52.442  1.00  0.00    -0.223 NA
HETATM    7  C6  UNL     1      23.020   1.132  51.699  1.00  0.00     0.144 A 
HETATM    8  C14 UNL     1      24.359   1.273  52.002  1.00  0.00     0.042 A 
HETATM    9  C15 UNL     1      25.044   2.159  51.191  1.00  0.00     0.057 A 
HETATM   10  C16 UNL     1      26.397   2.327  51.465  1.00  0.00     0.102 A 
ENDROOT
BRANCH   7  11
HETATM   11  N3  UNL     1      22.278   1.780  50.673  1.00  0.00    -0.335 N 
HETATM   12  C7  UNL     1      21.638   1.004  49.599  1.00  0.00     0.158 C 
BRANCH  11  13
HETATM   13  C8  UNL     1      22.149   3.187  50.675  1.00  0.00     0.035 A 
HETATM   14  C9  UNL     1      22.339   3.948  49.551  1.00  0.00     0.029 A 
HETATM   15  C10 UNL     1      22.208   5.339  49.569  1.00  0.00     0.002 A 
HETATM   16  C11 UNL     1      21.874   6.002  50.746  1.00  0.00     0.000 A 
HETATM   17  C12 UNL     1      21.683   5.237  51.878  1.00  0.00     0.002 A 
HETATM   18  C13 UNL     1      21.819   3.864  51.832  1.00  0.00     0.029 A 
ENDBRANCH  11  13
ENDBRANCH   7  11
BRANCH  10  19
HETATM   19  O2  UNL     1      27.199   3.200  50.711  1.00  0.00    -0.353 OA
HETATM   20  C17 UNL     1      26.607   3.784  49.548  1.00  0.00     0.210 C 
ENDBRANCH  10  19
BRANCH   1  21
HETATM   21  O1  UNL     1      28.347   1.824  52.746  1.00  0.00    -0.353 OA
HETATM   22  C1  UNL     1      29.003   1.220  53.830  1.00  0.00     0.210 C 
ENDBRANCH   1  21
TORSDOF 4
ENDMDL
MODEL 6
REMARK VINA RESULT:      -6.8      2.933      6.153
REMARK  4 active torsions:
REMARK  status: ('A' for Active; 'I' for Inactive)
REMARK    1  A    between atoms: O1_2  and  C2_3 
REMARK    2  A    between atoms: C6_9  and  N3_10 
REMARK    3  A    between atoms: N3_10  and  C8_12 
REMARK    4  A    between atoms: C16_20  and  O2_21 
ROOT
HETATM    1  C2  UNL     1      22.984  -0.123  53.583  1.00  0.00     0.103 A 
HETATM    2  C3  UNL     1      24.330  -0.118  53.264  1.00  0.00     0.072 A 
HETATM    3  C4  UNL     1      24.876   0.869  52.436  1.00  0.00     0.075 A 
HETATM    4  N1  UNL     1      26.178   0.920  52.095  1.00  0.00    -0.241 NA
HETATM    5  C5  UNL     1      26.589   1.931  51.280  1.00  0.00     0.236 A 
HETATM    6  N2  UNL     1      25.753   2.874  50.806  1.00  0.00    -0.223 NA
HETATM    7  C6  UNL     1      24.433   2.829  51.149  1.00  0.00     0.144 A 
HETATM    8  C14 UNL     1      23.985   1.816  51.972  1.00  0.00     0.042 A 
HETATM    9  C15 UNL     1      22.634   1.859  52.259  1.00  0.00     0.057 A 
HETATM   10  C16 UNL     1      22.146   0.854  53.086  1.00  0.00     0.102 A 
ENDROOT
BRANCH   7  11
HETATM   11  N3  UNL     1      23.680   3.889  50.571  1.00  0.00    -0.335 N 
HETATM   12  C7  UNL     1      23.470   5.150  51.300  1.00  0.00     0.158 C 
BRANCH  11  13
HETATM   13  C8  UNL     1      23.124   3.739  49.282  1.00  0.00     0.035 A 
HETATM   14  C9  UNL     1      22.808   2.515  48.751  1.00  0.00     0.029 A 
HETATM   15  C10 UNL     1      22.258   2.383  47.474  1.00  0.00     0.002 A 
HETATM   16  C11 UNL     1      22.010   3.507  46.691  1.00  0.00     0.000 A 
HETATM   17  C12 UNL     1      22.328   4.739  47.223  1.00  0.00     0.002 A 
HETATM   18  C13 UNL     1      22.870   4.841  48.489  1.00  0.00     0.029 A 
ENDBRANCH  11  13
ENDBRANCH   7  11
BRANCH  10  19
HETATM   19  O2  UNL     1      20.790   0.792  53.449  1.00  0.00    -0.353 OA
HETATM   20  C17 UNL     1      19.864   0.403  52.432  1.00  0.00     0.210 C 
ENDBRANCH  10  19
BRANCH   1  21
HETATM   21  O1  UNL     1      22.472  -1.109  54.403  1.00  0.00    -0.353 OA
HETATM   22  C1  UNL     1      23.116  -1.519  55.581  1.00  0.00     0.210 C 
ENDBRANCH   1  21
TORSDOF 4
ENDMDL
MODEL 7
REMARK VINA RESULT:      -6.7      2.285      3.830
REMARK  4 active torsions:
REMARK  status: ('A' for Active; 'I' for Inactive)
REMARK    1  A    between atoms: O1_2  and  C2_3 
REMARK    2  A    between atoms: C6_9  and  N3_10 
REMARK    3  A    between atoms: N3_10  and  C8_12 
REMARK    4  A    between atoms: C16_20  and  O2_21 
ROOT
HETATM    1  C2  UNL     1      20.127   0.430  51.293  1.00  0.00     0.103 A 
HETATM    2  C3  UNL     1      20.611   1.016  50.138  1.00  0.00     0.072 A 
HETATM    3  C4  UNL     1      21.864   1.638  50.109  1.00  0.00     0.075 A 
HETATM    4  N1  UNL     1      22.382   2.223  49.012  1.00  0.00    -0.241 NA
HETATM    5  C5  UNL     1      23.613   2.796  49.111  1.00  0.00     0.236 A 
HETATM    6  N2  UNL     1      24.328   2.801  50.251  1.00  0.00    -0.223 NA
HETATM    7  C6  UNL     1      23.809   2.210  51.367  1.00  0.00     0.144 A 
HETATM    8  C14 UNL     1      22.563   1.621  51.299  1.00  0.00     0.042 A 
HETATM    9  C15 UNL     1      22.129   1.051  52.480  1.00  0.00     0.057 A 
HETATM   10  C16 UNL     1      20.877   0.447  52.451  1.00  0.00     0.102 A 
ENDROOT
BRANCH   7  11
HETATM   11  N3  UNL     1      24.680   2.298  52.488  1.00  0.00    -0.335 N 
HETATM   12  C7  UNL     1      24.510   3.359  53.494  1.00  0.00     0.158 C 
BRANCH  11  13
HETATM   13  C8  UNL     1      25.724   1.360  52.648  1.00  0.00     0.035 A 
HETATM   14  C9  UNL     1      25.516   0.006  52.589  1.00  0.00     0.029 A 
HETATM   15  C10 UNL     1      26.558  -0.910  52.749  1.00  0.00     0.002 A 
HETATM   16  C11 UNL     1      27.859  -0.468  52.975  1.00  0.00     0.000 A 
HETATM   17  C12 UNL     1      28.070   0.894  53.034  1.00  0.00     0.002 A 
HETATM   18  C13 UNL     1      27.021   1.777  52.873  1.00  0.00     0.029 A 
ENDBRANCH  11  13
ENDBRANCH   7  11
BRANCH  10  19
HETATM   19  O2  UNL     1      20.328  -0.166  53.589  1.00  0.00    -0.353 OA
HETATM   20  C17 UNL     1      21.245  -0.730  54.530  1.00  0.00     0.210 C 
ENDBRANCH  10  19
BRANCH   1  21
HETATM   21  O1  UNL     1      18.886  -0.178  51.293  1.00  0.00    -0.353 OA
HETATM   22  C1  UNL     1      17.694   0.544  51.128  1.00  0.00     0.210 C 
ENDBRANCH   1  21
TORSDOF 4
ENDMDL
MODEL 8
REMARK VINA RESULT:      -6.6      8.917     11.961
REMARK  4 active torsions:
REMARK  status: ('A' for Active; 'I' for Inactive)
REMARK    1  A    between atoms: O1_2  and  C2_3 
REMARK    2  A    between atoms: C6_9  and  N3_10 
REMARK    3  A    between atoms: N3_10  and  C8_12 
REMARK    4  A    between atoms: C16_20  and  O2_21 
ROOT
HETATM    1  C2  UNL     1      33.298   6.518  47.939  1.00  0.00     0.103 A 
HETATM    2  C3  UNL     1      33.045   7.610  48.749  1.00  0.00     0.072 A 
HETATM    3  C4  UNL     1      31.760   8.154  48.853  1.00  0.00     0.075 A 
HETATM    4  N1  UNL     1      31.460   9.215  49.627  1.00  0.00    -0.241 NA
HETATM    5  C5  UNL     1      30.170   9.653  49.644  1.00  0.00     0.236 A 
HETATM    6  N2  UNL     1      29.192   9.072  48.925  1.00  0.00    -0.223 NA
HETATM    7  C6  UNL     1      29.489   7.996  48.140  1.00  0.00     0.144 A 
HETATM    8  C14 UNL     1      30.787   7.530  48.101  1.00  0.00     0.042 A 
HETATM    9  C15 UNL     1      30.983   6.438  47.276  1.00  0.00     0.057 A 
HETATM   10  C16 UNL     1      32.279   5.938  47.211  1.00  0.00     0.102 A 
ENDROOT
BRANCH   7  11
HETATM   11  N3  UNL     1      28.353   7.496  47.444  1.00  0.00    -0.335 N 
HETATM   12  C7  UNL     1      28.046   7.947  46.077  1.00  0.00     0.158 C 
BRANCH  11  13
HETATM   13  C8  UNL     1      27.504   6.553  48.064  1.00  0.00     0.035 A 
HETATM   14  C9  UNL     1      27.939   5.314  48.458  1.00  0.00     0.029 A 
HETATM   15  C10 UNL     1      27.087   4.392  49.070  1.00  0.00     0.002 A 
HETATM   16  C11 UNL     1      25.751   4.709  49.301  1.00  0.00     0.000 A 
HETATM   17  C12 UNL     1      25.312   5.954  48.904  1.00  0.00     0.002 A 
HETATM   18  C13 UNL     1      26.176   6.847  48.302  1.00  0.00     0.029 A 
ENDBRANCH  11  13
ENDBRANCH   7  11
BRANCH  10  19
HETATM   19  O2  UNL     1      32.603   4.832  46.408  1.00  0.00    -0.353 OA
HETATM   20  C17 UNL     1      32.254   3.541  46.911  1.00  0.00     0.210 C 
ENDBRANCH  10  19
BRANCH   1  21
HETATM   21  O1  UNL     1      34.576   6.001  47.855  1.00  0.00    -0.353 OA
HETATM   22  C1  UNL     1      35.240   5.452  48.963  1.00  0.00     0.210 C 
ENDBRANCH   1  21
TORSDOF 4
ENDMDL
MODEL 9
REMARK VINA RESULT:      -6.4     16.806     19.451
REMARK  4 active torsions:
REMARK  status: ('A' for Active; 'I' for Inactive)
REMARK    1  A    between atoms: O1_2  and  C2_3 
REMARK    2  A    between atoms: C6_9  and  N3_10 
REMARK    3  A    between atoms: N3_10  and  C8_12 
REMARK    4  A    between atoms: C16_20  and  O2_21 
ROOT
HETATM    1  C2  UNL     1      41.416   8.814  50.596  1.00  0.00     0.103 A 
HETATM    2  C3  UNL     1      40.238   8.232  51.026  1.00  0.00     0.072 A 
HETATM    3  C4  UNL     1      40.142   7.637  52.289  1.00  0.00     0.075 A 
HETATM    4  N1  UNL     1      39.019   7.057  52.756  1.00  0.00    -0.241 NA
HETATM    5  C5  UNL     1      39.051   6.510  54.003  1.00  0.00     0.236 A 
HETATM    6  N2  UNL     1      40.149   6.527  54.781  1.00  0.00    -0.223 NA
HETATM    7  C6  UNL     1      41.289   7.114  54.314  1.00  0.00     0.144 A 
HETATM    8  C14 UNL     1      41.289   7.676  53.054  1.00  0.00     0.042 A 
HETATM    9  C15 UNL     1      42.491   8.243  52.675  1.00  0.00     0.057 A 
HETATM   10  C16 UNL     1      42.530   8.820  51.411  1.00  0.00     0.102 A 
ENDROOT
BRANCH   7  11
HETATM   11  N3  UNL     1      42.360   7.051  55.249  1.00  0.00    -0.335 N 
HETATM   12  C7  UNL     1      42.525   8.088  56.280  1.00  0.00     0.158 C 
BRANCH  11  13
HETATM   13  C8  UNL     1      43.283   5.983  55.194  1.00  0.00     0.035 A 
HETATM   14  C9  UNL     1      42.942   4.695  55.518  1.00  0.00     0.029 A 
HETATM   15  C10 UNL     1      43.866   3.649  55.459  1.00  0.00     0.002 A 
HETATM   16  C11 UNL     1      45.179   3.887  55.064  1.00  0.00     0.000 A 
HETATM   17  C12 UNL     1      45.523   5.181  54.738  1.00  0.00     0.002 A 
HETATM   18  C13 UNL     1      44.590   6.197  54.805  1.00  0.00     0.029 A 
ENDBRANCH  11  13
ENDBRANCH   7  11
BRANCH  10  19
HETATM   19  O2  UNL     1      43.695   9.428  50.913  1.00  0.00    -0.353 OA
HETATM   20  C17 UNL     1      44.742   8.560  50.474  1.00  0.00     0.210 C 
ENDBRANCH  10  19
BRANCH   1  21
HETATM   21  O1  UNL     1      41.483   9.395  49.344  1.00  0.00    -0.353 OA
HETATM   22  C1  UNL     1      41.522   8.638  48.163  1.00  0.00     0.210 C 
ENDBRANCH   1  21
TORSDOF 4
ENDMDL
