MODEL 1
REMARK VINA RESULT:      -8.1      0.000      0.000
REMARK  6 active torsions:
REMARK  status: ('A' for Active; 'I' for Inactive)
REMARK    1  A    between atoms: O1_2  and  C2_3 
REMARK    2  A    between atoms: C5_6  and  C6_7 
REMARK    3  A    between atoms: C11_15  and  N4_16 
REMARK    4  A    between atoms: N4_16  and  C12_17 
REMARK    5  A    between atoms: C15_20  and  O2_21 
REMARK    6  A    between atoms: C22_29  and  O3_30 
ROOT
HETATM    1  C6  UNL     1      23.687   3.896  51.250  1.00  0.00     0.124 C 
HETATM    2  N1  UNL     1      24.436   5.052  51.535  1.00  0.00    -0.408 N 
HETATM    3  C7  UNL     1      23.927   6.371  51.641  1.00  0.00     0.155 C 
HETATM    4  C8  UNL     1      22.959   6.737  50.542  1.00  0.00     0.010 A 
HETATM    5  C9  UNL     1      21.993   6.229  51.307  1.00  0.00     0.175 A 
HETATM    6  N2  UNL     1      21.132   5.910  50.310  1.00  0.00    -0.243 NA
HETATM    7  C10 UNL     1      21.510   6.185  49.014  1.00  0.00     0.226 A 
HETATM    8  N3  UNL     1      22.632   6.763  48.448  1.00  0.00    -0.196 NA
HETATM    9  C11 UNL     1      23.580   7.125  49.394  1.00  0.00     0.133 A 
HETATM   10  N5  UNL     1      20.653   5.327  48.200  1.00  0.00    -0.325 N 
HETATM   11  C17 UNL     1      21.626   4.208  48.389  1.00  0.00     0.031 C 
HETATM   12  C18 UNL     1      21.754   3.902  49.719  1.00  0.00     0.014 C 
HETATM   13  C19 UNL     1      23.224   3.802  49.869  1.00  0.00     0.060 C 
HETATM   14  C20 UNL     1      23.244   2.478  49.101  1.00  0.00    -0.013 C 
HETATM   15  C21 UNL     1      22.674   3.166  48.000  1.00  0.00     0.026 C 
HETATM   16  H7  UNL     1      25.307   4.960  52.063  1.00  0.00     0.154 HD
HETATM   17  H21 UNL     1      19.861   5.054  47.623  1.00  0.00     0.169 HD
ENDROOT
BRANCH   1  18
HETATM   18  C5  UNL     1      24.433   2.701  51.739  1.00  0.00    -0.002 A 
HETATM   19  C4  UNL     1      23.764   1.688  52.406  1.00  0.00     0.015 A 
HETATM   20  C3  UNL     1      24.480   0.594  52.844  1.00  0.00     0.037 A 
HETATM   21  C2  UNL     1      25.841   0.438  52.662  1.00  0.00     0.070 A 
HETATM   22  C23 UNL     1      26.522   1.462  51.988  1.00  0.00     0.073 A 
HETATM   23  C22 UNL     1      25.794   2.548  51.556  1.00  0.00     0.076 A 
BRANCH  21  24
HETATM   24  O1  UNL     1      26.530  -0.671  53.116  1.00  0.00    -0.356 OA
HETATM   25  C1  UNL     1      27.928  -0.773  53.118  1.00  0.00     0.210 C 
ENDBRANCH  21  24
BRANCH  23  26
HETATM   26  O3  UNL     1      26.430   3.579  50.886  1.00  0.00    -0.360 OA
HETATM   27  H26 UNL     1      27.094   3.440  50.123  1.00  0.00     0.217 HD
ENDBRANCH  23  26
ENDBRANCH   1  18
BRANCH   9  28
HETATM   28  N4  UNL     1      24.806   7.714  49.246  1.00  0.00    -0.370 N 
HETATM   29  H11 UNL     1      25.206   8.462  49.792  1.00  0.00     0.161 HD
BRANCH  28  30
HETATM   30  C12 UNL     1      25.531   7.129  48.148  1.00  0.00     0.085 C 
HETATM   31  C13 UNL     1      26.724   7.976  47.771  1.00  0.00     0.028 C 
HETATM   32  C14 UNL     1      27.875   6.997  47.655  1.00  0.00     0.034 C 
HETATM   33  C15 UNL     1      27.526   5.980  48.693  1.00  0.00     0.120 C 
HETATM   34  C16 UNL     1      26.048   5.786  48.513  1.00  0.00     0.056 C 
BRANCH  33  35
HETATM   35  O2  UNL     1      28.240   4.801  48.516  1.00  0.00    -0.396 OA
HETATM   36  H18 UNL     1      29.119   5.084  48.119  1.00  0.00     0.210 HD
ENDBRANCH  33  35
ENDBRANCH  28  30
ENDBRANCH   9  28
TORSDOF 6
ENDMDL
MODEL 2
REMARK VINA RESULT:      -8.1      2.542      5.410
REMARK  6 active torsions:
REMARK  status: ('A' for Active; 'I' for Inactive)
REMARK    1  A    between atoms: O1_2  and  C2_3 
REMARK    2  A    between atoms: C5_6  and  C6_7 
REMARK    3  A    between atoms: C11_15  and  N4_16 
REMARK    4  A    between atoms: N4_16  and  C12_17 
REMARK    5  A    between atoms: C15_20  and  O2_21 
REMARK    6  A    between atoms: C22_29  and  O3_30 
ROOT
HETATM    1  C6  UNL     1      24.343   2.404  51.206  1.00  0.00     0.124 C 
HETATM    2  N1  UNL     1      23.459   1.560  50.508  1.00  0.00    -0.408 N 
HETATM    3  C7  UNL     1      22.663   1.926  49.393  1.00  0.00     0.155 C 
HETATM    4  C8  UNL     1      21.964   3.253  49.557  1.00  0.00     0.010 A 
HETATM    5  C9  UNL     1      23.057   3.823  49.049  1.00  0.00     0.175 A 
HETATM    6  N2  UNL     1      22.906   5.037  49.634  1.00  0.00    -0.243 NA
HETATM    7  C10 UNL     1      21.814   5.234  50.449  1.00  0.00     0.226 A 
HETATM    8  N3  UNL     1      20.750   4.436  50.830  1.00  0.00    -0.196 NA
HETATM    9  C11 UNL     1      20.814   3.163  50.281  1.00  0.00     0.133 A 
HETATM   10  N5  UNL     1      22.178   6.387  51.267  1.00  0.00    -0.325 N 
HETATM   11  C17 UNL     1      22.887   5.469  52.211  1.00  0.00     0.031 C 
HETATM   12  C18 UNL     1      23.895   4.802  51.567  1.00  0.00     0.014 C 
HETATM   13  C19 UNL     1      23.688   3.412  52.034  1.00  0.00     0.060 C 
HETATM   14  C20 UNL     1      24.209   3.771  53.428  1.00  0.00    -0.013 C 
HETATM   15  C21 UNL     1      23.165   4.726  53.517  1.00  0.00     0.026 C 
HETATM   16  H7  UNL     1      23.629   0.552  50.513  1.00  0.00     0.154 HD
HETATM   17  H21 UNL     1      22.232   7.359  51.563  1.00  0.00     0.169 HD
ENDROOT
BRANCH   1  18
HETATM   18  C5  UNL     1      25.349   1.568  51.921  1.00  0.00    -0.002 A 
HETATM   19  C4  UNL     1      24.956   0.409  52.571  1.00  0.00     0.015 A 
HETATM   20  C3  UNL     1      25.910  -0.345  53.221  1.00  0.00     0.037 A 
HETATM   21  C2  UNL     1      27.252  -0.017  53.271  1.00  0.00     0.070 A 
HETATM   22  C23 UNL     1      27.654   1.155  52.616  1.00  0.00     0.073 A 
HETATM   23  C22 UNL     1      26.691   1.898  51.970  1.00  0.00     0.076 A 
BRANCH  21  24
HETATM   24  O1  UNL     1      28.183  -0.794  53.935  1.00  0.00    -0.356 OA
HETATM   25  C1  UNL     1      29.562  -0.742  53.685  1.00  0.00     0.210 C 
ENDBRANCH  21  24
BRANCH  23  26
HETATM   26  O3  UNL     1      27.047   3.062  51.310  1.00  0.00    -0.360 OA
HETATM   27  H26 UNL     1      27.111   3.146  50.295  1.00  0.00     0.217 HD
ENDBRANCH  23  26
ENDBRANCH   1  18
BRANCH   9  28
HETATM   28  N4  UNL     1      19.971   2.093  50.412  1.00  0.00    -0.370 N 
HETATM   29  H11 UNL     1      19.601   1.501  49.683  1.00  0.00     0.161 HD
BRANCH  28  30
HETATM   30  C12 UNL     1      19.623   1.874  51.791  1.00  0.00     0.085 C 
HETATM   31  C13 UNL     1      18.809   0.612  51.953  1.00  0.00     0.028 C 
HETATM   32  C14 UNL     1      19.455  -0.122  53.112  1.00  0.00     0.034 C 
HETATM   33  C15 UNL     1      20.894   0.253  52.956  1.00  0.00     0.120 C 
HETATM   34  C16 UNL     1      20.841   1.716  52.624  1.00  0.00     0.056 C 
BRANCH  33  35
HETATM   35  O2  UNL     1      21.618  -0.003  54.113  1.00  0.00    -0.396 OA
HETATM   36  H18 UNL     1      21.018  -0.579  54.677  1.00  0.00     0.210 HD
ENDBRANCH  33  35
ENDBRANCH  28  30
ENDBRANCH   9  28
TORSDOF 6
ENDMDL
MODEL 3
REMARK VINA RESULT:      -8.0      1.895      2.441
REMARK  6 active torsions:
REMARK  status: ('A' for Active; 'I' for Inactive)
REMARK    1  A    between atoms: O1_2  and  C2_3 
REMARK    2  A    between atoms: C5_6  and  C6_7 
REMARK    3  A    between atoms: C11_15  and  N4_16 
REMARK    4  A    between atoms: N4_16  and  C12_17 
REMARK    5  A    between atoms: C15_20  and  O2_21 
REMARK    6  A    between atoms: C22_29  and  O3_30 
ROOT
HETATM    1  C6  UNL     1      23.000   3.852  51.294  1.00  0.00     0.124 C 
HETATM    2  N1  UNL     1      24.107   4.596  51.740  1.00  0.00    -0.408 N 
HETATM    3  C7  UNL     1      24.266   6.001  51.635  1.00  0.00     0.155 C 
HETATM    4  C8  UNL     1      23.883   6.554  50.284  1.00  0.00     0.010 A 
HETATM    5  C9  UNL     1      22.638   6.662  50.748  1.00  0.00     0.175 A 
HETATM    6  N2  UNL     1      22.001   6.581  49.554  1.00  0.00    -0.243 NA
HETATM    7  C10 UNL     1      22.767   6.433  48.419  1.00  0.00     0.226 A 
HETATM    8  N3  UNL     1      24.129   6.355  48.188  1.00  0.00    -0.196 NA
HETATM    9  C11 UNL     1      24.873   6.427  49.358  1.00  0.00     0.133 A 
HETATM   10  N5  UNL     1      21.837   5.908  47.423  1.00  0.00    -0.325 N 
HETATM   11  C17 UNL     1      22.094   4.528  47.939  1.00  0.00     0.031 C 
HETATM   12  C18 UNL     1      21.734   4.434  49.258  1.00  0.00     0.014 C 
HETATM   13  C19 UNL     1      22.899   3.731  49.842  1.00  0.00     0.060 C 
HETATM   14  C20 UNL     1      22.484   2.420  49.171  1.00  0.00    -0.013 C 
HETATM   15  C21 UNL     1      22.591   3.084  47.923  1.00  0.00     0.026 C 
HETATM   16  H7  UNL     1      24.675   4.227  52.506  1.00  0.00     0.154 HD
HETATM   17  H21 UNL     1      21.177   5.912  46.648  1.00  0.00     0.169 HD
ENDROOT
BRANCH   1  18
HETATM   18  C5  UNL     1      22.954   2.558  52.031  1.00  0.00    -0.002 A 
HETATM   19  C4  UNL     1      24.110   1.813  52.203  1.00  0.00     0.015 A 
HETATM   20  C3  UNL     1      24.037   0.622  52.893  1.00  0.00     0.037 A 
HETATM   21  C2  UNL     1      22.870   0.110  53.431  1.00  0.00     0.070 A 
HETATM   22  C23 UNL     1      21.699   0.860  53.259  1.00  0.00     0.073 A 
HETATM   23  C22 UNL     1      21.787   2.048  52.569  1.00  0.00     0.076 A 
BRANCH  21  24
HETATM   24  O1  UNL     1      22.831  -1.091  54.116  1.00  0.00    -0.356 OA
HETATM   25  C1  UNL     1      21.644  -1.747  54.469  1.00  0.00     0.210 C 
ENDBRANCH  21  24
BRANCH  23  26
HETATM   26  O3  UNL     1      20.652   2.818  52.378  1.00  0.00    -0.360 OA
HETATM   27  H26 UNL     1      20.664   3.773  52.017  1.00  0.00     0.217 HD
ENDBRANCH  23  26
ENDBRANCH   1  18
BRANCH   9  28
HETATM   28  N4  UNL     1      26.226   6.385  49.556  1.00  0.00    -0.370 N 
HETATM   29  H11 UNL     1      26.731   6.517  50.419  1.00  0.00     0.161 HD
BRANCH  28  30
HETATM   30  C12 UNL     1      26.921   6.123  48.324  1.00  0.00     0.085 C 
HETATM   31  C13 UNL     1      27.628   7.361  47.823  1.00  0.00     0.028 C 
HETATM   32  C14 UNL     1      29.026   6.894  47.466  1.00  0.00     0.034 C 
HETATM   33  C15 UNL     1      29.262   5.817  48.476  1.00  0.00     0.120 C 
HETATM   34  C16 UNL     1      27.957   5.077  48.514  1.00  0.00     0.056 C 
BRANCH  33  35
HETATM   35  O2  UNL     1      30.325   4.999  48.114  1.00  0.00    -0.396 OA
HETATM   36  H18 UNL     1      29.927   4.082  48.008  1.00  0.00     0.210 HD
ENDBRANCH  33  35
ENDBRANCH  28  30
ENDBRANCH   9  28
TORSDOF 6
ENDMDL
MODEL 4
REMARK VINA RESULT:      -8.0      3.638      5.459
REMARK  6 active torsions:
REMARK  status: ('A' for Active; 'I' for Inactive)
REMARK    1  A    between atoms: O1_2  and  C2_3 
REMARK    2  A    between atoms: C5_6  and  C6_7 
REMARK    3  A    between atoms: C11_15  and  N4_16 
REMARK    4  A    between atoms: N4_16  and  C12_17 
REMARK    5  A    between atoms: C15_20  and  O2_21 
REMARK    6  A    between atoms: C22_29  and  O3_30 
ROOT
HETATM    1  C6  UNL     1      20.747   2.576  51.248  1.00  0.00     0.124 C 
HETATM    2  N1  UNL     1      21.617   2.924  52.298  1.00  0.00    -0.408 N 
HETATM    3  C7  UNL     1      22.282   4.167  52.452  1.00  0.00     0.155 C 
HETATM    4  C8  UNL     1      22.904   4.683  51.178  1.00  0.00     0.010 A 
HETATM    5  C9  UNL     1      21.734   5.265  50.913  1.00  0.00     0.175 A 
HETATM    6  N2  UNL     1      21.858   5.296  49.564  1.00  0.00    -0.243 NA
HETATM    7  C10 UNL     1      23.005   4.778  49.005  1.00  0.00     0.226 A 
HETATM    8  N3  UNL     1      24.149   4.205  49.530  1.00  0.00    -0.196 NA
HETATM    9  C11 UNL     1      24.119   4.126  50.916  1.00  0.00     0.133 A 
HETATM   10  N5  UNL     1      22.642   4.516  47.615  1.00  0.00    -0.325 N 
HETATM   11  C17 UNL     1      22.084   3.192  48.030  1.00  0.00     0.031 C 
HETATM   12  C18 UNL     1      21.067   3.361  48.932  1.00  0.00     0.014 C 
HETATM   13  C19 UNL     1      21.407   2.355  49.965  1.00  0.00     0.060 C 
HETATM   14  C20 UNL     1      20.994   1.213  49.033  1.00  0.00    -0.013 C 
HETATM   15  C21 UNL     1      21.976   1.671  48.119  1.00  0.00     0.026 C 
HETATM   16  H7  UNL     1      21.514   2.457  53.201  1.00  0.00     0.154 HD
HETATM   17  H21 UNL     1      22.551   4.675  46.614  1.00  0.00     0.169 HD
ENDROOT
BRANCH   1  18
HETATM   18  C5  UNL     1      19.868   1.459  51.697  1.00  0.00    -0.002 A 
HETATM   19  C4  UNL     1      20.389   0.423  52.454  1.00  0.00     0.015 A 
HETATM   20  C3  UNL     1      19.551  -0.595  52.856  1.00  0.00     0.037 A 
HETATM   21  C2  UNL     1      18.204  -0.654  52.549  1.00  0.00     0.070 A 
HETATM   22  C23 UNL     1      17.672   0.392  51.783  1.00  0.00     0.073 A 
HETATM   23  C22 UNL     1      18.521   1.402  51.388  1.00  0.00     0.076 A 
BRANCH  21  24
HETATM   24  O1  UNL     1      17.390  -1.691  52.967  1.00  0.00    -0.356 OA
HETATM   25  C1  UNL     1      17.834  -2.756  53.764  1.00  0.00     0.210 C 
ENDBRANCH  21  24
BRANCH  23  26
HETATM   26  O3  UNL     1      18.034   2.454  50.631  1.00  0.00    -0.360 OA
HETATM   27  H26 UNL     1      18.609   3.224  50.288  1.00  0.00     0.217 HD
ENDBRANCH  23  26
ENDBRANCH   1  18
BRANCH   9  28
HETATM   28  N4  UNL     1      25.039   3.632  51.800  1.00  0.00    -0.370 N 
HETATM   29  H11 UNL     1      25.374   4.060  52.650  1.00  0.00     0.161 HD
BRANCH  28  30
HETATM   30  C12 UNL     1      25.532   2.351  51.371  1.00  0.00     0.085 C 
HETATM   31  C13 UNL     1      26.923   2.097  51.904  1.00  0.00     0.028 C 
HETATM   32  C14 UNL     1      26.872   0.691  52.470  1.00  0.00     0.034 C 
HETATM   33  C15 UNL     1      25.465   0.605  52.967  1.00  0.00     0.120 C 
HETATM   34  C16 UNL     1      24.666   1.256  51.875  1.00  0.00     0.056 C 
BRANCH  33  35
HETATM   35  O2  UNL     1      25.080  -0.711  53.192  1.00  0.00    -0.396 OA
HETATM   36  H18 UNL     1      25.466  -1.232  52.425  1.00  0.00     0.210 HD
ENDBRANCH  33  35
ENDBRANCH  28  30
ENDBRANCH   9  28
TORSDOF 6
ENDMDL
MODEL 5
REMARK VINA RESULT:      -7.8      3.775      7.893
REMARK  6 active torsions:
REMARK  status: ('A' for Active; 'I' for Inactive)
REMARK    1  A    between atoms: O1_2  and  C2_3 
REMARK    2  A    between atoms: C5_6  and  C6_7 
REMARK    3  A    between atoms: C11_15  and  N4_16 
REMARK    4  A    between atoms: N4_16  and  C12_17 
REMARK    5  A    between atoms: C15_20  and  O2_21 
REMARK    6  A    between atoms: C22_29  and  O3_30 
ROOT
HETATM    1  C6  UNL     1      29.743   7.424  47.722  1.00  0.00     0.124 C 
HETATM    2  N1  UNL     1      28.629   6.622  48.031  1.00  0.00    -0.408 N 
HETATM    3  C7  UNL     1      27.268   7.000  47.903  1.00  0.00     0.155 C 
HETATM    4  C8  UNL     1      26.972   8.383  48.429  1.00  0.00     0.010 A 
HETATM    5  C9  UNL     1      27.284   8.845  47.219  1.00  0.00     0.175 A 
HETATM    6  N2  UNL     1      27.659  10.091  47.600  1.00  0.00    -0.243 NA
HETATM    7  C10 UNL     1      27.597  10.405  48.940  1.00  0.00     0.226 A 
HETATM    8  N3  UNL     1      27.202   9.708  50.068  1.00  0.00    -0.196 NA
HETATM    9  C11 UNL     1      26.798   8.412  49.780  1.00  0.00     0.133 A 
HETATM   10  N5  UNL     1      28.478  11.561  49.079  1.00  0.00    -0.325 N 
HETATM   11  C17 UNL     1      29.643  10.632  49.214  1.00  0.00     0.031 C 
HETATM   12  C18 UNL     1      29.776   9.863  48.087  1.00  0.00     0.014 C 
HETATM   13  C19 UNL     1      29.982   8.514  48.663  1.00  0.00     0.060 C 
HETATM   14  C20 UNL     1      31.395   8.890  49.117  1.00  0.00    -0.013 C 
HETATM   15  C21 UNL     1      30.815   9.926  49.892  1.00  0.00     0.026 C 
HETATM   16  H7  UNL     1      28.725   5.605  47.990  1.00  0.00     0.154 HD
HETATM   17  H21 UNL     1      28.757  12.538  49.142  1.00  0.00     0.169 HD
ENDROOT
BRANCH   1  18
HETATM   18  C5  UNL     1      30.921   6.545  47.475  1.00  0.00    -0.002 A 
HETATM   19  C4  UNL     1      31.648   6.666  46.302  1.00  0.00     0.015 A 
HETATM   20  C3  UNL     1      32.734   5.841  46.104  1.00  0.00     0.037 A 
HETATM   21  C2  UNL     1      33.153   4.883  47.009  1.00  0.00     0.070 A 
HETATM   22  C23 UNL     1      32.420   4.756  48.197  1.00  0.00     0.073 A 
HETATM   23  C22 UNL     1      31.338   5.588  48.382  1.00  0.00     0.076 A 
BRANCH  21  24
HETATM   24  O1  UNL     1      34.247   4.069  46.778  1.00  0.00    -0.356 OA
HETATM   25  C1  UNL     1      34.936   4.020  45.559  1.00  0.00     0.210 C 
ENDBRANCH  21  24
BRANCH  23  26
HETATM   26  O3  UNL     1      30.589   5.494  49.543  1.00  0.00    -0.360 OA
HETATM   27  H26 UNL     1      29.579   5.632  49.583  1.00  0.00     0.217 HD
ENDBRANCH  23  26
ENDBRANCH   1  18
BRANCH   9  28
HETATM   28  N4  UNL     1      26.346   7.417  50.603  1.00  0.00    -0.370 N 
HETATM   29  H11 UNL     1      26.764   7.079  51.456  1.00  0.00     0.161 HD
BRANCH  28  30
HETATM   30  C12 UNL     1      25.125   6.845  50.100  1.00  0.00     0.085 C 
HETATM   31  C13 UNL     1      25.200   5.336  50.076  1.00  0.00     0.028 C 
HETATM   32  C14 UNL     1      23.901   4.873  50.706  1.00  0.00     0.034 C 
HETATM   33  C15 UNL     1      23.637   5.951  51.707  1.00  0.00     0.120 C 
HETATM   34  C16 UNL     1      23.975   7.211  50.964  1.00  0.00     0.056 C 
BRANCH  33  35
HETATM   35  O2  UNL     1      22.318   5.931  52.145  1.00  0.00    -0.396 OA
HETATM   36  H18 UNL     1      22.020   6.891  52.121  1.00  0.00     0.210 HD
ENDBRANCH  33  35
ENDBRANCH  28  30
ENDBRANCH   9  28
TORSDOF 6
ENDMDL
MODEL 6
REMARK VINA RESULT:      -7.8      1.868      6.705
REMARK  6 active torsions:
REMARK  status: ('A' for Active; 'I' for Inactive)
REMARK    1  A    between atoms: O1_2  and  C2_3 
REMARK    2  A    between atoms: C5_6  and  C6_7 
REMARK    3  A    between atoms: C11_15  and  N4_16 
REMARK    4  A    between atoms: N4_16  and  C12_17 
REMARK    5  A    between atoms: C15_20  and  O2_21 
REMARK    6  A    between atoms: C22_29  and  O3_30 
ROOT
HETATM    1  C6  UNL     1      25.950   5.633  48.865  1.00  0.00     0.124 C 
HETATM    2  N1  UNL     1      26.413   4.334  49.145  1.00  0.00    -0.408 N 
HETATM    3  C7  UNL     1      25.605   3.188  49.353  1.00  0.00     0.155 C 
HETATM    4  C8  UNL     1      24.423   3.436  50.258  1.00  0.00     0.010 A 
HETATM    5  C9  UNL     1      23.744   3.801  49.171  1.00  0.00     0.175 A 
HETATM    6  N2  UNL     1      22.855   4.617  49.789  1.00  0.00    -0.243 NA
HETATM    7  C10 UNL     1      22.952   4.769  51.154  1.00  0.00     0.226 A 
HETATM    8  N3  UNL     1      23.792   4.238  52.117  1.00  0.00    -0.196 NA
HETATM    9  C11 UNL     1      24.746   3.384  51.580  1.00  0.00     0.133 A 
HETATM   10  N5  UNL     1      22.232   6.008  51.431  1.00  0.00    -0.325 N 
HETATM   11  C17 UNL     1      23.476   6.778  51.121  1.00  0.00     0.031 C 
HETATM   12  C18 UNL     1      23.874   6.548  49.830  1.00  0.00     0.014 C 
HETATM   13  C19 UNL     1      25.326   6.309  49.998  1.00  0.00     0.060 C 
HETATM   14  C20 UNL     1      25.569   7.793  50.283  1.00  0.00    -0.013 C 
HETATM   15  C21 UNL     1      24.685   7.674  51.385  1.00  0.00     0.026 C 
HETATM   16  H7  UNL     1      27.347   4.063  48.829  1.00  0.00     0.154 HD
HETATM   17  H21 UNL     1      21.458   6.616  51.692  1.00  0.00     0.169 HD
ENDROOT
BRANCH   1  18
HETATM   18  C5  UNL     1      27.041   6.404  48.203  1.00  0.00    -0.002 A 
HETATM   19  C4  UNL     1      26.734   7.445  47.342  1.00  0.00     0.015 A 
HETATM   20  C3  UNL     1      27.763   8.142  46.747  1.00  0.00     0.037 A 
HETATM   21  C2  UNL     1      29.103   7.868  46.953  1.00  0.00     0.070 A 
HETATM   22  C23 UNL     1      29.418   6.815  47.823  1.00  0.00     0.073 A 
HETATM   23  C22 UNL     1      28.379   6.128  48.410  1.00  0.00     0.076 A 
BRANCH  21  24
HETATM   24  O1  UNL     1      30.112   8.586  46.338  1.00  0.00    -0.356 OA
HETATM   25  C1  UNL     1      30.634   9.785  46.844  1.00  0.00     0.210 C 
ENDBRANCH  21  24
BRANCH  23  26
HETATM   26  O3  UNL     1      28.649   5.082  49.276  1.00  0.00    -0.360 OA
HETATM   27  H26 UNL     1      27.947   4.635  49.867  1.00  0.00     0.217 HD
ENDBRANCH  23  26
ENDBRANCH   1  18
BRANCH   9  28
HETATM   28  N4  UNL     1      25.745   2.672  52.187  1.00  0.00    -0.370 N 
HETATM   29  H11 UNL     1      26.598   3.024  52.596  1.00  0.00     0.161 HD
BRANCH  28  30
HETATM   30  C12 UNL     1      25.451   1.264  52.183  1.00  0.00     0.085 C 
HETATM   31  C13 UNL     1      26.688   0.451  51.879  1.00  0.00     0.028 C 
HETATM   32  C14 UNL     1      26.702  -0.644  52.928  1.00  0.00     0.034 C 
HETATM   33  C15 UNL     1      26.095   0.046  54.108  1.00  0.00     0.120 C 
HETATM   34  C16 UNL     1      24.957   0.824  53.513  1.00  0.00     0.056 C 
BRANCH  33  35
HETATM   35  O2  UNL     1      25.671  -0.861  55.070  1.00  0.00    -0.396 OA
HETATM   36  H18 UNL     1      25.187  -1.579  54.558  1.00  0.00     0.210 HD
ENDBRANCH  33  35
ENDBRANCH  28  30
ENDBRANCH   9  28
TORSDOF 6
ENDMDL
MODEL 7
REMARK VINA RESULT:      -7.7      4.479      7.900
REMARK  6 active torsions:
REMARK  status: ('A' for Active; 'I' for Inactive)
REMARK    1  A    between atoms: O1_2  and  C2_3 
REMARK    2  A    between atoms: C5_6  and  C6_7 
REMARK    3  A    between atoms: C11_15  and  N4_16 
REMARK    4  A    between atoms: N4_16  and  C12_17 
REMARK    5  A    between atoms: C15_20  and  O2_21 
REMARK    6  A    between atoms: C22_29  and  O3_30 
ROOT
HETATM    1  C6  UNL     1      28.433   8.785  48.708  1.00  0.00     0.124 C 
HETATM    2  N1  UNL     1      29.607   8.529  49.440  1.00  0.00    -0.408 N 
HETATM    3  C7  UNL     1      30.667   9.445  49.665  1.00  0.00     0.155 C 
HETATM    4  C8  UNL     1      31.078  10.209  48.431  1.00  0.00     0.010 A 
HETATM    5  C9  UNL     1      30.145  11.107  48.749  1.00  0.00     0.175 A 
HETATM    6  N2  UNL     1      29.921  11.576  47.496  1.00  0.00    -0.243 NA
HETATM    7  C10 UNL     1      30.645  11.029  46.460  1.00  0.00     0.226 A 
HETATM    8  N3  UNL     1      31.625  10.055  46.388  1.00  0.00    -0.196 NA
HETATM    9  C11 UNL     1      31.925   9.508  47.628  1.00  0.00     0.133 A 
HETATM   10  N5  UNL     1      29.873  11.362  45.267  1.00  0.00    -0.325 N 
HETATM   11  C17 UNL     1      29.029  10.149  45.497  1.00  0.00     0.031 C 
HETATM   12  C18 UNL     1      28.394  10.229  46.708  1.00  0.00     0.014 C 
HETATM   13  C19 UNL     1      28.629   8.876  47.265  1.00  0.00     0.060 C 
HETATM   14  C20 UNL     1      27.633   8.263  46.277  1.00  0.00    -0.013 C 
HETATM   15  C21 UNL     1      28.443   8.764  45.227  1.00  0.00     0.026 C 
HETATM   16  H7  UNL     1      29.589   7.815  50.171  1.00  0.00     0.154 HD
HETATM   17  H21 UNL     1      29.588  11.877  44.436  1.00  0.00     0.169 HD
ENDROOT
BRANCH   1  18
HETATM   18  C5  UNL     1      27.376   7.825  49.134  1.00  0.00    -0.002 A 
HETATM   19  C4  UNL     1      27.340   6.547  48.600  1.00  0.00     0.015 A 
HETATM   20  C3  UNL     1      26.353   5.680  49.016  1.00  0.00     0.037 A 
HETATM   21  C2  UNL     1      25.379   6.004  49.942  1.00  0.00     0.070 A 
HETATM   22  C23 UNL     1      25.411   7.296  50.484  1.00  0.00     0.073 A 
HETATM   23  C22 UNL     1      26.403   8.151  50.061  1.00  0.00     0.076 A 
BRANCH  21  24
HETATM   24  O1  UNL     1      24.400   5.110  50.336  1.00  0.00    -0.356 OA
HETATM   25  C1  UNL     1      23.655   5.242  51.516  1.00  0.00     0.210 C 
ENDBRANCH  21  24
BRANCH  23  26
HETATM   26  O3  UNL     1      26.469   9.436  50.573  1.00  0.00    -0.360 OA
HETATM   27  H26 UNL     1      25.911   9.765  51.362  1.00  0.00     0.217 HD
ENDBRANCH  23  26
ENDBRANCH   1  18
BRANCH   9  28
HETATM   28  N4  UNL     1      32.820   8.534  47.978  1.00  0.00    -0.370 N 
HETATM   29  H11 UNL     1      33.551   8.583  48.673  1.00  0.00     0.161 HD
BRANCH  28  30
HETATM   30  C12 UNL     1      32.617   7.341  47.201  1.00  0.00     0.085 C 
HETATM   31  C13 UNL     1      33.933   6.755  46.746  1.00  0.00     0.028 C 
HETATM   32  C14 UNL     1      33.834   5.277  47.069  1.00  0.00     0.034 C 
HETATM   33  C15 UNL     1      32.995   5.283  48.306  1.00  0.00     0.120 C 
HETATM   34  C16 UNL     1      31.931   6.298  48.004  1.00  0.00     0.056 C 
BRANCH  33  35
HETATM   35  O2  UNL     1      32.468   4.025  48.573  1.00  0.00    -0.396 OA
HETATM   36  H18 UNL     1      33.122   3.596  49.204  1.00  0.00     0.210 HD
ENDBRANCH  33  35
ENDBRANCH  28  30
ENDBRANCH   9  28
TORSDOF 6
ENDMDL
MODEL 8
REMARK VINA RESULT:      -7.7      3.750      6.475
REMARK  6 active torsions:
REMARK  status: ('A' for Active; 'I' for Inactive)
REMARK    1  A    between atoms: O1_2  and  C2_3 
REMARK    2  A    between atoms: C5_6  and  C6_7 
REMARK    3  A    between atoms: C11_15  and  N4_16 
REMARK    4  A    between atoms: N4_16  and  C12_17 
REMARK    5  A    between atoms: C15_20  and  O2_21 
REMARK    6  A    between atoms: C22_29  and  O3_30 
ROOT
HETATM    1  C6  UNL     1      23.720   1.613  51.549  1.00  0.00     0.124 C 
HETATM    2  N1  UNL     1      22.668   0.685  51.449  1.00  0.00    -0.408 N 
HETATM    3  C7  UNL     1      21.619   0.712  50.496  1.00  0.00     0.155 C 
HETATM    4  C8  UNL     1      21.014   2.080  50.299  1.00  0.00     0.010 A 
HETATM    5  C9  UNL     1      21.951   2.294  49.375  1.00  0.00     0.175 A 
HETATM    6  N2  UNL     1      21.983   3.646  49.471  1.00  0.00    -0.243 NA
HETATM    7  C10 UNL     1      21.143   4.252  50.378  1.00  0.00     0.226 A 
HETATM    8  N3  UNL     1      20.196   3.778  51.269  1.00  0.00    -0.196 NA
HETATM    9  C11 UNL     1      20.089   2.395  51.248  1.00  0.00     0.133 A 
HETATM   10  N5  UNL     1      21.731   5.572  50.587  1.00  0.00    -0.325 N 
HETATM   11  C17 UNL     1      22.639   4.983  51.618  1.00  0.00     0.031 C 
HETATM   12  C18 UNL     1      23.433   4.014  51.062  1.00  0.00     0.014 C 
HETATM   13  C19 UNL     1      23.324   2.923  52.057  1.00  0.00     0.060 C 
HETATM   14  C20 UNL     1      24.194   3.699  53.048  1.00  0.00    -0.013 C 
HETATM   15  C21 UNL     1      23.230   4.737  53.005  1.00  0.00     0.026 C 
HETATM   16  H7  UNL     1      22.812  -0.265  51.798  1.00  0.00     0.154 HD
HETATM   17  H21 UNL     1      21.880   6.572  50.469  1.00  0.00     0.169 HD
ENDROOT
BRANCH   1  18
HETATM   18  C5  UNL     1      24.859   0.982  52.274  1.00  0.00    -0.002 A 
HETATM   19  C4  UNL     1      24.619   0.139  53.347  1.00  0.00     0.015 A 
HETATM   20  C3  UNL     1      25.692  -0.432  53.997  1.00  0.00     0.037 A 
HETATM   21  C2  UNL     1      27.012  -0.217  53.646  1.00  0.00     0.070 A 
HETATM   22  C23 UNL     1      27.259   0.636  52.562  1.00  0.00     0.073 A 
HETATM   23  C22 UNL     1      26.178   1.199  51.922  1.00  0.00     0.076 A 
BRANCH  21  24
HETATM   24  O1  UNL     1      28.066  -0.805  54.321  1.00  0.00    -0.356 OA
HETATM   25  C1  UNL     1      29.373  -0.873  53.816  1.00  0.00     0.210 C 
ENDBRANCH  21  24
BRANCH  23  26
HETATM   26  O3  UNL     1      26.380   2.047  50.846  1.00  0.00    -0.360 OA
HETATM   27  H26 UNL     1      26.843   2.954  50.913  1.00  0.00     0.217 HD
ENDBRANCH  23  26
ENDBRANCH   1  18
BRANCH   9  28
HETATM   28  N4  UNL     1      19.286   1.553  51.967  1.00  0.00    -0.370 N 
HETATM   29  H11 UNL     1      19.320   1.356  52.956  1.00  0.00     0.161 HD
BRANCH  28  30
HETATM   30  C12 UNL     1      18.313   0.917  51.119  1.00  0.00     0.085 C 
HETATM   31  C13 UNL     1      17.919  -0.437  51.663  1.00  0.00     0.028 C 
HETATM   32  C14 UNL     1      16.404  -0.454  51.604  1.00  0.00     0.034 C 
HETATM   33  C15 UNL     1      16.066   0.980  51.857  1.00  0.00     0.120 C 
HETATM   34  C16 UNL     1      17.073   1.730  51.035  1.00  0.00     0.056 C 
BRANCH  33  35
HETATM   35  O2  UNL     1      14.758   1.271  51.488  1.00  0.00    -0.396 OA
HETATM   36  H18 UNL     1      14.750   1.214  50.484  1.00  0.00     0.210 HD
ENDBRANCH  33  35
ENDBRANCH  28  30
ENDBRANCH   9  28
TORSDOF 6
ENDMDL
MODEL 9
REMARK VINA RESULT:      -7.4      6.757     11.498
REMARK  6 active torsions:
REMARK  status: ('A' for Active; 'I' for Inactive)
REMARK    1  A    between atoms: O1_2  and  C2_3 
REMARK    2  A    between atoms: C5_6  and  C6_7 
REMARK    3  A    between atoms: C11_15  and  N4_16 
REMARK    4  A    between atoms: N4_16  and  C12_17 
REMARK    5  A    between atoms: C15_20  and  O2_21 
REMARK    6  A    between atoms: C22_29  and  O3_30 
ROOT
HETATM    1  C6  UNL     1      33.559   7.885  46.522  1.00  0.00     0.124 C 
HETATM    2  N1  UNL     1      32.818   8.226  47.669  1.00  0.00    -0.408 N 
HETATM    3  C7  UNL     1      32.937   7.625  48.948  1.00  0.00     0.155 C 
HETATM    4  C8  UNL     1      33.009   6.118  48.904  1.00  0.00     0.010 A 
HETATM    5  C9  UNL     1      34.329   6.245  48.766  1.00  0.00     0.175 A 
HETATM    6  N2  UNL     1      34.549   5.071  48.125  1.00  0.00    -0.243 NA
HETATM    7  C10 UNL     1      33.467   4.258  47.869  1.00  0.00     0.226 A 
HETATM    8  N3  UNL     1      32.114   4.354  48.142  1.00  0.00    -0.196 NA
HETATM    9  C11 UNL     1      31.785   5.530  48.800  1.00  0.00     0.133 A 
HETATM   10  N5  UNL     1      33.925   3.375  46.801  1.00  0.00    -0.325 N 
HETATM   11  C17 UNL     1      33.547   4.420  45.800  1.00  0.00     0.031 C 
HETATM   12  C18 UNL     1      34.255   5.573  46.020  1.00  0.00     0.014 C 
HETATM   13  C19 UNL     1      33.195   6.603  45.927  1.00  0.00     0.060 C 
HETATM   14  C20 UNL     1      33.104   6.416  44.411  1.00  0.00    -0.013 C 
HETATM   15  C21 UNL     1      32.773   5.058  44.648  1.00  0.00     0.026 C 
HETATM   16  H7  UNL     1      32.440   9.172  47.750  1.00  0.00     0.154 HD
HETATM   17  H21 UNL     1      34.310   2.542  46.360  1.00  0.00     0.169 HD
ENDROOT
BRANCH   1  18
HETATM   18  C5  UNL     1      33.546   9.037  45.576  1.00  0.00    -0.002 A 
HETATM   19  C4  UNL     1      32.343   9.553  45.123  1.00  0.00     0.015 A 
HETATM   20  C3  UNL     1      32.364  10.620  44.251  1.00  0.00     0.037 A 
HETATM   21  C2  UNL     1      33.521  11.219  43.789  1.00  0.00     0.070 A 
HETATM   22  C23 UNL     1      34.740  10.700  44.244  1.00  0.00     0.073 A 
HETATM   23  C22 UNL     1      34.705   9.634  45.115  1.00  0.00     0.076 A 
BRANCH  21  24
HETATM   24  O1  UNL     1      33.506  12.288  42.912  1.00  0.00    -0.356 OA
HETATM   25  C1  UNL     1      34.557  12.589  42.034  1.00  0.00     0.210 C 
ENDBRANCH  21  24
BRANCH  23  26
HETATM   26  O3  UNL     1      35.888   9.092  45.588  1.00  0.00    -0.360 OA
HETATM   27  H26 UNL     1      36.623   8.715  44.988  1.00  0.00     0.217 HD
ENDBRANCH  23  26
ENDBRANCH   1  18
BRANCH   9  28
HETATM   28  N4  UNL     1      30.575   5.997  49.238  1.00  0.00    -0.370 N 
HETATM   29  H11 UNL     1      30.315   6.263  50.176  1.00  0.00     0.161 HD
BRANCH  28  30
HETATM   30  C12 UNL     1      29.629   6.073  48.157  1.00  0.00     0.085 C 
HETATM   31  C13 UNL     1      28.336   5.377  48.515  1.00  0.00     0.028 C 
HETATM   32  C14 UNL     1      27.246   6.354  48.120  1.00  0.00     0.034 C 
HETATM   33  C15 UNL     1      27.900   7.674  48.379  1.00  0.00     0.120 C 
HETATM   34  C16 UNL     1      29.292   7.486  47.850  1.00  0.00     0.056 C 
BRANCH  33  35
HETATM   35  O2  UNL     1      27.227   8.712  47.747  1.00  0.00    -0.396 OA
HETATM   36  H18 UNL     1      27.790   8.939  46.945  1.00  0.00     0.210 HD
ENDBRANCH  33  35
ENDBRANCH  28  30
ENDBRANCH   9  28
TORSDOF 6
ENDMDL
