MODEL 1
REMARK VINA RESULT:      -8.3      0.000      0.000
REMARK  4 active torsions:
REMARK  status: ('A' for Active; 'I' for Inactive)
REMARK    1  A    between atoms: O1_2  and  C2_3 
REMARK    2  A    between atoms: N1_8  and  C7_9 
REMARK    3  A    between atoms: C7_9  and  C8_10 
REMARK       I    between atoms: N3_22  and  C19_23 
REMARK    4  A    between atoms: C19_23  and  C20_25 
ROOT
HETATM    1  C8  UNL     1      23.377   1.988  52.111  1.00  0.00     0.105 C 
HETATM    2  C9  UNL     1      23.507   2.771  50.838  1.00  0.00     0.027 C 
HETATM    3  C10 UNL     1      22.752   2.165  49.709  1.00  0.00     0.006 C 
HETATM    4  C11 UNL     1      22.938   2.785  48.371  1.00  0.00    -0.017 C 
HETATM    5  C12 UNL     1      22.108   1.911  47.405  1.00  0.00     0.010 C 
HETATM    6  C13 UNL     1      22.630   4.215  48.175  1.00  0.00     0.034 C 
HETATM    7  C14 UNL     1      21.175   4.599  48.337  1.00  0.00     0.270 C 
HETATM    8  N2  UNL     1      20.837   4.297  49.698  1.00  0.00     0.086 N 
HETATM    9  C15 UNL     1      19.399   4.429  49.986  1.00  0.00     0.296 C 
HETATM   10  C16 UNL     1      19.227   3.846  51.392  1.00  0.00     0.000 C 
HETATM   11  C17 UNL     1      20.225   3.366  52.185  1.00  0.00    -0.009 C 
HETATM   12  C18 UNL     1      21.233   2.823  53.121  1.00  0.00     0.153 C 
HETATM   13  N3  UNL     1      22.058   1.758  52.623  1.00  0.00    -0.338 N 
HETATM   14  C19 UNL     1      21.727   0.350  52.627  1.00  0.00     0.261 C 
HETATM   15  O2  UNL     1      22.586  -0.507  52.193  1.00  0.00    -0.267 OA
HETATM   16  H26 UNL     1      21.353   5.000  50.329  1.00  0.00     0.316 HD
ENDROOT
BRANCH   1  17
HETATM   17  C7  UNL     1      24.234   2.620  53.195  1.00  0.00     0.143 C 
BRANCH  17  18
HETATM   18  N1  UNL     1      25.572   2.084  53.258  1.00  0.00    -0.401 N 
HETATM   19  C5  UNL     1      26.019   1.681  51.993  1.00  0.00     0.098 C 
HETATM   20  C4  UNL     1      26.454   0.261  51.901  1.00  0.00    -0.004 C 
HETATM   21  C6  UNL     1      27.178   2.539  51.533  1.00  0.00     0.036 C 
HETATM   22  C3  UNL     1      26.561  -0.559  52.926  1.00  0.00     0.004 C 
HETATM   23  C2  UNL     1      26.235  -0.088  54.298  1.00  0.00     0.161 C 
HETATM   24  C23 UNL     1      25.755   1.305  54.401  1.00  0.00     0.153 C 
BRANCH  23  25
HETATM   25  O1  UNL     1      27.282  -0.374  55.187  1.00  0.00    -0.385 OA
HETATM   26  C1  UNL     1      28.440   0.262  54.735  1.00  0.00     0.202 C 
ENDBRANCH  23  25
ENDBRANCH  17  18
ENDBRANCH   1  17
BRANCH  14  27
HETATM   27  C20 UNL     1      20.513  -0.316  53.063  1.00  0.00     0.115 A 
HETATM   28  C21 UNL     1      20.382  -1.256  53.981  1.00  0.00     0.114 A 
HETATM   29  N4  UNL     1      18.952  -1.312  53.762  1.00  0.00    -0.332 N 
HETATM   30  C22 UNL     1      19.093  -0.314  52.787  1.00  0.00     0.262 A 
HETATM   31  H34 UNL     1      18.139  -1.860  54.156  1.00  0.00     0.168 HD
HETATM   32  O3  UNL     1      18.217   0.209  52.092  1.00  0.00    -0.267 OA
ENDBRANCH  14  27
TORSDOF 4
ENDMDL
MODEL 2
REMARK VINA RESULT:      -8.1      3.132      4.621
REMARK  4 active torsions:
REMARK  status: ('A' for Active; 'I' for Inactive)
REMARK    1  A    between atoms: O1_2  and  C2_3 
REMARK    2  A    between atoms: N1_8  and  C7_9 
REMARK    3  A    between atoms: C7_9  and  C8_10 
REMARK       I    between atoms: N3_22  and  C19_23 
REMARK    4  A    between atoms: C19_23  and  C20_25 
ROOT
HETATM    1  C8  UNL     1      23.638   3.543  50.731  1.00  0.00     0.105 C 
HETATM    2  C9  UNL     1      24.590   4.699  50.812  1.00  0.00     0.027 C 
HETATM    3  C10 UNL     1      24.800   5.366  49.499  1.00  0.00     0.006 C 
HETATM    4  C11 UNL     1      25.838   6.429  49.446  1.00  0.00    -0.017 C 
HETATM    5  C12 UNL     1      25.884   6.872  47.968  1.00  0.00     0.010 C 
HETATM    6  C13 UNL     1      25.734   7.600  50.338  1.00  0.00     0.034 C 
HETATM    7  C14 UNL     1      24.550   8.509  50.089  1.00  0.00     0.270 C 
HETATM    8  N2  UNL     1      23.383   7.712  50.335  1.00  0.00     0.086 N 
HETATM    9  C15 UNL     1      22.127   8.382  49.956  1.00  0.00     0.296 C 
HETATM   10  C16 UNL     1      21.054   7.295  50.073  1.00  0.00     0.000 C 
HETATM   11  C17 UNL     1      21.257   6.014  50.491  1.00  0.00    -0.009 C 
HETATM   12  C18 UNL     1      21.371   4.606  50.929  1.00  0.00     0.153 C 
HETATM   13  N3  UNL     1      22.322   3.794  50.223  1.00  0.00    -0.338 N 
HETATM   14  C19 UNL     1      22.083   3.081  48.988  1.00  0.00     0.261 C 
HETATM   15  O2  UNL     1      23.016   2.344  48.487  1.00  0.00    -0.267 OA
HETATM   16  H26 UNL     1      23.333   7.519  51.393  1.00  0.00     0.316 HD
ENDROOT
BRANCH   1  17
HETATM   17  C7  UNL     1      23.533   2.865  52.087  1.00  0.00     0.143 C 
BRANCH  17  18
HETATM   18  N1  UNL     1      23.532   1.425  52.013  1.00  0.00    -0.401 N 
HETATM   19  C5  UNL     1      22.325   0.891  52.484  1.00  0.00     0.098 C 
HETATM   20  C4  UNL     1      22.462  -0.094  53.591  1.00  0.00    -0.004 C 
HETATM   21  C6  UNL     1      21.564   0.212  51.367  1.00  0.00     0.036 C 
HETATM   22  C3  UNL     1      23.607  -0.567  54.039  1.00  0.00     0.004 C 
HETATM   23  C2  UNL     1      24.889  -0.119  53.433  1.00  0.00     0.161 C 
HETATM   24  C23 UNL     1      24.774   0.896  52.366  1.00  0.00     0.153 C 
BRANCH  23  25
HETATM   25  O1  UNL     1      25.679  -1.217  53.064  1.00  0.00    -0.385 OA
HETATM   26  C1  UNL     1      26.792  -0.751  52.359  1.00  0.00     0.202 C 
ENDBRANCH  23  25
ENDBRANCH  17  18
ENDBRANCH   1  17
BRANCH  14  27
HETATM   27  C20 UNL     1      20.898   3.048  48.150  1.00  0.00     0.115 A 
HETATM   28  C21 UNL     1      19.712   2.541  48.435  1.00  0.00     0.114 A 
HETATM   29  N4  UNL     1      19.205   2.923  47.133  1.00  0.00    -0.332 N 
HETATM   30  C22 UNL     1      20.466   3.458  46.833  1.00  0.00     0.262 A 
HETATM   31  H34 UNL     1      18.287   2.841  46.616  1.00  0.00     0.168 HD
HETATM   32  O3  UNL     1      20.836   4.014  45.794  1.00  0.00    -0.267 OA
ENDBRANCH  14  27
TORSDOF 4
ENDMDL
MODEL 3
REMARK VINA RESULT:      -8.1      2.515      5.004
REMARK  4 active torsions:
REMARK  status: ('A' for Active; 'I' for Inactive)
REMARK    1  A    between atoms: O1_2  and  C2_3 
REMARK    2  A    between atoms: N1_8  and  C7_9 
REMARK    3  A    between atoms: C7_9  and  C8_10 
REMARK       I    between atoms: N3_22  and  C19_23 
REMARK    4  A    between atoms: C19_23  and  C20_25 
ROOT
HETATM    1  C8  UNL     1      24.148   1.486  52.141  1.00  0.00     0.105 C 
HETATM    2  C9  UNL     1      23.257   0.393  52.651  1.00  0.00     0.027 C 
HETATM    3  C10 UNL     1      22.164   0.899  53.524  1.00  0.00     0.006 C 
HETATM    4  C11 UNL     1      21.317  -0.120  54.196  1.00  0.00    -0.017 C 
HETATM    5  C12 UNL     1      20.341   0.688  55.079  1.00  0.00     0.010 C 
HETATM    6  C13 UNL     1      20.587  -1.116  53.388  1.00  0.00     0.034 C 
HETATM    7  C14 UNL     1      19.501  -0.562  52.491  1.00  0.00     0.270 C 
HETATM    8  N2  UNL     1      20.165   0.304  51.559  1.00  0.00     0.086 N 
HETATM    9  C15 UNL     1      19.237   1.084  50.723  1.00  0.00     0.296 C 
HETATM   10  C16 UNL     1      20.126   2.091  49.987  1.00  0.00     0.000 C 
HETATM   11  C17 UNL     1      21.483   2.175  50.079  1.00  0.00    -0.009 C 
HETATM   12  C18 UNL     1      22.951   2.349  50.109  1.00  0.00     0.153 C 
HETATM   13  N3  UNL     1      23.543   2.553  51.402  1.00  0.00    -0.338 N 
HETATM   14  C19 UNL     1      23.674   3.819  52.089  1.00  0.00     0.261 C 
HETATM   15  O2  UNL     1      24.275   3.865  53.229  1.00  0.00    -0.267 OA
HETATM   16  H26 UNL     1      20.749  -0.311  50.896  1.00  0.00     0.316 HD
ENDROOT
BRANCH   1  17
HETATM   17  C7  UNL     1      25.282   0.888  51.325  1.00  0.00     0.143 C 
BRANCH  17  18
HETATM   18  N1  UNL     1      26.402   0.455  52.125  1.00  0.00    -0.401 N 
HETATM   19  C5  UNL     1      26.087  -0.691  52.866  1.00  0.00     0.098 C 
HETATM   20  C4  UNL     1      26.281  -0.564  54.335  1.00  0.00    -0.004 C 
HETATM   21  C6  UNL     1      26.908  -1.875  52.403  1.00  0.00     0.036 C 
HETATM   22  C3  UNL     1      26.831   0.472  54.933  1.00  0.00     0.004 C 
HETATM   23  C2  UNL     1      27.312   1.629  54.133  1.00  0.00     0.161 C 
HETATM   24  C23 UNL     1      27.083   1.541  52.676  1.00  0.00     0.153 C 
BRANCH  23  25
HETATM   25  O1  UNL     1      28.638   1.949  54.462  1.00  0.00    -0.385 OA
HETATM   26  C1  UNL     1      29.481   0.978  53.915  1.00  0.00     0.202 C 
ENDBRANCH  23  25
ENDBRANCH  17  18
ENDBRANCH   1  17
BRANCH  14  27
HETATM   27  C20 UNL     1      23.216   5.139  51.696  1.00  0.00     0.115 A 
HETATM   28  C21 UNL     1      21.975   5.590  51.643  1.00  0.00     0.114 A 
HETATM   29  N4  UNL     1      22.436   6.885  51.189  1.00  0.00    -0.332 N 
HETATM   30  C22 UNL     1      23.751   6.404  51.244  1.00  0.00     0.262 A 
HETATM   31  H34 UNL     1      21.989   7.806  50.925  1.00  0.00     0.168 HD
HETATM   32  O3  UNL     1      24.799   6.999  50.972  1.00  0.00    -0.267 OA
ENDBRANCH  14  27
TORSDOF 4
ENDMDL
MODEL 4
REMARK VINA RESULT:      -8.0      2.938      4.976
REMARK  4 active torsions:
REMARK  status: ('A' for Active; 'I' for Inactive)
REMARK    1  A    between atoms: O1_2  and  C2_3 
REMARK    2  A    between atoms: N1_8  and  C7_9 
REMARK    3  A    between atoms: C7_9  and  C8_10 
REMARK       I    between atoms: N3_22  and  C19_23 
REMARK    4  A    between atoms: C19_23  and  C20_25 
ROOT
HETATM    1  C8  UNL     1      24.220   2.694  51.704  1.00  0.00     0.105 C 
HETATM    2  C9  UNL     1      23.104   1.696  51.621  1.00  0.00     0.027 C 
HETATM    3  C10 UNL     1      21.764   2.309  51.829  1.00  0.00     0.006 C 
HETATM    4  C11 UNL     1      20.608   1.380  51.911  1.00  0.00    -0.017 C 
HETATM    5  C12 UNL     1      19.389   2.280  52.204  1.00  0.00     0.010 C 
HETATM    6  C13 UNL     1      20.322   0.463  50.790  1.00  0.00     0.034 C 
HETATM    7  C14 UNL     1      19.912   1.125  49.492  1.00  0.00     0.270 C 
HETATM    8  N2  UNL     1      21.034   1.922  49.085  1.00  0.00     0.086 N 
HETATM    9  C15 UNL     1      20.746   2.792  47.933  1.00  0.00     0.296 C 
HETATM   10  C16 UNL     1      21.971   3.705  47.817  1.00  0.00     0.000 C 
HETATM   11  C17 UNL     1      23.084   3.652  48.602  1.00  0.00    -0.009 C 
HETATM   12  C18 UNL     1      24.331   3.677  49.395  1.00  0.00     0.153 C 
HETATM   13  N3  UNL     1      24.180   3.819  50.817  1.00  0.00    -0.338 N 
HETATM   14  C19 UNL     1      24.043   5.063  51.540  1.00  0.00     0.261 C 
HETATM   15  O2  UNL     1      23.966   5.047  52.827  1.00  0.00    -0.267 OA
HETATM   16  H26 UNL     1      21.823   1.251  48.787  1.00  0.00     0.316 HD
ENDROOT
BRANCH   1  17
HETATM   17  C7  UNL     1      25.557   1.987  51.561  1.00  0.00     0.143 C 
BRANCH  17  18
HETATM   18  N1  UNL     1      26.158   1.629  52.823  1.00  0.00    -0.401 N 
HETATM   19  C5  UNL     1      27.544   1.464  52.699  1.00  0.00     0.098 C 
HETATM   20  C4  UNL     1      28.063   0.140  53.135  1.00  0.00    -0.004 C 
HETATM   21  C6  UNL     1      28.284   2.522  53.488  1.00  0.00     0.036 C 
HETATM   22  C3  UNL     1      27.342  -0.791  53.726  1.00  0.00     0.004 C 
HETATM   23  C2  UNL     1      25.900  -0.558  54.002  1.00  0.00     0.161 C 
HETATM   24  C23 UNL     1      25.357   0.732  53.531  1.00  0.00     0.153 C 
BRANCH  23  25
HETATM   25  O1  UNL     1      25.599  -0.823  55.346  1.00  0.00    -0.385 OA
HETATM   26  C1  UNL     1      24.264  -1.225  55.435  1.00  0.00     0.202 C 
ENDBRANCH  23  25
ENDBRANCH  17  18
ENDBRANCH   1  17
BRANCH  14  27
HETATM   27  C20 UNL     1      23.970   6.424  51.038  1.00  0.00     0.115 A 
HETATM   28  C21 UNL     1      24.964   7.214  50.674  1.00  0.00     0.114 A 
HETATM   29  N4  UNL     1      24.037   8.276  50.346  1.00  0.00    -0.332 N 
HETATM   30  C22 UNL     1      22.983   7.436  50.734  1.00  0.00     0.262 A 
HETATM   31  H34 UNL     1      24.105   9.263  49.973  1.00  0.00     0.168 HD
HETATM   32  O3  UNL     1      21.772   7.674  50.734  1.00  0.00    -0.267 OA
ENDBRANCH  14  27
TORSDOF 4
ENDMDL
MODEL 5
REMARK VINA RESULT:      -7.9      3.583      6.316
REMARK  4 active torsions:
REMARK  status: ('A' for Active; 'I' for Inactive)
REMARK    1  A    between atoms: O1_2  and  C2_3 
REMARK    2  A    between atoms: N1_8  and  C7_9 
REMARK    3  A    between atoms: C7_9  and  C8_10 
REMARK       I    between atoms: N3_22  and  C19_23 
REMARK    4  A    between atoms: C19_23  and  C20_25 
ROOT
HETATM    1  C8  UNL     1      24.085   4.588  50.705  1.00  0.00     0.105 C 
HETATM    2  C9  UNL     1      22.844   4.257  49.931  1.00  0.00     0.027 C 
HETATM    3  C10 UNL     1      22.965   2.991  49.159  1.00  0.00     0.006 C 
HETATM    4  C11 UNL     1      21.843   2.654  48.245  1.00  0.00    -0.017 C 
HETATM    5  C12 UNL     1      22.280   1.354  47.536  1.00  0.00     0.010 C 
HETATM    6  C13 UNL     1      20.475   2.521  48.782  1.00  0.00     0.034 C 
HETATM    7  C14 UNL     1      20.258   1.373  49.744  1.00  0.00     0.270 C 
HETATM    8  N2  UNL     1      21.108   1.636  50.869  1.00  0.00     0.086 N 
HETATM    9  C15 UNL     1      21.171   0.521  51.828  1.00  0.00     0.296 C 
HETATM   10  C16 UNL     1      22.288   0.906  52.803  1.00  0.00     0.000 C 
HETATM   11  C17 UNL     1      23.005   2.064  52.778  1.00  0.00    -0.009 C 
HETATM   12  C18 UNL     1      23.838   3.284  52.838  1.00  0.00     0.153 C 
HETATM   13  N3  UNL     1      24.565   3.620  51.646  1.00  0.00    -0.338 N 
HETATM   14  C19 UNL     1      25.864   3.108  51.268  1.00  0.00     0.261 C 
HETATM   15  O2  UNL     1      26.427   3.535  50.189  1.00  0.00    -0.267 OA
HETATM   16  H26 UNL     1      20.703   2.485  51.395  1.00  0.00     0.316 HD
ENDROOT
BRANCH   1  17
HETATM   17  C7  UNL     1      23.917   5.927  51.403  1.00  0.00     0.143 C 
BRANCH  17  18
HETATM   18  N1  UNL     1      24.317   7.053  50.594  1.00  0.00    -0.401 N 
HETATM   19  C5  UNL     1      23.454   7.231  49.505  1.00  0.00     0.098 C 
HETATM   20  C4  UNL     1      24.113   7.227  48.172  1.00  0.00    -0.004 C 
HETATM   21  C6  UNL     1      22.693   8.533  49.628  1.00  0.00     0.036 C 
HETATM   22  C3  UNL     1      25.416   7.199  47.978  1.00  0.00     0.004 C 
HETATM   23  C2  UNL     1      26.344   7.168  49.139  1.00  0.00     0.161 C 
HETATM   24  C23 UNL     1      25.705   7.122  50.471  1.00  0.00     0.153 C 
BRANCH  23  25
HETATM   25  O1  UNL     1      27.315   8.174  49.031  1.00  0.00    -0.385 OA
HETATM   26  C1  UNL     1      27.208   9.020  50.137  1.00  0.00     0.202 C 
ENDBRANCH  23  25
ENDBRANCH  17  18
ENDBRANCH   1  17
BRANCH  14  27
HETATM   27  C20 UNL     1      26.705   2.129  51.933  1.00  0.00     0.115 A 
HETATM   28  C21 UNL     1      26.551   0.818  51.980  1.00  0.00     0.114 A 
HETATM   29  N4  UNL     1      27.746   0.678  52.785  1.00  0.00    -0.332 N 
HETATM   30  C22 UNL     1      27.906   2.070  52.736  1.00  0.00     0.262 A 
HETATM   31  H34 UNL     1      28.280  -0.119  53.228  1.00  0.00     0.168 HD
HETATM   32  O3  UNL     1      28.795   2.759  53.247  1.00  0.00    -0.267 OA
ENDBRANCH  14  27
TORSDOF 4
ENDMDL
MODEL 6
REMARK VINA RESULT:      -7.9      2.656      4.919
REMARK  4 active torsions:
REMARK  status: ('A' for Active; 'I' for Inactive)
REMARK    1  A    between atoms: O1_2  and  C2_3 
REMARK    2  A    between atoms: N1_8  and  C7_9 
REMARK    3  A    between atoms: C7_9  and  C8_10 
REMARK       I    between atoms: N3_22  and  C19_23 
REMARK    4  A    between atoms: C19_23  and  C20_25 
ROOT
HETATM    1  C8  UNL     1      22.608   2.280  51.356  1.00  0.00     0.105 C 
HETATM    2  C9  UNL     1      21.180   1.934  51.059  1.00  0.00     0.027 C 
HETATM    3  C10 UNL     1      20.280   3.118  51.092  1.00  0.00     0.006 C 
HETATM    4  C11 UNL     1      18.824   2.855  50.957  1.00  0.00    -0.017 C 
HETATM    5  C12 UNL     1      18.151   4.237  51.105  1.00  0.00     0.010 C 
HETATM    6  C13 UNL     1      18.313   2.153  49.763  1.00  0.00     0.034 C 
HETATM    7  C14 UNL     1      18.473   2.890  48.451  1.00  0.00     0.270 C 
HETATM    8  N2  UNL     1      19.886   3.041  48.255  1.00  0.00     0.086 N 
HETATM    9  C15 UNL     1      20.229   3.908  47.115  1.00  0.00     0.296 C 
HETATM   10  C16 UNL     1      21.742   4.121  47.227  1.00  0.00     0.000 C 
HETATM   11  C17 UNL     1      22.559   3.568  48.167  1.00  0.00    -0.009 C 
HETATM   12  C18 UNL     1      23.529   3.020  49.138  1.00  0.00     0.153 C 
HETATM   13  N3  UNL     1      23.246   3.260  50.526  1.00  0.00    -0.338 N 
HETATM   14  C19 UNL     1      23.608   4.440  51.278  1.00  0.00     0.261 C 
HETATM   15  O2  UNL     1      23.335   4.503  52.537  1.00  0.00    -0.267 OA
HETATM   16  H26 UNL     1      20.296   2.067  48.048  1.00  0.00     0.316 HD
ENDROOT
BRANCH   1  17
HETATM   17  C7  UNL     1      23.452   1.017  51.382  1.00  0.00     0.143 C 
BRANCH  17  18
HETATM   18  N1  UNL     1      24.591   1.102  52.262  1.00  0.00    -0.401 N 
HETATM   19  C5  UNL     1      25.794   1.087  51.543  1.00  0.00     0.098 C 
HETATM   20  C4  UNL     1      26.747   0.012  51.932  1.00  0.00    -0.004 C 
HETATM   21  C6  UNL     1      26.520   2.407  51.682  1.00  0.00     0.036 C 
HETATM   22  C3  UNL     1      26.584  -0.802  52.955  1.00  0.00     0.004 C 
HETATM   23  C2  UNL     1      25.379  -0.686  53.818  1.00  0.00     0.161 C 
HETATM   24  C23 UNL     1      24.399   0.343  53.418  1.00  0.00     0.153 C 
BRANCH  23  25
HETATM   25  O1  UNL     1      25.740  -0.604  55.172  1.00  0.00    -0.385 OA
HETATM   26  C1  UNL     1      26.907   0.156  55.278  1.00  0.00     0.202 C 
ENDBRANCH  23  25
ENDBRANCH  17  18
ENDBRANCH   1  17
BRANCH  14  27
HETATM   27  C20 UNL     1      24.270   5.655  50.836  1.00  0.00     0.115 A 
HETATM   28  C21 UNL     1      23.934   6.906  51.092  1.00  0.00     0.114 A 
HETATM   29  N4  UNL     1      25.054   7.395  50.314  1.00  0.00    -0.332 N 
HETATM   30  C22 UNL     1      25.407   6.066  50.042  1.00  0.00     0.262 A 
HETATM   31  H34 UNL     1      25.449   8.340  50.054  1.00  0.00     0.168 HD
HETATM   32  O3  UNL     1      26.353   5.645  49.370  1.00  0.00    -0.267 OA
ENDBRANCH  14  27
TORSDOF 4
ENDMDL
MODEL 7
REMARK VINA RESULT:      -7.6      8.437     11.199
REMARK  4 active torsions:
REMARK  status: ('A' for Active; 'I' for Inactive)
REMARK    1  A    between atoms: O1_2  and  C2_3 
REMARK    2  A    between atoms: N1_8  and  C7_9 
REMARK    3  A    between atoms: C7_9  and  C8_10 
REMARK       I    between atoms: N3_22  and  C19_23 
REMARK    4  A    between atoms: C19_23  and  C20_25 
ROOT
HETATM    1  C8  UNL     1      29.484   7.521  47.927  1.00  0.00     0.105 C 
HETATM    2  C9  UNL     1      28.170   6.812  48.066  1.00  0.00     0.027 C 
HETATM    3  C10 UNL     1      27.264   7.462  49.051  1.00  0.00     0.006 C 
HETATM    4  C11 UNL     1      25.999   6.751  49.368  1.00  0.00    -0.017 C 
HETATM    5  C12 UNL     1      25.319   7.608  50.457  1.00  0.00     0.010 C 
HETATM    6  C13 UNL     1      25.047   6.430  48.287  1.00  0.00     0.034 C 
HETATM    7  C14 UNL     1      24.405   7.620  47.607  1.00  0.00     0.270 C 
HETATM    8  N2  UNL     1      25.477   8.350  46.995  1.00  0.00     0.086 N 
HETATM    9  C15 UNL     1      25.060   9.650  46.444  1.00  0.00     0.296 C 
HETATM   10  C16 UNL     1      26.368  10.351  46.062  1.00  0.00     0.000 C 
HETATM   11  C17 UNL     1      27.620   9.825  46.179  1.00  0.00    -0.009 C 
HETATM   12  C18 UNL     1      29.016   9.347  46.265  1.00  0.00     0.153 C 
HETATM   13  N3  UNL     1      29.461   8.906  47.558  1.00  0.00    -0.338 N 
HETATM   14  C19 UNL     1      29.995   9.745  48.608  1.00  0.00     0.261 C 
HETATM   15  O2  UNL     1      30.405   9.209  49.706  1.00  0.00    -0.267 OA
HETATM   16  H26 UNL     1      25.850   7.762  46.174  1.00  0.00     0.316 HD
ENDROOT
BRANCH   1  17
HETATM   17  C7  UNL     1      30.382   6.760  46.966  1.00  0.00     0.143 C 
BRANCH  17  18
HETATM   18  N1  UNL     1      31.591   6.265  47.578  1.00  0.00    -0.401 N 
HETATM   19  C5  UNL     1      32.697   7.053  47.233  1.00  0.00     0.098 C 
HETATM   20  C4  UNL     1      33.822   6.315  46.597  1.00  0.00    -0.004 C 
HETATM   21  C6  UNL     1      33.252   7.764  48.448  1.00  0.00     0.036 C 
HETATM   22  C3  UNL     1      33.885   5.006  46.470  1.00  0.00     0.004 C 
HETATM   23  C2  UNL     1      32.779   4.151  46.978  1.00  0.00     0.161 C 
HETATM   24  C23 UNL     1      31.632   4.870  47.568  1.00  0.00     0.153 C 
BRANCH  23  25
HETATM   25  O1  UNL     1      33.274   3.133  47.807  1.00  0.00    -0.385 OA
HETATM   26  C1  UNL     1      34.667   3.229  47.850  1.00  0.00     0.202 C 
ENDBRANCH  23  25
ENDBRANCH  17  18
ENDBRANCH   1  17
BRANCH  14  27
HETATM   27  C20 UNL     1      30.160  11.187  48.649  1.00  0.00     0.115 A 
HETATM   28  C21 UNL     1      31.238  11.894  48.361  1.00  0.00     0.114 A 
HETATM   29  N4  UNL     1      30.542  13.129  48.656  1.00  0.00    -0.332 N 
HETATM   30  C22 UNL     1      29.399  12.377  48.963  1.00  0.00     0.262 A 
HETATM   31  H34 UNL     1      30.777  14.159  48.649  1.00  0.00     0.168 HD
HETATM   32  O3  UNL     1      28.292  12.779  49.332  1.00  0.00    -0.267 OA
ENDBRANCH  14  27
TORSDOF 4
ENDMDL
MODEL 8
REMARK VINA RESULT:      -7.6      9.106     11.453
REMARK  4 active torsions:
REMARK  status: ('A' for Active; 'I' for Inactive)
REMARK    1  A    between atoms: O1_2  and  C2_3 
REMARK    2  A    between atoms: N1_8  and  C7_9 
REMARK    3  A    between atoms: C7_9  and  C8_10 
REMARK       I    between atoms: N3_22  and  C19_23 
REMARK    4  A    between atoms: C19_23  and  C20_25 
ROOT
HETATM    1  C8  UNL     1      31.391   7.681  47.971  1.00  0.00     0.105 C 
HETATM    2  C9  UNL     1      32.060   8.520  46.923  1.00  0.00     0.027 C 
HETATM    3  C10 UNL     1      31.129   8.949  45.845  1.00  0.00     0.006 C 
HETATM    4  C11 UNL     1      31.729   9.659  44.686  1.00  0.00    -0.017 C 
HETATM    5  C12 UNL     1      30.555   9.903  43.713  1.00  0.00     0.010 C 
HETATM    6  C13 UNL     1      32.493  10.904  44.904  1.00  0.00     0.034 C 
HETATM    7  C14 UNL     1      31.694  12.079  45.426  1.00  0.00     0.270 C 
HETATM    8  N2  UNL     1      31.201  11.679  46.712  1.00  0.00     0.086 N 
HETATM    9  C15 UNL     1      30.239  12.631  47.291  1.00  0.00     0.296 C 
HETATM   10  C16 UNL     1      29.672  11.915  48.521  1.00  0.00     0.000 C 
HETATM   11  C17 UNL     1      30.044  10.684  48.971  1.00  0.00    -0.009 C 
HETATM   12  C18 UNL     1      30.377   9.361  49.539  1.00  0.00     0.153 C 
HETATM   13  N3  UNL     1      30.259   8.237  48.651  1.00  0.00    -0.338 N 
HETATM   14  C19 UNL     1      29.053   7.489  48.379  1.00  0.00     0.261 C 
HETATM   15  O2  UNL     1      29.101   6.466  47.595  1.00  0.00    -0.267 OA
HETATM   16  H26 UNL     1      32.040  11.627  47.385  1.00  0.00     0.316 HD
ENDROOT
BRANCH   1  17
HETATM   17  C7  UNL     1      32.415   7.217  48.993  1.00  0.00     0.143 C 
BRANCH  17  18
HETATM   18  N1  UNL     1      33.013   5.944  48.672  1.00  0.00    -0.401 N 
HETATM   19  C5  UNL     1      34.293   6.105  48.126  1.00  0.00     0.098 C 
HETATM   20  C4  UNL     1      34.490   5.484  46.789  1.00  0.00    -0.004 C 
HETATM   21  C6  UNL     1      35.348   5.534  49.049  1.00  0.00     0.036 C 
HETATM   22  C3  UNL     1      33.610   4.716  46.181  1.00  0.00     0.004 C 
HETATM   23  C2  UNL     1      32.307   4.413  46.829  1.00  0.00     0.161 C 
HETATM   24  C23 UNL     1      32.075   5.062  48.136  1.00  0.00     0.153 C 
BRANCH  23  25
HETATM   25  O1  UNL     1      32.068   3.031  46.852  1.00  0.00    -0.385 OA
HETATM   26  C1  UNL     1      33.056   2.419  47.627  1.00  0.00     0.202 C 
ENDBRANCH  23  25
ENDBRANCH  17  18
ENDBRANCH   1  17
BRANCH  14  27
HETATM   27  C20 UNL     1      27.700   7.701  48.863  1.00  0.00     0.115 A 
HETATM   28  C21 UNL     1      26.617   6.996  48.593  1.00  0.00     0.114 A 
HETATM   29  N4  UNL     1      25.812   7.858  49.433  1.00  0.00    -0.332 N 
HETATM   30  C22 UNL     1      26.963   8.606  49.716  1.00  0.00     0.262 A 
HETATM   31  H34 UNL     1      24.796   7.915  49.719  1.00  0.00     0.168 HD
HETATM   32  O3  UNL     1      27.072   9.603  50.437  1.00  0.00    -0.267 OA
ENDBRANCH  14  27
TORSDOF 4
ENDMDL
MODEL 9
REMARK VINA RESULT:      -7.5      4.191      8.475
REMARK  4 active torsions:
REMARK  status: ('A' for Active; 'I' for Inactive)
REMARK    1  A    between atoms: O1_2  and  C2_3 
REMARK    2  A    between atoms: N1_8  and  C7_9 
REMARK    3  A    between atoms: C7_9  and  C8_10 
REMARK       I    between atoms: N3_22  and  C19_23 
REMARK    4  A    between atoms: C19_23  and  C20_25 
ROOT
HETATM    1  C8  UNL     1      21.996   5.751  49.831  1.00  0.00     0.105 C 
HETATM    2  C9  UNL     1      21.023   4.647  50.118  1.00  0.00     0.027 C 
HETATM    3  C10 UNL     1      21.452   3.338  49.555  1.00  0.00     0.006 C 
HETATM    4  C11 UNL     1      20.484   2.215  49.660  1.00  0.00    -0.017 C 
HETATM    5  C12 UNL     1      21.162   1.033  48.934  1.00  0.00     0.010 C 
HETATM    6  C13 UNL     1      19.986   1.797  50.985  1.00  0.00     0.034 C 
HETATM    7  C14 UNL     1      21.024   1.212  51.919  1.00  0.00     0.270 C 
HETATM    8  N2  UNL     1      21.973   2.260  52.158  1.00  0.00     0.086 N 
HETATM    9  C15 UNL     1      23.164   1.812  52.900  1.00  0.00     0.296 C 
HETATM   10  C16 UNL     1      24.131   2.999  52.840  1.00  0.00     0.000 C 
HETATM   11  C17 UNL     1      23.879   4.206  52.259  1.00  0.00    -0.009 C 
HETATM   12  C18 UNL     1      23.706   5.546  51.660  1.00  0.00     0.153 C 
HETATM   13  N3  UNL     1      23.350   5.580  50.268  1.00  0.00    -0.338 N 
HETATM   14  C19 UNL     1      24.267   5.523  49.152  1.00  0.00     0.261 C 
HETATM   15  O2  UNL     1      23.813   5.616  47.949  1.00  0.00    -0.267 OA
HETATM   16  H26 UNL     1      21.489   3.011  52.759  1.00  0.00     0.316 HD
ENDROOT
BRANCH   1  17
HETATM   17  C7  UNL     1      21.456   7.067  50.366  1.00  0.00     0.143 C 
BRANCH  17  18
HETATM   18  N1  UNL     1      20.837   7.890  49.355  1.00  0.00    -0.401 N 
HETATM   19  C5  UNL     1      21.775   8.722  48.731  1.00  0.00     0.098 C 
HETATM   20  C4  UNL     1      21.461  10.176  48.784  1.00  0.00    -0.004 C 
HETATM   21  C6  UNL     1      21.941   8.349  47.274  1.00  0.00     0.036 C 
HETATM   22  C3  UNL     1      20.337  10.684  49.247  1.00  0.00     0.004 C 
HETATM   23  C2  UNL     1      19.270   9.790  49.768  1.00  0.00     0.161 C 
HETATM   24  C23 UNL     1      19.586   8.347  49.769  1.00  0.00     0.153 C 
BRANCH  23  25
HETATM   25  O1  UNL     1      18.036  10.083  49.170  1.00  0.00    -0.385 OA
HETATM   26  C1  UNL     1      17.947   9.384  47.963  1.00  0.00     0.202 C 
ENDBRANCH  23  25
ENDBRANCH  17  18
ENDBRANCH   1  17
BRANCH  14  27
HETATM   27  C20 UNL     1      25.710   5.367  49.144  1.00  0.00     0.115 A 
HETATM   28  C21 UNL     1      26.626   6.255  48.801  1.00  0.00     0.114 A 
HETATM   29  N4  UNL     1      27.687   5.311  49.078  1.00  0.00    -0.332 N 
HETATM   30  C22 UNL     1      26.714   4.369  49.441  1.00  0.00     0.262 A 
HETATM   31  H34 UNL     1      28.743   5.312  49.033  1.00  0.00     0.168 HD
HETATM   32  O3  UNL     1      26.876   3.208  49.830  1.00  0.00    -0.267 OA
ENDBRANCH  14  27
TORSDOF 4
ENDMDL
