MODEL 1
REMARK VINA RESULT:      -9.2      0.000      0.000
REMARK  2 active torsions:
REMARK  status: ('A' for Active; 'I' for Inactive)
REMARK    1  A    between atoms: C7_10  and  C8_11 
REMARK    2  A    between atoms: C8_11  and  C9_12 
ROOT
HETATM    1  F1  UNL     1      23.769   6.915  48.018  1.00  0.00    -0.205 F 
HETATM    2  C1  UNL     1      24.379   5.900  48.634  1.00  0.00     0.136 A 
HETATM    3  C2  UNL     1      25.749   5.921  48.676  1.00  0.00     0.046 A 
HETATM    4  C3  UNL     1      26.420   4.892  49.302  1.00  0.00     0.034 A 
HETATM    5  C4  UNL     1      25.699   3.868  49.871  1.00  0.00     0.058 A 
HETATM    6  C5  UNL     1      24.312   3.788  49.862  1.00  0.00     0.076 A 
HETATM    7  C6  UNL     1      23.693   4.852  49.218  1.00  0.00     0.078 A 
HETATM    8 BR1  UNL     1      21.796   4.949  49.098  1.00  0.00    -0.045 Br
HETATM    9  N1  UNL     1      23.210   2.963  50.299  1.00  0.00    -0.379 N 
HETATM   10  C7  UNL     1      23.423   1.705  50.966  1.00  0.00     0.109 C 
HETATM   11  C14 UNL     1      24.235   1.854  52.202  1.00  0.00     0.005 C 
HETATM   12  C15 UNL     1      25.568   1.960  52.401  1.00  0.00    -0.036 C 
HETATM   13  C16 UNL     1      25.496   2.067  53.885  1.00  0.00     0.040 C 
HETATM   14  C17 UNL     1      26.131   0.905  54.575  1.00  0.00     0.028 C 
HETATM   15  C18 UNL     1      27.374   0.413  53.830  1.00  0.00     0.173 C 
HETATM   16  N2  UNL     1      28.162   1.504  53.323  1.00  0.00    -0.196 NA
HETATM   17  N3  UNL     1      27.922   2.209  52.301  1.00  0.00    -0.167 NA
HETATM   18  C19 UNL     1      26.744   1.969  51.481  1.00  0.00     0.258 C 
HETATM   19  N4  UNL     1      26.647   2.967  50.441  1.00  0.00    -0.360 N 
HETATM   20  H3  UNL     1      22.319   3.446  50.051  1.00  0.00     0.160 HD
HETATM   21  H20 UNL     1      27.569   3.047  49.962  1.00  0.00     0.162 HD
ENDROOT
BRANCH  10  22
HETATM   22  C8  UNL     1      22.108   1.020  51.234  1.00  0.00     0.063 C 
BRANCH  22  23
HETATM   23  C9  UNL     1      22.091   0.309  52.520  1.00  0.00    -0.074 A 
HETATM   24  C10 UNL     1      21.241   0.672  53.499  1.00  0.00     0.003 A 
HETATM   25  C11 UNL     1      21.333  -0.117  54.713  1.00  0.00    -0.003 A 
HETATM   26  C12 UNL     1      22.271  -0.988  54.470  1.00  0.00    -0.022 A 
HETATM   27  C13 UNL     1      22.843  -0.824  53.102  1.00  0.00     0.061 A 
ENDBRANCH  22  23
ENDBRANCH  10  22
TORSDOF 2
ENDMDL
MODEL 2
REMARK VINA RESULT:      -9.0      2.284      5.491
REMARK  2 active torsions:
REMARK  status: ('A' for Active; 'I' for Inactive)
REMARK    1  A    between atoms: C7_10  and  C8_11 
REMARK    2  A    between atoms: C8_11  and  C9_12 
ROOT
HETATM    1  F1  UNL     1      19.914   0.899  49.794  1.00  0.00    -0.205 F 
HETATM    2  C1  UNL     1      20.956   0.967  50.628  1.00  0.00     0.136 A 
HETATM    3  C2  UNL     1      20.771   0.505  51.905  1.00  0.00     0.046 A 
HETATM    4  C3  UNL     1      21.818   0.556  52.799  1.00  0.00     0.034 A 
HETATM    5  C4  UNL     1      23.027   1.070  52.388  1.00  0.00     0.058 A 
HETATM    6  C5  UNL     1      23.278   1.555  51.111  1.00  0.00     0.076 A 
HETATM    7  C6  UNL     1      22.185   1.476  50.257  1.00  0.00     0.078 A 
HETATM    8 BR1  UNL     1      22.312   2.076  48.455  1.00  0.00    -0.045 Br
HETATM    9  N1  UNL     1      24.312   2.144  50.293  1.00  0.00    -0.379 N 
HETATM   10  C7  UNL     1      25.612   2.459  50.825  1.00  0.00     0.109 C 
HETATM   11  C14 UNL     1      26.287   1.269  51.407  1.00  0.00     0.005 C 
HETATM   12  C15 UNL     1      26.163   0.655  52.604  1.00  0.00    -0.036 C 
HETATM   13  C16 UNL     1      27.176  -0.405  52.340  1.00  0.00     0.040 C 
HETATM   14  C17 UNL     1      28.366  -0.297  53.237  1.00  0.00     0.028 C 
HETATM   15  C18 UNL     1      27.976   0.156  54.645  1.00  0.00     0.173 C 
HETATM   16  N2  UNL     1      26.757  -0.465  55.089  1.00  0.00    -0.196 NA
HETATM   17  N3  UNL     1      25.577  -0.164  54.748  1.00  0.00    -0.167 NA
HETATM   18  C19 UNL     1      25.318   0.915  53.807  1.00  0.00     0.258 C 
HETATM   19  N4  UNL     1      23.907   0.990  53.509  1.00  0.00    -0.360 N 
HETATM   20  H3  UNL     1      23.938   2.265  49.327  1.00  0.00     0.160 HD
HETATM   21  H20 UNL     1      23.371   0.980  54.402  1.00  0.00     0.162 HD
ENDROOT
BRANCH  10  22
HETATM   22  C8  UNL     1      26.461   3.136  49.780  1.00  0.00     0.063 C 
BRANCH  22  23
HETATM   23  C9  UNL     1      26.102   4.547  49.584  1.00  0.00    -0.074 A 
HETATM   24  C10 UNL     1      26.847   5.346  48.798  1.00  0.00     0.003 A 
HETATM   25  C11 UNL     1      26.375   6.715  48.695  1.00  0.00    -0.003 A 
HETATM   26  C12 UNL     1      25.310   6.754  49.444  1.00  0.00    -0.022 A 
HETATM   27  C13 UNL     1      25.024   5.433  50.075  1.00  0.00     0.061 A 
ENDBRANCH  22  23
ENDBRANCH  10  22
TORSDOF 2
ENDMDL
MODEL 3
REMARK VINA RESULT:      -8.8      2.351      4.535
REMARK  2 active torsions:
REMARK  status: ('A' for Active; 'I' for Inactive)
REMARK    1  A    between atoms: C7_10  and  C8_11 
REMARK    2  A    between atoms: C8_11  and  C9_12 
ROOT
HETATM    1  F1  UNL     1      25.726   8.578  48.479  1.00  0.00    -0.205 F 
HETATM    2  C1  UNL     1      25.113   7.725  49.303  1.00  0.00     0.136 A 
HETATM    3  C2  UNL     1      23.961   8.156  49.910  1.00  0.00     0.046 A 
HETATM    4  C3  UNL     1      23.295   7.310  50.770  1.00  0.00     0.034 A 
HETATM    5  C4  UNL     1      23.801   6.050  50.998  1.00  0.00     0.058 A 
HETATM    6  C5  UNL     1      24.961   5.555  50.416  1.00  0.00     0.076 A 
HETATM    7  C6  UNL     1      25.586   6.454  49.561  1.00  0.00     0.078 A 
HETATM    8 BR1  UNL     1      27.187   5.977  48.648  1.00  0.00    -0.045 Br
HETATM    9  N1  UNL     1      25.807   4.386  50.367  1.00  0.00    -0.379 N 
HETATM   10  C7  UNL     1      25.543   3.224  51.173  1.00  0.00     0.109 C 
HETATM   11  C14 UNL     1      24.189   2.663  50.927  1.00  0.00     0.005 C 
HETATM   12  C15 UNL     1      22.967   3.015  51.385  1.00  0.00    -0.036 C 
HETATM   13  C16 UNL     1      22.217   1.956  50.655  1.00  0.00     0.040 C 
HETATM   14  C17 UNL     1      21.574   0.971  51.576  1.00  0.00     0.028 C 
HETATM   15  C18 UNL     1      21.052   1.641  52.849  1.00  0.00     0.173 C 
HETATM   16  N2  UNL     1      20.445   2.915  52.573  1.00  0.00    -0.196 NA
HETATM   17  N3  UNL     1      21.036   4.007  52.332  1.00  0.00    -0.167 NA
HETATM   18  C19 UNL     1      22.489   4.087  52.307  1.00  0.00     0.258 C 
HETATM   19  N4  UNL     1      22.909   5.411  51.911  1.00  0.00    -0.360 N 
HETATM   20  H3  UNL     1      26.568   4.561  49.675  1.00  0.00     0.160 HD
HETATM   21  H20 UNL     1      22.390   6.115  52.477  1.00  0.00     0.162 HD
ENDROOT
BRANCH  10  22
HETATM   22  C8  UNL     1      26.625   2.192  50.984  1.00  0.00     0.063 C 
BRANCH  22  23
HETATM   23  C9  UNL     1      26.677   1.216  52.082  1.00  0.00    -0.074 A 
HETATM   24  C10 UNL     1      27.147   1.564  53.293  1.00  0.00     0.003 A 
HETATM   25  C11 UNL     1      27.139   0.502  54.281  1.00  0.00    -0.003 A 
HETATM   26  C12 UNL     1      26.651  -0.530  53.652  1.00  0.00    -0.022 A 
HETATM   27  C13 UNL     1      26.316  -0.210  52.234  1.00  0.00     0.061 A 
ENDBRANCH  22  23
ENDBRANCH  10  22
TORSDOF 2
ENDMDL
MODEL 4
REMARK VINA RESULT:      -8.6      3.753      5.392
REMARK  2 active torsions:
REMARK  status: ('A' for Active; 'I' for Inactive)
REMARK    1  A    between atoms: C7_10  and  C8_11 
REMARK    2  A    between atoms: C8_11  and  C9_12 
ROOT
HETATM    1  F1  UNL     1      29.635  -0.525  53.260  1.00  0.00    -0.205 F 
HETATM    2  C1  UNL     1      28.549   0.250  53.319  1.00  0.00     0.136 A 
HETATM    3  C2  UNL     1      28.744   1.592  53.515  1.00  0.00     0.046 A 
HETATM    4  C3  UNL     1      27.652   2.429  53.583  1.00  0.00     0.034 A 
HETATM    5  C4  UNL     1      26.389   1.898  53.454  1.00  0.00     0.058 A 
HETATM    6  C5  UNL     1      26.125   0.548  53.256  1.00  0.00     0.076 A 
HETATM    7  C6  UNL     1      27.265  -0.243  53.195  1.00  0.00     0.078 A 
HETATM    8 BR1  UNL     1      27.133  -2.122  52.919  1.00  0.00    -0.045 Br
HETATM    9  N1  UNL     1      25.043  -0.392  53.079  1.00  0.00    -0.379 N 
HETATM   10  C7  UNL     1      23.665   0.018  53.140  1.00  0.00     0.109 C 
HETATM   11  C14 UNL     1      23.347   1.078  52.147  1.00  0.00     0.005 C 
HETATM   12  C15 UNL     1      23.540   2.415  52.160  1.00  0.00    -0.036 C 
HETATM   13  C16 UNL     1      22.947   2.671  50.818  1.00  0.00     0.040 C 
HETATM   14  C17 UNL     1      21.702   3.493  50.889  1.00  0.00     0.028 C 
HETATM   15  C18 UNL     1      21.788   4.559  51.983  1.00  0.00     0.173 C 
HETATM   16  N2  UNL     1      23.090   5.166  52.039  1.00  0.00    -0.196 NA
HETATM   17  N3  UNL     1      24.141   4.675  52.542  1.00  0.00    -0.167 NA
HETATM   18  C19 UNL     1      24.136   3.355  53.155  1.00  0.00     0.258 C 
HETATM   19  N4  UNL     1      25.474   2.987  53.559  1.00  0.00    -0.360 N 
HETATM   20  H3  UNL     1      25.453  -1.336  52.905  1.00  0.00     0.160 HD
HETATM   21  H20 UNL     1      25.894   3.775  54.095  1.00  0.00     0.162 HD
ENDROOT
BRANCH  10  22
HETATM   22  C8  UNL     1      22.752  -1.174  53.004  1.00  0.00     0.063 C 
BRANCH  22  23
HETATM   23  C9  UNL     1      21.342  -0.793  52.840  1.00  0.00    -0.074 A 
HETATM   24  C10 UNL     1      20.422  -1.141  53.758  1.00  0.00     0.003 A 
HETATM   25  C11 UNL     1      19.071  -0.697  53.468  1.00  0.00    -0.003 A 
HETATM   26  C12 UNL     1      19.168  -0.061  52.335  1.00  0.00    -0.022 A 
HETATM   27  C13 UNL     1      20.569  -0.050  51.821  1.00  0.00     0.061 A 
ENDBRANCH  22  23
ENDBRANCH  10  22
TORSDOF 2
ENDMDL
MODEL 5
REMARK VINA RESULT:      -8.6      3.192      5.790
REMARK  2 active torsions:
REMARK  status: ('A' for Active; 'I' for Inactive)
REMARK    1  A    between atoms: C7_10  and  C8_11 
REMARK    2  A    between atoms: C8_11  and  C9_12 
ROOT
HETATM    1  F1  UNL     1      18.811  -1.095  53.076  1.00  0.00    -0.205 F 
HETATM    2  C1  UNL     1      20.081  -0.849  53.406  1.00  0.00     0.136 A 
HETATM    3  C2  UNL     1      20.718  -1.776  54.190  1.00  0.00     0.046 A 
HETATM    4  C3  UNL     1      22.030  -1.563  54.555  1.00  0.00     0.034 A 
HETATM    5  C4  UNL     1      22.671  -0.425  54.122  1.00  0.00     0.058 A 
HETATM    6  C5  UNL     1      22.082   0.551  53.328  1.00  0.00     0.076 A 
HETATM    7  C6  UNL     1      20.762   0.280  52.994  1.00  0.00     0.078 A 
HETATM    8 BR1  UNL     1      19.767   1.481  51.902  1.00  0.00    -0.045 Br
HETATM    9  N1  UNL     1      22.349   1.815  52.682  1.00  0.00    -0.379 N 
HETATM   10  C7  UNL     1      23.610   2.492  52.832  1.00  0.00     0.109 C 
HETATM   11  C14 UNL     1      24.756   1.650  52.397  1.00  0.00     0.005 C 
HETATM   12  C15 UNL     1      25.438   0.661  53.016  1.00  0.00    -0.036 C 
HETATM   13  C16 UNL     1      26.380   0.396  51.894  1.00  0.00     0.040 C 
HETATM   14  C17 UNL     1      27.795   0.720  52.244  1.00  0.00     0.028 C 
HETATM   15  C18 UNL     1      28.111   0.378  53.701  1.00  0.00     0.173 C 
HETATM   16  N2  UNL     1      27.506  -0.862  54.105  1.00  0.00    -0.196 NA
HETATM   17  N3  UNL     1      26.293  -1.060  54.401  1.00  0.00    -0.167 NA
HETATM   18  C19 UNL     1      25.322   0.024  54.361  1.00  0.00     0.258 C 
HETATM   19  N4  UNL     1      23.999  -0.480  54.643  1.00  0.00    -0.360 N 
HETATM   20  H3  UNL     1      21.505   2.088  52.133  1.00  0.00     0.160 HD
HETATM   21  H20 UNL     1      24.037  -1.072  55.500  1.00  0.00     0.162 HD
ENDROOT
BRANCH  10  22
HETATM   22  C8  UNL     1      23.585   3.821  52.122  1.00  0.00     0.063 C 
BRANCH  22  23
HETATM   23  C9  UNL     1      23.170   3.706  50.717  1.00  0.00    -0.074 A 
HETATM   24  C10 UNL     1      22.036   4.285  50.281  1.00  0.00     0.003 A 
HETATM   25  C11 UNL     1      21.751   4.090  48.872  1.00  0.00    -0.003 A 
HETATM   26  C12 UNL     1      22.740   3.365  48.432  1.00  0.00    -0.022 A 
HETATM   27  C13 UNL     1      23.719   3.046  49.512  1.00  0.00     0.061 A 
ENDBRANCH  22  23
ENDBRANCH  10  22
TORSDOF 2
ENDMDL
MODEL 6
REMARK VINA RESULT:      -8.4      3.590      6.632
REMARK  2 active torsions:
REMARK  status: ('A' for Active; 'I' for Inactive)
REMARK    1  A    between atoms: C7_10  and  C8_11 
REMARK    2  A    between atoms: C8_11  and  C9_12 
ROOT
HETATM    1  F1  UNL     1      21.964  -2.011  55.314  1.00  0.00    -0.205 F 
HETATM    2  C1  UNL     1      22.028  -1.071  54.367  1.00  0.00     0.136 A 
HETATM    3  C2  UNL     1      20.867  -0.769  53.702  1.00  0.00     0.046 A 
HETATM    4  C3  UNL     1      20.887   0.194  52.717  1.00  0.00     0.034 A 
HETATM    5  C4  UNL     1      22.071   0.831  52.423  1.00  0.00     0.058 A 
HETATM    6  C5  UNL     1      23.278   0.570  53.058  1.00  0.00     0.076 A 
HETATM    7  C6  UNL     1      23.194  -0.409  54.041  1.00  0.00     0.078 A 
HETATM    8 BR1  UNL     1      24.731  -0.915  55.045  1.00  0.00    -0.045 Br
HETATM    9  N1  UNL     1      24.668   0.961  53.079  1.00  0.00    -0.379 N 
HETATM   10  C7  UNL     1      25.198   1.926  52.153  1.00  0.00     0.109 C 
HETATM   11  C14 UNL     1      24.487   3.230  52.230  1.00  0.00     0.005 C 
HETATM   12  C15 UNL     1      23.319   3.655  51.699  1.00  0.00    -0.036 C 
HETATM   13  C16 UNL     1      23.384   5.031  52.264  1.00  0.00     0.040 C 
HETATM   14  C17 UNL     1      23.508   6.080  51.207  1.00  0.00     0.028 C 
HETATM   15  C18 UNL     1      22.700   5.724  49.958  1.00  0.00     0.173 C 
HETATM   16  N2  UNL     1      21.427   5.144  50.290  1.00  0.00    -0.196 NA
HETATM   17  N3  UNL     1      21.203   3.962  50.678  1.00  0.00    -0.167 NA
HETATM   18  C19 UNL     1      22.289   3.005  50.837  1.00  0.00     0.258 C 
HETATM   19  N4  UNL     1      21.786   1.766  51.383  1.00  0.00    -0.360 N 
HETATM   20  H3  UNL     1      25.145   0.440  53.847  1.00  0.00     0.160 HD
HETATM   21  H20 UNL     1      20.949   1.470  50.838  1.00  0.00     0.162 HD
ENDROOT
BRANCH  10  22
HETATM   22  C8  UNL     1      26.685   2.083  52.345  1.00  0.00     0.063 C 
BRANCH  22  23
HETATM   23  C9  UNL     1      27.346   0.820  52.702  1.00  0.00    -0.074 A 
HETATM   24  C10 UNL     1      28.373   0.800  53.572  1.00  0.00     0.003 A 
HETATM   25  C11 UNL     1      28.929  -0.515  53.832  1.00  0.00    -0.003 A 
HETATM   26  C12 UNL     1      28.222  -1.324  53.096  1.00  0.00    -0.022 A 
HETATM   27  C13 UNL     1      27.176  -0.598  52.318  1.00  0.00     0.061 A 
ENDBRANCH  22  23
ENDBRANCH  10  22
TORSDOF 2
ENDMDL
MODEL 7
REMARK VINA RESULT:      -8.2      3.900      6.630
REMARK  2 active torsions:
REMARK  status: ('A' for Active; 'I' for Inactive)
REMARK    1  A    between atoms: C7_10  and  C8_11 
REMARK    2  A    between atoms: C8_11  and  C9_12 
ROOT
HETATM    1  F1  UNL     1      18.842  -1.449  53.659  1.00  0.00    -0.205 F 
HETATM    2  C1  UNL     1      19.358  -0.519  52.851  1.00  0.00     0.136 A 
HETATM    3  C2  UNL     1      18.619  -0.158  51.755  1.00  0.00     0.046 A 
HETATM    4  C3  UNL     1      19.114   0.798  50.894  1.00  0.00     0.034 A 
HETATM    5  C4  UNL     1      20.338   1.368  51.155  1.00  0.00     0.058 A 
HETATM    6  C5  UNL     1      21.135   1.045  52.246  1.00  0.00     0.076 A 
HETATM    7  C6  UNL     1      20.583   0.077  53.076  1.00  0.00     0.078 A 
HETATM    8 BR1  UNL     1      21.503  -0.507  54.637  1.00  0.00    -0.045 Br
HETATM    9  N1  UNL     1      22.397   1.360  52.875  1.00  0.00    -0.379 N 
HETATM   10  C7  UNL     1      23.325   2.291  52.289  1.00  0.00     0.109 C 
HETATM   11  C14 UNL     1      22.718   3.631  52.075  1.00  0.00     0.005 C 
HETATM   12  C15 UNL     1      21.920   4.116  51.098  1.00  0.00    -0.036 C 
HETATM   13  C16 UNL     1      21.803   5.490  51.661  1.00  0.00     0.040 C 
HETATM   14  C17 UNL     1      22.427   6.525  50.783  1.00  0.00     0.028 C 
HETATM   15  C18 UNL     1      22.225   6.208  49.301  1.00  0.00     0.173 C 
HETATM   16  N2  UNL     1      20.906   5.699  49.037  1.00  0.00    -0.196 NA
HETATM   17  N3  UNL     1      20.476   4.532  49.266  1.00  0.00    -0.167 NA
HETATM   18  C19 UNL     1      21.334   3.519  49.862  1.00  0.00     0.258 C 
HETATM   19  N4  UNL     1      20.581   2.312  50.113  1.00  0.00    -0.360 N 
HETATM   20  H3  UNL     1      22.465   0.818  53.764  1.00  0.00     0.160 HD
HETATM   21  H20 UNL     1      20.050   2.060  49.253  1.00  0.00     0.162 HD
ENDROOT
BRANCH  10  22
HETATM   22  C8  UNL     1      24.587   2.367  53.110  1.00  0.00     0.063 C 
BRANCH  22  23
HETATM   23  C9  UNL     1      25.349   1.111  53.095  1.00  0.00    -0.074 A 
HETATM   24  C10 UNL     1      26.087   0.763  52.025  1.00  0.00     0.003 A 
HETATM   25  C11 UNL     1      26.787  -0.501  52.149  1.00  0.00    -0.003 A 
HETATM   26  C12 UNL     1      26.465  -0.943  53.332  1.00  0.00    -0.022 A 
HETATM   27  C13 UNL     1      25.546  -0.007  54.043  1.00  0.00     0.061 A 
ENDBRANCH  22  23
ENDBRANCH  10  22
TORSDOF 2
ENDMDL
MODEL 8
REMARK VINA RESULT:      -8.2      3.084      5.256
REMARK  2 active torsions:
REMARK  status: ('A' for Active; 'I' for Inactive)
REMARK    1  A    between atoms: C7_10  and  C8_11 
REMARK    2  A    between atoms: C8_11  and  C9_12 
ROOT
HETATM    1  F1  UNL     1      25.911  -1.417  53.271  1.00  0.00    -0.205 F 
HETATM    2  C1  UNL     1      25.817  -0.177  52.785  1.00  0.00     0.136 A 
HETATM    3  C2  UNL     1      26.973   0.414  52.344  1.00  0.00     0.046 A 
HETATM    4  C3  UNL     1      26.922   1.694  51.834  1.00  0.00     0.034 A 
HETATM    5  C4  UNL     1      25.713   2.348  51.779  1.00  0.00     0.058 A 
HETATM    6  C5  UNL     1      24.509   1.805  52.210  1.00  0.00     0.076 A 
HETATM    7  C6  UNL     1      24.625   0.515  52.712  1.00  0.00     0.078 A 
HETATM    8 BR1  UNL     1      23.095  -0.423  53.348  1.00  0.00    -0.045 Br
HETATM    9  N1  UNL     1      23.101   2.100  52.337  1.00  0.00    -0.379 N 
HETATM   10  C7  UNL     1      22.560   3.385  51.980  1.00  0.00     0.109 C 
HETATM   11  C14 UNL     1      22.848   3.744  50.566  1.00  0.00     0.005 C 
HETATM   12  C15 UNL     1      23.945   4.260  49.970  1.00  0.00    -0.036 C 
HETATM   13  C16 UNL     1      23.373   4.292  48.595  1.00  0.00     0.040 C 
HETATM   14  C17 UNL     1      23.219   5.682  48.070  1.00  0.00     0.028 C 
HETATM   15  C18 UNL     1      24.365   6.590  48.522  1.00  0.00     0.173 C 
HETATM   16  N2  UNL     1      25.632   5.912  48.484  1.00  0.00    -0.196 NA
HETATM   17  N3  UNL     1      26.074   5.069  49.316  1.00  0.00    -0.167 NA
HETATM   18  C19 UNL     1      25.287   4.674  50.476  1.00  0.00     0.258 C 
HETATM   19  N4  UNL     1      25.968   3.631  51.208  1.00  0.00    -0.360 N 
HETATM   20  H3  UNL     1      22.619   1.249  52.700  1.00  0.00     0.160 HD
HETATM   21  H20 UNL     1      26.957   3.916  51.362  1.00  0.00     0.162 HD
ENDROOT
BRANCH  10  22
HETATM   22  C8  UNL     1      21.086   3.443  52.289  1.00  0.00     0.063 C 
BRANCH  22  23
HETATM   23  C9  UNL     1      20.364   2.247  51.832  1.00  0.00    -0.074 A 
HETATM   24  C10 UNL     1      19.884   1.352  52.714  1.00  0.00     0.003 A 
HETATM   25  C11 UNL     1      19.192   0.221  52.124  1.00  0.00    -0.003 A 
HETATM   26  C12 UNL     1      19.254   0.430  50.839  1.00  0.00    -0.022 A 
HETATM   27  C13 UNL     1      19.981   1.692  50.516  1.00  0.00     0.061 A 
ENDBRANCH  22  23
ENDBRANCH  10  22
TORSDOF 2
ENDMDL
MODEL 9
REMARK VINA RESULT:      -8.0      2.203      4.685
REMARK  2 active torsions:
REMARK  status: ('A' for Active; 'I' for Inactive)
REMARK    1  A    between atoms: C7_10  and  C8_11 
REMARK    2  A    between atoms: C8_11  and  C9_12 
ROOT
HETATM    1  F1  UNL     1      23.743   6.834  48.147  1.00  0.00    -0.205 F 
HETATM    2  C1  UNL     1      23.144   6.061  49.056  1.00  0.00     0.136 A 
HETATM    3  C2  UNL     1      21.774   6.027  49.049  1.00  0.00     0.046 A 
HETATM    4  C3  UNL     1      21.114   5.243  49.971  1.00  0.00     0.034 A 
HETATM    5  C4  UNL     1      21.847   4.511  50.876  1.00  0.00     0.058 A 
HETATM    6  C5  UNL     1      23.235   4.503  50.936  1.00  0.00     0.076 A 
HETATM    7  C6  UNL     1      23.841   5.311  49.983  1.00  0.00     0.078 A 
HETATM    8 BR1  UNL     1      25.738   5.439  49.879  1.00  0.00    -0.045 Br
HETATM    9  N1  UNL     1      24.345   3.932  51.662  1.00  0.00    -0.379 N 
HETATM   10  C7  UNL     1      24.147   3.068  52.795  1.00  0.00     0.109 C 
HETATM   11  C14 UNL     1      23.326   1.876  52.458  1.00  0.00     0.005 C 
HETATM   12  C15 UNL     1      21.990   1.701  52.340  1.00  0.00    -0.036 C 
HETATM   13  C16 UNL     1      22.053   0.255  51.990  1.00  0.00     0.040 C 
HETATM   14  C17 UNL     1      21.430  -0.615  53.032  1.00  0.00     0.028 C 
HETATM   15  C18 UNL     1      20.199   0.043  53.658  1.00  0.00     0.173 C 
HETATM   16  N2  UNL     1      19.399   0.725  52.678  1.00  0.00    -0.196 NA
HETATM   17  N3  UNL     1      19.634   1.848  52.146  1.00  0.00    -0.167 NA
HETATM   18  C19 UNL     1      20.820   2.614  52.500  1.00  0.00     0.258 C 
HETATM   19  N4  UNL     1      20.908   3.803  51.685  1.00  0.00    -0.360 N 
HETATM   20  H3  UNL     1      25.231   4.253  51.213  1.00  0.00     0.160 HD
HETATM   21  H20 UNL     1      19.988   4.292  51.699  1.00  0.00     0.162 HD
ENDROOT
BRANCH  10  22
HETATM   22  C8  UNL     1      25.470   2.687  53.408  1.00  0.00     0.063 C 
BRANCH  22  23
HETATM   23  C9  UNL     1      25.805   1.272  53.198  1.00  0.00    -0.074 A 
HETATM   24  C10 UNL     1      26.539   0.885  52.138  1.00  0.00     0.003 A 
HETATM   25  C11 UNL     1      26.794  -0.541  52.058  1.00  0.00    -0.003 A 
HETATM   26  C12 UNL     1      26.194  -1.043  53.100  1.00  0.00    -0.022 A 
HETATM   27  C13 UNL     1      25.519   0.009  53.914  1.00  0.00     0.061 A 
ENDBRANCH  22  23
ENDBRANCH  10  22
TORSDOF 2
ENDMDL
