MODEL 1
REMARK VINA RESULT:      -9.6      0.000      0.000
REMARK  4 active torsions:
REMARK  status: ('A' for Active; 'I' for Inactive)
REMARK       I    between atoms: C1_2  and  N1_3 
REMARK    1  A    between atoms: C1_2  and  C17_22 
REMARK    2  A    between atoms: N1_3  and  C2_4 
REMARK    3  A    between atoms: C6_8  and  C7_9 
REMARK    4  A    between atoms: C10_13  and  C11_14 
ROOT
HETATM    1  C2  UNL     1      28.646   5.526  48.195  1.00  0.00     0.035 A 
HETATM    2  C3  UNL     1      28.295   6.836  47.977  1.00  0.00     0.029 A 
HETATM    3  C4  UNL     1      27.047   7.296  48.335  1.00  0.00     0.003 A 
HETATM    4  C5  UNL     1      26.130   6.478  48.912  1.00  0.00     0.015 A 
HETATM    5  C6  UNL     1      26.401   5.147  49.165  1.00  0.00     0.012 A 
HETATM    6  C16 UNL     1      27.683   4.741  48.781  1.00  0.00     0.044 A 
ENDROOT
BRANCH   5   7
HETATM    7  C7  UNL     1      25.458   4.209  49.793  1.00  0.00     0.134 A 
HETATM    8  N2  UNL     1      24.513   3.911  48.972  1.00  0.00    -0.243 NA
HETATM    9  C8  UNL     1      23.466   3.001  49.365  1.00  0.00     0.117 A 
HETATM   10  C9  UNL     1      23.612   2.551  50.599  1.00  0.00     0.022 A 
HETATM   11  C10 UNL     1      24.612   2.776  51.664  1.00  0.00     0.142 A 
HETATM   12  N4  UNL     1      25.580   3.707  51.117  1.00  0.00    -0.362 N 
HETATM   13  H12 UNL     1      26.420   4.098  51.581  1.00  0.00     0.162 HD
BRANCH  11  14
HETATM   14  C11 UNL     1      25.301   1.521  52.055  1.00  0.00    -0.014 A 
HETATM   15  C12 UNL     1      26.621   1.216  51.753  1.00  0.00     0.012 A 
HETATM   16  C13 UNL     1      27.067  -0.013  52.220  1.00  0.00     0.020 A 
HETATM   17  C14 UNL     1      26.251  -0.862  52.931  1.00  0.00     0.116 A 
HETATM   18  N3  UNL     1      24.964  -0.537  53.210  1.00  0.00    -0.272 NA
HETATM   19  C15 UNL     1      24.494   0.662  52.767  1.00  0.00     0.125 A 
ENDBRANCH  11  14
ENDBRANCH   5   7
BRANCH   1  20
HETATM   20  N1  UNL     1      29.927   5.052  47.836  1.00  0.00    -0.323 N 
HETATM   21  C1  UNL     1      31.196   5.102  48.410  1.00  0.00     0.256 C 
HETATM   22  O1  UNL     1      31.261   5.730  49.529  1.00  0.00    -0.267 OA
HETATM   23  H1  UNL     1      29.994   4.523  46.914  1.00  0.00     0.169 HD
BRANCH  21  24
HETATM   24  C17 UNL     1      32.438   4.543  47.906  1.00  0.00     0.032 A 
HETATM   25  C18 UNL     1      33.660   5.155  48.248  1.00  0.00     0.017 A 
HETATM   26  C19 UNL     1      34.745   4.508  47.718  1.00  0.00     0.001 A 
HETATM   27  C20 UNL     1      34.826   3.388  46.926  1.00  0.00     0.000 A 
HETATM   28  C21 UNL     1      33.575   2.888  46.663  1.00  0.00     0.001 A 
HETATM   29  C22 UNL     1      32.369   3.396  47.105  1.00  0.00     0.017 A 
ENDBRANCH  21  24
ENDBRANCH   1  20
TORSDOF 4
ENDMDL
MODEL 2
REMARK VINA RESULT:      -9.2      5.788      8.870
REMARK  4 active torsions:
REMARK  status: ('A' for Active; 'I' for Inactive)
REMARK       I    between atoms: C1_2  and  N1_3 
REMARK    1  A    between atoms: C1_2  and  C17_22 
REMARK    2  A    between atoms: N1_3  and  C2_4 
REMARK    3  A    between atoms: C6_8  and  C7_9 
REMARK    4  A    between atoms: C10_13  and  C11_14 
ROOT
HETATM    1  C2  UNL     1      23.244   0.754  52.418  1.00  0.00     0.035 A 
HETATM    2  C3  UNL     1      23.777   0.029  53.455  1.00  0.00     0.029 A 
HETATM    3  C4  UNL     1      22.981  -0.802  54.212  1.00  0.00     0.003 A 
HETATM    4  C5  UNL     1      21.654  -0.931  53.962  1.00  0.00     0.015 A 
HETATM    5  C6  UNL     1      21.036  -0.237  52.939  1.00  0.00     0.012 A 
HETATM    6  C16 UNL     1      21.896   0.588  52.207  1.00  0.00     0.044 A 
ENDROOT
BRANCH   5   7
HETATM    7  C7  UNL     1      19.607  -0.335  52.609  1.00  0.00     0.134 A 
HETATM    8  N2  UNL     1      19.383   0.161  51.443  1.00  0.00    -0.243 NA
HETATM    9  C8  UNL     1      18.048   0.174  50.899  1.00  0.00     0.117 A 
HETATM   10  C9  UNL     1      17.156  -0.361  51.715  1.00  0.00     0.022 A 
HETATM   11  C10 UNL     1      17.226  -0.969  53.061  1.00  0.00     0.142 A 
HETATM   12  N4  UNL     1      18.618  -0.899  53.461  1.00  0.00    -0.362 N 
HETATM   13  H12 UNL     1      19.042  -1.224  54.349  1.00  0.00     0.162 HD
BRANCH  11  14
HETATM   14  C11 UNL     1      16.784  -2.385  53.056  1.00  0.00    -0.014 A 
HETATM   15  C12 UNL     1      17.458  -3.426  53.678  1.00  0.00     0.012 A 
HETATM   16  C13 UNL     1      16.865  -4.675  53.552  1.00  0.00     0.020 A 
HETATM   17  C14 UNL     1      15.693  -4.859  52.857  1.00  0.00     0.116 A 
HETATM   18  N3  UNL     1      15.057  -3.820  52.258  1.00  0.00    -0.272 NA
HETATM   19  C15 UNL     1      15.611  -2.581  52.362  1.00  0.00     0.125 A 
ENDBRANCH  11  14
ENDBRANCH   5   7
BRANCH   1  20
HETATM   20  N1  UNL     1      24.057   1.601  51.634  1.00  0.00    -0.323 N 
HETATM   21  C1  UNL     1      24.141   2.977  51.429  1.00  0.00     0.256 C 
HETATM   22  O1  UNL     1      23.285   3.676  52.083  1.00  0.00    -0.267 OA
HETATM   23  H1  UNL     1      24.800   1.124  51.038  1.00  0.00     0.169 HD
BRANCH  21  24
HETATM   24  C17 UNL     1      25.062   3.708  50.577  1.00  0.00     0.032 A 
HETATM   25  C18 UNL     1      26.209   3.058  50.082  1.00  0.00     0.017 A 
HETATM   26  C19 UNL     1      26.972   3.865  49.279  1.00  0.00     0.001 A 
HETATM   27  C20 UNL     1      26.800   5.173  48.894  1.00  0.00     0.000 A 
HETATM   28  C21 UNL     1      25.654   5.693  49.441  1.00  0.00     0.001 A 
HETATM   29  C22 UNL     1      24.759   5.040  50.268  1.00  0.00     0.017 A 
ENDBRANCH  21  24
ENDBRANCH   1  20
TORSDOF 4
ENDMDL
MODEL 3
REMARK VINA RESULT:      -9.1      3.480      6.797
REMARK  4 active torsions:
REMARK  status: ('A' for Active; 'I' for Inactive)
REMARK       I    between atoms: C1_2  and  N1_3 
REMARK    1  A    between atoms: C1_2  and  C17_22 
REMARK    2  A    between atoms: N1_3  and  C2_4 
REMARK    3  A    between atoms: C6_8  and  C7_9 
REMARK    4  A    between atoms: C10_13  and  C11_14 
ROOT
HETATM    1  C2  UNL     1      26.120   1.873  51.745  1.00  0.00     0.035 A 
HETATM    2  C3  UNL     1      27.068   0.986  52.191  1.00  0.00     0.029 A 
HETATM    3  C4  UNL     1      26.698  -0.148  52.880  1.00  0.00     0.003 A 
HETATM    4  C5  UNL     1      25.396  -0.425  53.141  1.00  0.00     0.015 A 
HETATM    5  C6  UNL     1      24.379   0.416  52.730  1.00  0.00     0.012 A 
HETATM    6  C16 UNL     1      24.817   1.547  52.035  1.00  0.00     0.044 A 
ENDROOT
BRANCH   5   7
HETATM    7  C7  UNL     1      22.948   0.173  52.971  1.00  0.00     0.134 A 
HETATM    8  N2  UNL     1      22.744  -0.096  54.213  1.00  0.00    -0.243 NA
HETATM    9  C8  UNL     1      21.412  -0.369  54.691  1.00  0.00     0.117 A 
HETATM   10  C9  UNL     1      20.500  -0.304  53.737  1.00  0.00     0.022 A 
HETATM   11  C10 UNL     1      20.546  -0.013  52.288  1.00  0.00     0.142 A 
HETATM   12  N4  UNL     1      21.940   0.230  51.970  1.00  0.00    -0.362 N 
HETATM   13  H12 UNL     1      22.352   0.459  51.048  1.00  0.00     0.162 HD
BRANCH  11  14
HETATM   14  C11 UNL     1      19.743   1.184  51.934  1.00  0.00    -0.014 A 
HETATM   15  C12 UNL     1      18.587   1.162  51.167  1.00  0.00     0.012 A 
HETATM   16  C13 UNL     1      17.989   2.398  50.961  1.00  0.00     0.020 A 
HETATM   17  C14 UNL     1      18.513   3.558  51.483  1.00  0.00     0.116 A 
HETATM   18  N3  UNL     1      19.647   3.547  52.230  1.00  0.00    -0.272 NA
HETATM   19  C15 UNL     1      20.259   2.351  52.452  1.00  0.00     0.125 A 
ENDBRANCH  11  14
ENDBRANCH   5   7
BRANCH   1  20
HETATM   20  N1  UNL     1      26.494   3.033  51.032  1.00  0.00    -0.323 N 
HETATM   21  C1  UNL     1      26.056   3.660  49.867  1.00  0.00     0.256 C 
HETATM   22  O1  UNL     1      25.088   3.069  49.263  1.00  0.00    -0.267 OA
HETATM   23  H1  UNL     1      27.299   3.599  51.438  1.00  0.00     0.169 HD
BRANCH  21  24
HETATM   24  C17 UNL     1      26.551   4.882  49.258  1.00  0.00     0.032 A 
HETATM   25  C18 UNL     1      25.755   6.044  49.295  1.00  0.00     0.017 A 
HETATM   26  C19 UNL     1      26.359   7.120  48.700  1.00  0.00     0.001 A 
HETATM   27  C20 UNL     1      27.583   7.241  48.089  1.00  0.00     0.000 A 
HETATM   28  C21 UNL     1      28.259   6.047  48.115  1.00  0.00     0.001 A 
HETATM   29  C22 UNL     1      27.820   4.858  48.667  1.00  0.00     0.017 A 
ENDBRANCH  21  24
ENDBRANCH   1  20
TORSDOF 4
ENDMDL
MODEL 4
REMARK VINA RESULT:      -9.0      5.457      8.053
REMARK  4 active torsions:
REMARK  status: ('A' for Active; 'I' for Inactive)
REMARK       I    between atoms: C1_2  and  N1_3 
REMARK    1  A    between atoms: C1_2  and  C17_22 
REMARK    2  A    between atoms: N1_3  and  C2_4 
REMARK    3  A    between atoms: C6_8  and  C7_9 
REMARK    4  A    between atoms: C10_13  and  C11_14 
ROOT
HETATM    1  C2  UNL     1      23.557  -0.045  53.629  1.00  0.00     0.035 A 
HETATM    2  C3  UNL     1      22.734  -0.751  54.472  1.00  0.00     0.029 A 
HETATM    3  C4  UNL     1      21.391  -0.455  54.551  1.00  0.00     0.003 A 
HETATM    4  C5  UNL     1      20.839   0.536  53.806  1.00  0.00     0.015 A 
HETATM    5  C6  UNL     1      21.596   1.296  52.934  1.00  0.00     0.012 A 
HETATM    6  C16 UNL     1      22.949   0.948  52.898  1.00  0.00     0.044 A 
ENDROOT
BRANCH   5   7
HETATM    7  C7  UNL     1      21.062   2.378  52.093  1.00  0.00     0.134 A 
HETATM    8  N2  UNL     1      19.838   2.623  52.404  1.00  0.00    -0.243 NA
HETATM    9  C8  UNL     1      19.100   3.650  51.713  1.00  0.00     0.117 A 
HETATM   10  C9  UNL     1      19.816   4.260  50.784  1.00  0.00     0.022 A 
HETATM   11  C10 UNL     1      21.205   4.119  50.298  1.00  0.00     0.142 A 
HETATM   12  N4  UNL     1      21.799   3.053  51.082  1.00  0.00    -0.362 N 
HETATM   13  H12 UNL     1      22.761   2.674  51.015  1.00  0.00     0.162 HD
BRANCH  11  14
HETATM   14  C11 UNL     1      21.989   5.364  50.484  1.00  0.00    -0.014 A 
HETATM   15  C12 UNL     1      21.509   6.644  50.246  1.00  0.00     0.012 A 
HETATM   16  C13 UNL     1      22.411   7.671  50.489  1.00  0.00     0.020 A 
HETATM   17  C14 UNL     1      23.689   7.428  50.935  1.00  0.00     0.116 A 
HETATM   18  N3  UNL     1      24.131   6.164  51.158  1.00  0.00    -0.272 NA
HETATM   19  C15 UNL     1      23.272   5.133  50.929  1.00  0.00     0.125 A 
ENDBRANCH  11  14
ENDBRANCH   5   7
BRANCH   1  20
HETATM   20  N1  UNL     1      24.933  -0.349  53.539  1.00  0.00    -0.323 N 
HETATM   21  C1  UNL     1      26.113   0.293  53.908  1.00  0.00     0.256 C 
HETATM   22  O1  UNL     1      25.955   1.444  54.457  1.00  0.00    -0.267 OA
HETATM   23  H1  UNL     1      25.182  -1.280  53.086  1.00  0.00     0.169 HD
BRANCH  21  24
HETATM   24  C17 UNL     1      27.480  -0.169  53.751  1.00  0.00     0.032 A 
HETATM   25  C18 UNL     1      27.718  -1.455  53.228  1.00  0.00     0.017 A 
HETATM   26  C19 UNL     1      29.054  -1.745  53.120  1.00  0.00     0.001 A 
HETATM   27  C20 UNL     1      30.165  -1.000  53.433  1.00  0.00     0.000 A 
HETATM   28  C21 UNL     1      29.802   0.225  53.932  1.00  0.00     0.001 A 
HETATM   29  C22 UNL     1      28.517   0.700  54.115  1.00  0.00     0.017 A 
ENDBRANCH  21  24
ENDBRANCH   1  20
TORSDOF 4
ENDMDL
MODEL 5
REMARK VINA RESULT:      -9.0      2.428      3.214
REMARK  4 active torsions:
REMARK  status: ('A' for Active; 'I' for Inactive)
REMARK       I    between atoms: C1_2  and  N1_3 
REMARK    1  A    between atoms: C1_2  and  C17_22 
REMARK    2  A    between atoms: N1_3  and  C2_4 
REMARK    3  A    between atoms: C6_8  and  C7_9 
REMARK    4  A    between atoms: C10_13  and  C11_14 
ROOT
HETATM    1  C2  UNL     1      26.244   5.830  49.039  1.00  0.00     0.035 A 
HETATM    2  C3  UNL     1      25.152   6.214  48.299  1.00  0.00     0.029 A 
HETATM    3  C4  UNL     1      23.921   5.635  48.514  1.00  0.00     0.003 A 
HETATM    4  C5  UNL     1      23.745   4.675  49.457  1.00  0.00     0.015 A 
HETATM    5  C6  UNL     1      24.790   4.231  50.244  1.00  0.00     0.012 A 
HETATM    6  C16 UNL     1      26.012   4.855  49.980  1.00  0.00     0.044 A 
ENDROOT
BRANCH   5   7
HETATM    7  C7  UNL     1      24.668   3.201  51.287  1.00  0.00     0.134 A 
HETATM    8  N2  UNL     1      23.891   2.255  50.892  1.00  0.00    -0.243 NA
HETATM    9  C8  UNL     1      23.620   1.127  51.748  1.00  0.00     0.117 A 
HETATM   10  C9  UNL     1      24.243   1.204  52.911  1.00  0.00     0.022 A 
HETATM   11  C10 UNL     1      25.156   2.191  53.527  1.00  0.00     0.142 A 
HETATM   12  N4  UNL     1      25.319   3.251  52.551  1.00  0.00    -0.362 N 
HETATM   13  H12 UNL     1      25.884   4.115  52.638  1.00  0.00     0.162 HD
BRANCH  11  14
HETATM   14  C11 UNL     1      26.481   1.603  53.842  1.00  0.00    -0.014 A 
HETATM   15  C12 UNL     1      27.700   2.171  53.500  1.00  0.00     0.012 A 
HETATM   16  C13 UNL     1      28.821   1.454  53.898  1.00  0.00     0.020 A 
HETATM   17  C14 UNL     1      28.720   0.265  54.582  1.00  0.00     0.116 A 
HETATM   18  N3  UNL     1      27.513  -0.266  54.902  1.00  0.00    -0.272 NA
HETATM   19  C15 UNL     1      26.393   0.411  54.527  1.00  0.00     0.125 A 
ENDBRANCH  11  14
ENDBRANCH   5   7
BRANCH   1  20
HETATM   20  N1  UNL     1      27.507   6.426  48.827  1.00  0.00    -0.323 N 
HETATM   21  C1  UNL     1      28.755   5.971  48.408  1.00  0.00     0.256 C 
HETATM   22  O1  UNL     1      28.816   4.713  48.153  1.00  0.00    -0.267 OA
HETATM   23  H1  UNL     1      27.575   7.470  49.021  1.00  0.00     0.169 HD
BRANCH  21  24
HETATM   24  C17 UNL     1      29.980   6.730  48.228  1.00  0.00     0.032 A 
HETATM   25  C18 UNL     1      30.007   7.784  47.294  1.00  0.00     0.017 A 
HETATM   26  C19 UNL     1      31.220   8.421  47.248  1.00  0.00     0.001 A 
HETATM   27  C20 UNL     1      32.381   8.197  47.948  1.00  0.00     0.000 A 
HETATM   28  C21 UNL     1      32.228   7.148  48.820  1.00  0.00     0.001 A 
HETATM   29  C22 UNL     1      31.090   6.388  49.011  1.00  0.00     0.017 A 
ENDBRANCH  21  24
ENDBRANCH   1  20
TORSDOF 4
ENDMDL
MODEL 6
REMARK VINA RESULT:      -8.9      3.209      7.385
REMARK  4 active torsions:
REMARK  status: ('A' for Active; 'I' for Inactive)
REMARK       I    between atoms: C1_2  and  N1_3 
REMARK    1  A    between atoms: C1_2  and  C17_22 
REMARK    2  A    between atoms: N1_3  and  C2_4 
REMARK    3  A    between atoms: C6_8  and  C7_9 
REMARK    4  A    between atoms: C10_13  and  C11_14 
ROOT
HETATM    1  C2  UNL     1      24.601   2.140  52.045  1.00  0.00     0.035 A 
HETATM    2  C3  UNL     1      23.320   1.993  52.518  1.00  0.00     0.029 A 
HETATM    3  C4  UNL     1      22.387   2.990  52.337  1.00  0.00     0.003 A 
HETATM    4  C5  UNL     1      22.697   4.141  51.690  1.00  0.00     0.015 A 
HETATM    5  C6  UNL     1      23.963   4.371  51.184  1.00  0.00     0.012 A 
HETATM    6  C16 UNL     1      24.864   3.324  51.398  1.00  0.00     0.044 A 
ENDROOT
BRANCH   5   7
HETATM    7  C7  UNL     1      24.365   5.591  50.468  1.00  0.00     0.134 A 
HETATM    8  N2  UNL     1      23.934   6.634  51.085  1.00  0.00    -0.243 NA
HETATM    9  C8  UNL     1      24.208   7.952  50.570  1.00  0.00     0.117 A 
HETATM   10  C9  UNL     1      24.916   7.932  49.455  1.00  0.00     0.022 A 
HETATM   11  C10 UNL     1      25.488   6.854  48.619  1.00  0.00     0.142 A 
HETATM   12  N4  UNL     1      25.122   5.607  49.264  1.00  0.00    -0.362 N 
HETATM   13  H12 UNL     1      25.345   4.643  48.958  1.00  0.00     0.162 HD
BRANCH  11  14
HETATM   14  C11 UNL     1      26.966   6.946  48.527  1.00  0.00    -0.014 A 
HETATM   15  C12 UNL     1      27.813   5.870  48.305  1.00  0.00     0.012 A 
HETATM   16  C13 UNL     1      29.165   6.182  48.249  1.00  0.00     0.020 A 
HETATM   17  C14 UNL     1      29.624   7.469  48.405  1.00  0.00     0.116 A 
HETATM   18  N3  UNL     1      28.770   8.501  48.623  1.00  0.00    -0.272 NA
HETATM   19  C15 UNL     1      27.437   8.231  48.682  1.00  0.00     0.125 A 
ENDBRANCH  11  14
ENDBRANCH   5   7
BRANCH   1  20
HETATM   20  N1  UNL     1      25.560   1.119  52.222  1.00  0.00    -0.323 N 
HETATM   21  C1  UNL     1      26.631   0.908  53.088  1.00  0.00     0.256 C 
HETATM   22  O1  UNL     1      26.834   1.850  53.938  1.00  0.00    -0.267 OA
HETATM   23  H1  UNL     1      25.492   0.288  51.559  1.00  0.00     0.169 HD
BRANCH  21  24
HETATM   24  C17 UNL     1      27.534  -0.227  53.148  1.00  0.00     0.032 A 
HETATM   25  C18 UNL     1      28.858  -0.033  53.591  1.00  0.00     0.017 A 
HETATM   26  C19 UNL     1      29.585  -1.194  53.613  1.00  0.00     0.001 A 
HETATM   27  C20 UNL     1      29.238  -2.481  53.279  1.00  0.00     0.000 A 
HETATM   28  C21 UNL     1      27.931  -2.537  52.864  1.00  0.00     0.001 A 
HETATM   29  C22 UNL     1      27.042  -1.483  52.774  1.00  0.00     0.017 A 
ENDBRANCH  21  24
ENDBRANCH   1  20
TORSDOF 4
ENDMDL
MODEL 7
REMARK VINA RESULT:      -8.9      5.652      8.195
REMARK  4 active torsions:
REMARK  status: ('A' for Active; 'I' for Inactive)
REMARK       I    between atoms: C1_2  and  N1_3 
REMARK    1  A    between atoms: C1_2  and  C17_22 
REMARK    2  A    between atoms: N1_3  and  C2_4 
REMARK    3  A    between atoms: C6_8  and  C7_9 
REMARK    4  A    between atoms: C10_13  and  C11_14 
ROOT
HETATM    1  C2  UNL     1      23.490  -0.592  53.650  1.00  0.00     0.035 A 
HETATM    2  C3  UNL     1      22.775  -1.037  54.735  1.00  0.00     0.029 A 
HETATM    3  C4  UNL     1      21.401  -0.936  54.758  1.00  0.00     0.003 A 
HETATM    4  C5  UNL     1      20.714  -0.398  53.720  1.00  0.00     0.015 A 
HETATM    5  C6  UNL     1      21.355   0.076  52.591  1.00  0.00     0.012 A 
HETATM    6  C16 UNL     1      22.747  -0.055  52.626  1.00  0.00     0.044 A 
ENDROOT
BRANCH   5   7
HETATM    7  C7  UNL     1      20.672   0.664  51.429  1.00  0.00     0.134 A 
HETATM    8  N2  UNL     1      19.490   1.052  51.755  1.00  0.00    -0.243 NA
HETATM    9  C8  UNL     1      18.627   1.665  50.777  1.00  0.00     0.117 A 
HETATM   10  C9  UNL     1      19.190   1.763  49.585  1.00  0.00     0.022 A 
HETATM   11  C10 UNL     1      20.509   1.382  49.035  1.00  0.00     0.142 A 
HETATM   12  N4  UNL     1      21.243   0.781  50.132  1.00  0.00    -0.362 N 
HETATM   13  H12 UNL     1      22.202   0.391  50.117  1.00  0.00     0.162 HD
BRANCH  11  14
HETATM   14  C11 UNL     1      21.258   2.555  48.522  1.00  0.00    -0.014 A 
HETATM   15  C12 UNL     1      22.491   2.977  49.001  1.00  0.00     0.012 A 
HETATM   16  C13 UNL     1      23.018   4.097  48.374  1.00  0.00     0.020 A 
HETATM   17  C14 UNL     1      22.359   4.738  47.351  1.00  0.00     0.116 A 
HETATM   18  N3  UNL     1      21.153   4.302  46.905  1.00  0.00    -0.272 NA
HETATM   19  C15 UNL     1      20.608   3.205  47.498  1.00  0.00     0.125 A 
ENDBRANCH  11  14
ENDBRANCH   5   7
BRANCH   1  20
HETATM   20  N1  UNL     1      24.898  -0.700  53.618  1.00  0.00    -0.323 N 
HETATM   21  C1  UNL     1      25.959   0.203  53.636  1.00  0.00     0.256 C 
HETATM   22  O1  UNL     1      25.617   1.440  53.684  1.00  0.00    -0.267 OA
HETATM   23  H1  UNL     1      25.295  -1.687  53.566  1.00  0.00     0.169 HD
BRANCH  21  24
HETATM   24  C17 UNL     1      27.384  -0.076  53.607  1.00  0.00     0.032 A 
HETATM   25  C18 UNL     1      28.290   0.914  54.035  1.00  0.00     0.017 A 
HETATM   26  C19 UNL     1      29.595   0.502  53.970  1.00  0.00     0.001 A 
HETATM   27  C20 UNL     1      30.144  -0.690  53.562  1.00  0.00     0.000 A 
HETATM   28  C21 UNL     1      29.163  -1.566  53.170  1.00  0.00     0.001 A 
HETATM   29  C22 UNL     1      27.800  -1.338  53.164  1.00  0.00     0.017 A 
ENDBRANCH  21  24
ENDBRANCH   1  20
TORSDOF 4
ENDMDL
MODEL 8
REMARK VINA RESULT:      -8.6      6.484      8.854
REMARK  4 active torsions:
REMARK  status: ('A' for Active; 'I' for Inactive)
REMARK       I    between atoms: C1_2  and  N1_3 
REMARK    1  A    between atoms: C1_2  and  C17_22 
REMARK    2  A    between atoms: N1_3  and  C2_4 
REMARK    3  A    between atoms: C6_8  and  C7_9 
REMARK    4  A    between atoms: C10_13  and  C11_14 
ROOT
HETATM    1  C2  UNL     1      23.412  -0.559  53.752  1.00  0.00     0.035 A 
HETATM    2  C3  UNL     1      22.691  -1.202  54.728  1.00  0.00     0.029 A 
HETATM    3  C4  UNL     1      21.319  -1.084  54.779  1.00  0.00     0.003 A 
HETATM    4  C5  UNL     1      20.639  -0.335  53.875  1.00  0.00     0.015 A 
HETATM    5  C6  UNL     1      21.287   0.346  52.862  1.00  0.00     0.012 A 
HETATM    6  C16 UNL     1      22.676   0.187  52.862  1.00  0.00     0.044 A 
ENDROOT
BRANCH   5   7
HETATM    7  C7  UNL     1      20.612   1.168  51.846  1.00  0.00     0.134 A 
HETATM    8  N2  UNL     1      20.829   0.692  50.670  1.00  0.00    -0.243 NA
HETATM    9  C8  UNL     1      20.265   1.331  49.508  1.00  0.00     0.117 A 
HETATM   10  C9  UNL     1      19.544   2.398  49.808  1.00  0.00     0.022 A 
HETATM   11  C10 UNL     1      19.190   3.079  51.072  1.00  0.00     0.142 A 
HETATM   12  N4  UNL     1      19.834   2.323  52.130  1.00  0.00    -0.362 N 
HETATM   13  H12 UNL     1      19.812   2.510  53.148  1.00  0.00     0.162 HD
BRANCH  11  14
HETATM   14  C11 UNL     1      17.725   3.100  51.301  1.00  0.00    -0.014 A 
HETATM   15  C12 UNL     1      16.960   4.252  51.424  1.00  0.00     0.012 A 
HETATM   16  C13 UNL     1      15.603   4.043  51.631  1.00  0.00     0.020 A 
HETATM   17  C14 UNL     1      15.063   2.780  51.708  1.00  0.00     0.116 A 
HETATM   18  N3  UNL     1      15.837   1.672  51.584  1.00  0.00    -0.272 NA
HETATM   19  C15 UNL     1      17.173   1.841  51.380  1.00  0.00     0.125 A 
ENDBRANCH  11  14
ENDBRANCH   5   7
BRANCH   1  20
HETATM   20  N1  UNL     1      24.817  -0.682  53.691  1.00  0.00    -0.323 N 
HETATM   21  C1  UNL     1      25.889   0.208  53.707  1.00  0.00     0.256 C 
HETATM   22  O1  UNL     1      25.562   1.449  53.785  1.00  0.00    -0.267 OA
HETATM   23  H1  UNL     1      25.202  -1.672  53.612  1.00  0.00     0.169 HD
BRANCH  21  24
HETATM   24  C17 UNL     1      27.309  -0.086  53.645  1.00  0.00     0.032 A 
HETATM   25  C18 UNL     1      27.734  -1.335  53.152  1.00  0.00     0.017 A 
HETATM   26  C19 UNL     1      29.099  -1.463  53.135  1.00  0.00     0.001 A 
HETATM   27  C20 UNL     1      30.089  -0.589  53.513  1.00  0.00     0.000 A 
HETATM   28  C21 UNL     1      29.549   0.586  53.975  1.00  0.00     0.001 A 
HETATM   29  C22 UNL     1      28.207   0.902  54.067  1.00  0.00     0.017 A 
ENDBRANCH  21  24
ENDBRANCH   1  20
TORSDOF 4
ENDMDL
MODEL 9
REMARK VINA RESULT:      -8.4      2.664      7.577
REMARK  4 active torsions:
REMARK  status: ('A' for Active; 'I' for Inactive)
REMARK       I    between atoms: C1_2  and  N1_3 
REMARK    1  A    between atoms: C1_2  and  C17_22 
REMARK    2  A    between atoms: N1_3  and  C2_4 
REMARK    3  A    between atoms: C6_8  and  C7_9 
REMARK    4  A    between atoms: C10_13  and  C11_14 
ROOT
HETATM    1  C2  UNL     1      25.938   3.197  50.091  1.00  0.00     0.035 A 
HETATM    2  C3  UNL     1      24.592   3.181  49.821  1.00  0.00     0.029 A 
HETATM    3  C4  UNL     1      23.987   4.257  49.209  1.00  0.00     0.003 A 
HETATM    4  C5  UNL     1      24.694   5.360  48.856  1.00  0.00     0.015 A 
HETATM    5  C6  UNL     1      26.053   5.459  49.093  1.00  0.00     0.012 A 
HETATM    6  C16 UNL     1      26.608   4.336  49.714  1.00  0.00     0.044 A 
ENDROOT
BRANCH   5   7
HETATM    7  C7  UNL     1      26.880   6.619  48.730  1.00  0.00     0.134 A 
HETATM    8  N2  UNL     1      26.419   7.686  49.282  1.00  0.00    -0.243 NA
HETATM    9  C8  UNL     1      27.069   8.955  49.072  1.00  0.00     0.117 A 
HETATM   10  C9  UNL     1      28.131   8.866  48.289  1.00  0.00     0.022 A 
HETATM   11  C10 UNL     1      28.796   7.751  47.582  1.00  0.00     0.142 A 
HETATM   12  N4  UNL     1      28.024   6.562  47.888  1.00  0.00    -0.362 N 
HETATM   13  H12 UNL     1      28.191   5.594  47.560  1.00  0.00     0.162 HD
BRANCH  11  14
HETATM   14  C11 UNL     1      30.196   7.561  48.035  1.00  0.00    -0.014 A 
HETATM   15  C12 UNL     1      30.768   8.201  49.125  1.00  0.00     0.012 A 
HETATM   16  C13 UNL     1      32.094   7.873  49.377  1.00  0.00     0.020 A 
HETATM   17  C14 UNL     1      32.784   6.977  48.594  1.00  0.00     0.116 A 
HETATM   18  N3  UNL     1      32.197   6.368  47.532  1.00  0.00    -0.272 NA
HETATM   19  C15 UNL     1      30.898   6.666  47.258  1.00  0.00     0.125 A 
ENDBRANCH  11  14
ENDBRANCH   5   7
BRANCH   1  20
HETATM   20  N1  UNL     1      26.564   2.093  50.712  1.00  0.00    -0.323 N 
HETATM   21  C1  UNL     1      26.692   1.638  52.022  1.00  0.00     0.256 C 
HETATM   22  O1  UNL     1      26.126   2.375  52.910  1.00  0.00    -0.267 OA
HETATM   23  H1  UNL     1      27.077   1.418  50.068  1.00  0.00     0.169 HD
BRANCH  21  24
HETATM   24  C17 UNL     1      27.376   0.451  52.504  1.00  0.00     0.032 A 
HETATM   25  C18 UNL     1      26.814  -0.817  52.257  1.00  0.00     0.017 A 
HETATM   26  C19 UNL     1      27.579  -1.841  52.753  1.00  0.00     0.001 A 
HETATM   27  C20 UNL     1      28.772  -1.826  53.434  1.00  0.00     0.000 A 
HETATM   28  C21 UNL     1      29.212  -0.538  53.612  1.00  0.00     0.001 A 
HETATM   29  C22 UNL     1      28.587   0.619  53.187  1.00  0.00     0.017 A 
ENDBRANCH  21  24
ENDBRANCH   1  20
TORSDOF 4
ENDMDL
