MODEL 1
REMARK VINA RESULT:      -8.0      0.000      0.000
REMARK  7 active torsions:
REMARK  status: ('A' for Active; 'I' for Inactive)
REMARK    1  A    between atoms: O1_2  and  C2_3 
REMARK    2  A    between atoms: C2_3  and  C14_20 
REMARK    3  A    between atoms: C3_4  and  C4_5 
REMARK    4  A    between atoms: C5_6  and  N1_7 
REMARK    5  A    between atoms: N1_7  and  C6_8 
REMARK    6  A    between atoms: C14_20  and  O2_21 
REMARK    7  A    between atoms: O2_21  and  C15_22 
ROOT
HETATM    1  C4  UNL     1      27.348  -0.109  52.934  1.00  0.00     0.027 A 
HETATM    2  C5  UNL     1      27.811   1.159  53.068  1.00  0.00     0.135 A 
HETATM    3  N2  UNL     1      29.098   1.132  53.524  1.00  0.00    -0.230 NA
HETATM    4  C12 UNL     1      29.471  -0.144  53.686  1.00  0.00     0.229 A 
HETATM    5  N3  UNL     1      29.533  -1.517  53.740  1.00  0.00    -0.265 NA
HETATM    6  C13 UNL     1      28.349  -1.008  53.309  1.00  0.00     0.170 A 
ENDROOT
BRANCH   1   7
HETATM    7  C3  UNL     1      26.028  -0.507  52.517  1.00  0.00     0.048 C 
HETATM    8  C2  UNL     1      25.006  -0.596  53.346  1.00  0.00     0.070 C 
BRANCH   8   9
HETATM    9  O1  UNL     1      25.441  -0.250  54.640  1.00  0.00    -0.358 OA
HETATM   10  C1  UNL     1      25.004  -1.007  55.757  1.00  0.00     0.209 C 
ENDBRANCH   8   9
BRANCH   8  11
HETATM   11  C14 UNL     1      23.575  -0.923  53.433  1.00  0.00     0.232 C 
BRANCH  11  12
HETATM   12  O2  UNL     1      22.751  -0.250  52.572  1.00  0.00    -0.377 OA
BRANCH  12  13
HETATM   13  C15 UNL     1      21.792   0.546  53.143  1.00  0.00     0.156 C 
HETATM   14  C16 UNL     1      20.886  -0.225  54.090  1.00  0.00     0.064 C 
HETATM   15  C17 UNL     1      19.552  -0.358  53.426  1.00  0.00     0.275 C 
HETATM   16  N4  UNL     1      19.763   0.067  52.056  1.00  0.00     0.091 N 
HETATM   17  C18 UNL     1      18.520   0.566  51.530  1.00  0.00     0.310 C 
HETATM   18  C19 UNL     1      20.783   1.070  52.141  1.00  0.00     0.247 C 
HETATM   19  C20 UNL     1      20.243   2.415  52.571  1.00  0.00     0.045 C 
ENDBRANCH  12  13
ENDBRANCH  11  12
ENDBRANCH   8  11
ENDBRANCH   1   7
BRANCH   2  20
HETATM   20  N1  UNL     1      27.244   2.428  52.797  1.00  0.00    -0.338 N 
HETATM   21  H5  UNL     1      27.295   3.384  53.197  1.00  0.00     0.167 HD
BRANCH  20  22
HETATM   22  C6  UNL     1      26.315   2.738  51.768  1.00  0.00     0.072 A 
HETATM   23  C7  UNL     1      26.533   2.954  50.410  1.00  0.00     0.034 A 
HETATM   24  C8  UNL     1      25.497   3.244  49.551  1.00  0.00     0.021 A 
HETATM   25  C9  UNL     1      24.202   3.324  50.029  1.00  0.00     0.014 A 
HETATM   26 BR1  UNL     1      22.908   3.734  48.690  1.00  0.00    -0.051 Br
HETATM   27  C10 UNL     1      23.958   3.115  51.371  1.00  0.00     0.063 A 
HETATM   28  C11 UNL     1      25.008   2.825  52.227  1.00  0.00     0.144 A 
HETATM   29  F1  UNL     1      24.601   2.648  53.507  1.00  0.00    -0.204 F 
ENDBRANCH  20  22
ENDBRANCH   2  20
TORSDOF 7
ENDMDL
MODEL 2
REMARK VINA RESULT:      -7.5      4.849      8.915
REMARK  7 active torsions:
REMARK  status: ('A' for Active; 'I' for Inactive)
REMARK    1  A    between atoms: O1_2  and  C2_3 
REMARK    2  A    between atoms: C2_3  and  C14_20 
REMARK    3  A    between atoms: C3_4  and  C4_5 
REMARK    4  A    between atoms: C5_6  and  N1_7 
REMARK    5  A    between atoms: N1_7  and  C6_8 
REMARK    6  A    between atoms: C14_20  and  O2_21 
REMARK    7  A    between atoms: O2_21  and  C15_22 
ROOT
HETATM    1  C4  UNL     1      25.283   3.349  50.052  1.00  0.00     0.027 A 
HETATM    2  C5  UNL     1      25.068   2.987  51.342  1.00  0.00     0.135 A 
HETATM    3  N2  UNL     1      23.727   2.867  51.568  1.00  0.00    -0.230 NA
HETATM    4  C12 UNL     1      23.071   3.148  50.434  1.00  0.00     0.229 A 
HETATM    5  N3  UNL     1      22.720   3.484  49.148  1.00  0.00    -0.265 NA
HETATM    6  C13 UNL     1      24.055   3.474  49.397  1.00  0.00     0.170 A 
ENDROOT
BRANCH   1   7
HETATM    7  C3  UNL     1      26.554   3.613  49.429  1.00  0.00     0.048 C 
HETATM    8  C2  UNL     1      26.914   4.809  49.005  1.00  0.00     0.070 C 
BRANCH   8   9
HETATM    9  O1  UNL     1      25.867   5.716  49.264  1.00  0.00    -0.358 OA
HETATM   10  C1  UNL     1      26.166   7.034  49.692  1.00  0.00     0.209 C 
ENDBRANCH   8   9
BRANCH   8  11
HETATM   11  C14 UNL     1      28.000   5.561  48.359  1.00  0.00     0.232 C 
BRANCH  11  12
HETATM   12  O2  UNL     1      29.272   5.143  48.643  1.00  0.00    -0.377 OA
BRANCH  12  13
HETATM   13  C15 UNL     1      30.285   5.769  47.964  1.00  0.00     0.156 C 
HETATM   14  C16 UNL     1      31.615   5.685  48.695  1.00  0.00     0.064 C 
HETATM   15  C17 UNL     1      31.919   7.047  49.233  1.00  0.00     0.275 C 
HETATM   16  N4  UNL     1      30.696   7.806  49.062  1.00  0.00     0.091 N 
HETATM   17  C18 UNL     1      31.031   9.201  48.949  1.00  0.00     0.310 C 
HETATM   18  C19 UNL     1      30.099   7.270  47.874  1.00  0.00     0.247 C 
HETATM   19  C20 UNL     1      30.724   7.818  46.611  1.00  0.00     0.045 C 
ENDBRANCH  12  13
ENDBRANCH  11  12
ENDBRANCH   8  11
ENDBRANCH   1   7
BRANCH   2  20
HETATM   20  N1  UNL     1      25.938   2.690  52.419  1.00  0.00    -0.338 N 
HETATM   21  H5  UNL     1      26.292   3.175  53.266  1.00  0.00     0.167 HD
BRANCH  20  22
HETATM   22  C6  UNL     1      26.658   1.482  52.619  1.00  0.00     0.072 A 
HETATM   23  C7  UNL     1      26.296   0.171  52.319  1.00  0.00     0.034 A 
HETATM   24  C8  UNL     1      27.136  -0.886  52.583  1.00  0.00     0.021 A 
HETATM   25  C9  UNL     1      28.373  -0.663  53.157  1.00  0.00     0.014 A 
HETATM   26 BR1  UNL     1      29.390  -2.250  53.444  1.00  0.00    -0.051 Br
HETATM   27  C10 UNL     1      28.758   0.626  53.464  1.00  0.00     0.063 A 
HETATM   28  C11 UNL     1      27.905   1.685  53.195  1.00  0.00     0.144 A 
HETATM   29  F1  UNL     1      28.430   2.880  53.555  1.00  0.00    -0.204 F 
ENDBRANCH  20  22
ENDBRANCH   2  20
TORSDOF 7
ENDMDL
MODEL 3
REMARK VINA RESULT:      -7.5      2.984      5.570
REMARK  7 active torsions:
REMARK  status: ('A' for Active; 'I' for Inactive)
REMARK    1  A    between atoms: O1_2  and  C2_3 
REMARK    2  A    between atoms: C2_3  and  C14_20 
REMARK    3  A    between atoms: C3_4  and  C4_5 
REMARK    4  A    between atoms: C5_6  and  N1_7 
REMARK    5  A    between atoms: N1_7  and  C6_8 
REMARK    6  A    between atoms: C14_20  and  O2_21 
REMARK    7  A    between atoms: O2_21  and  C15_22 
ROOT
HETATM    1  C4  UNL     1      27.514   0.908  53.121  1.00  0.00     0.027 A 
HETATM    2  C5  UNL     1      27.048  -0.153  53.826  1.00  0.00     0.135 A 
HETATM    3  N2  UNL     1      27.750  -0.273  54.991  1.00  0.00    -0.230 NA
HETATM    4  C12 UNL     1      28.667   0.702  55.046  1.00  0.00     0.229 A 
HETATM    5  N3  UNL     1      29.471   1.789  54.794  1.00  0.00    -0.265 NA
HETATM    6  C13 UNL     1      28.554   1.514  53.831  1.00  0.00     0.170 A 
ENDROOT
BRANCH   1   7
HETATM    7  C3  UNL     1      27.066   1.348  51.825  1.00  0.00     0.048 C 
HETATM    8  C2  UNL     1      26.160   2.293  51.658  1.00  0.00     0.070 C 
BRANCH   8   9
HETATM    9  O1  UNL     1      25.743   2.750  52.923  1.00  0.00    -0.358 OA
HETATM   10  C1  UNL     1      24.402   3.168  53.116  1.00  0.00     0.209 C 
ENDBRANCH   8   9
BRANCH   8  11
HETATM   11  C14 UNL     1      25.415   3.055  50.645  1.00  0.00     0.232 C 
BRANCH  11  12
HETATM   12  O2  UNL     1      26.141   3.959  49.918  1.00  0.00    -0.377 OA
BRANCH  12  13
HETATM   13  C15 UNL     1      25.424   4.854  49.168  1.00  0.00     0.156 C 
HETATM   14  C16 UNL     1      26.250   6.062  48.756  1.00  0.00     0.064 C 
HETATM   15  C17 UNL     1      25.767   7.231  49.554  1.00  0.00     0.275 C 
HETATM   16  N4  UNL     1      24.901   6.667  50.571  1.00  0.00     0.091 N 
HETATM   17  C18 UNL     1      23.938   7.662  50.962  1.00  0.00     0.310 C 
HETATM   18  C19 UNL     1      24.308   5.521  49.947  1.00  0.00     0.247 C 
HETATM   19  C20 UNL     1      23.155   5.884  49.039  1.00  0.00     0.045 C 
ENDBRANCH  12  13
ENDBRANCH  11  12
ENDBRANCH   8  11
ENDBRANCH   1   7
BRANCH   2  20
HETATM   20  N1  UNL     1      25.999  -1.076  53.601  1.00  0.00    -0.338 N 
HETATM   21  H5  UNL     1      25.910  -2.094  53.415  1.00  0.00     0.167 HD
BRANCH  20  22
HETATM   22  C6  UNL     1      24.610  -0.785  53.547  1.00  0.00     0.072 A 
HETATM   23  C7  UNL     1      23.845  -0.293  52.491  1.00  0.00     0.034 A 
HETATM   24  C8  UNL     1      22.493  -0.075  52.623  1.00  0.00     0.021 A 
HETATM   25  C9  UNL     1      21.860  -0.345  53.822  1.00  0.00     0.014 A 
HETATM   26 BR1  UNL     1      19.989   0.022  53.808  1.00  0.00    -0.051 Br
HETATM   27  C10 UNL     1      22.594  -0.833  54.883  1.00  0.00     0.063 A 
HETATM   28  C11 UNL     1      23.955  -1.049  54.742  1.00  0.00     0.144 A 
HETATM   29  F1  UNL     1      24.525  -1.528  55.873  1.00  0.00    -0.204 F 
ENDBRANCH  20  22
ENDBRANCH   2  20
TORSDOF 7
ENDMDL
MODEL 4
REMARK VINA RESULT:      -7.4      2.597      4.358
REMARK  7 active torsions:
REMARK  status: ('A' for Active; 'I' for Inactive)
REMARK    1  A    between atoms: O1_2  and  C2_3 
REMARK    2  A    between atoms: C2_3  and  C14_20 
REMARK    3  A    between atoms: C3_4  and  C4_5 
REMARK    4  A    between atoms: C5_6  and  N1_7 
REMARK    5  A    between atoms: N1_7  and  C6_8 
REMARK    6  A    between atoms: C14_20  and  O2_21 
REMARK    7  A    between atoms: O2_21  and  C15_22 
ROOT
HETATM    1  C4  UNL     1      26.562   1.218  53.844  1.00  0.00     0.027 A 
HETATM    2  C5  UNL     1      26.382  -0.104  54.088  1.00  0.00     0.135 A 
HETATM    3  N2  UNL     1      27.560  -0.769  53.899  1.00  0.00    -0.230 NA
HETATM    4  C12 UNL     1      28.500   0.112  53.534  1.00  0.00     0.229 A 
HETATM    5  N3  UNL     1      29.204   1.243  53.190  1.00  0.00    -0.265 NA
HETATM    6  C13 UNL     1      27.893   1.445  53.483  1.00  0.00     0.170 A 
ENDROOT
BRANCH   1   7
HETATM    7  C3  UNL     1      25.559   2.251  53.896  1.00  0.00     0.048 C 
HETATM    8  C2  UNL     1      24.995   2.762  52.819  1.00  0.00     0.070 C 
BRANCH   8   9
HETATM    9  O1  UNL     1      25.542   2.138  51.680  1.00  0.00    -0.358 OA
HETATM   10  C1  UNL     1      26.075   2.928  50.630  1.00  0.00     0.209 C 
ENDBRANCH   8   9
BRANCH   8  11
HETATM   11  C14 UNL     1      24.005   3.745  52.351  1.00  0.00     0.232 C 
BRANCH  11  12
HETATM   12  O2  UNL     1      22.706   3.317  52.313  1.00  0.00    -0.377 OA
BRANCH  12  13
HETATM   13  C15 UNL     1      21.967   3.711  51.227  1.00  0.00     0.156 C 
HETATM   14  C16 UNL     1      20.533   3.210  51.287  1.00  0.00     0.064 C 
HETATM   15  C17 UNL     1      20.390   2.132  50.260  1.00  0.00     0.275 C 
HETATM   16  N4  UNL     1      21.742   1.835  49.828  1.00  0.00     0.091 N 
HETATM   17  C18 UNL     1      21.696   1.320  48.486  1.00  0.00     0.310 C 
HETATM   18  C19 UNL     1      22.438   3.084  49.931  1.00  0.00     0.247 C 
HETATM   19  C20 UNL     1      22.166   3.999  48.757  1.00  0.00     0.045 C 
ENDBRANCH  12  13
ENDBRANCH  11  12
ENDBRANCH   8  11
ENDBRANCH   1   7
BRANCH   2  20
HETATM   20  N1  UNL     1      25.268  -0.864  54.518  1.00  0.00    -0.338 N 
HETATM   21  H5  UNL     1      25.089  -1.644  55.178  1.00  0.00     0.167 HD
BRANCH  20  22
HETATM   22  C6  UNL     1      23.928  -0.732  54.065  1.00  0.00     0.072 A 
HETATM   23  C7  UNL     1      23.445  -0.329  52.822  1.00  0.00     0.034 A 
HETATM   24  C8  UNL     1      22.095  -0.266  52.560  1.00  0.00     0.021 A 
HETATM   25  C9  UNL     1      21.181  -0.609  53.539  1.00  0.00     0.014 A 
HETATM   26 BR1  UNL     1      19.363  -0.458  52.986  1.00  0.00    -0.051 Br
HETATM   27  C10 UNL     1      21.633  -1.012  54.779  1.00  0.00     0.063 A 
HETATM   28  C11 UNL     1      22.993  -1.072  55.034  1.00  0.00     0.144 A 
HETATM   29  F1  UNL     1      23.268  -1.485  56.294  1.00  0.00    -0.204 F 
ENDBRANCH  20  22
ENDBRANCH   2  20
TORSDOF 7
ENDMDL
MODEL 5
REMARK VINA RESULT:      -7.4      1.780      6.305
REMARK  7 active torsions:
REMARK  status: ('A' for Active; 'I' for Inactive)
REMARK    1  A    between atoms: O1_2  and  C2_3 
REMARK    2  A    between atoms: C2_3  and  C14_20 
REMARK    3  A    between atoms: C3_4  and  C4_5 
REMARK    4  A    between atoms: C5_6  and  N1_7 
REMARK    5  A    between atoms: N1_7  and  C6_8 
REMARK    6  A    between atoms: C14_20  and  O2_21 
REMARK    7  A    between atoms: O2_21  and  C15_22 
ROOT
HETATM    1  C4  UNL     1      20.870   1.283  51.212  1.00  0.00     0.027 A 
HETATM    2  C5  UNL     1      20.677   2.626  51.177  1.00  0.00     0.135 A 
HETATM    3  N2  UNL     1      19.366   2.894  50.907  1.00  0.00    -0.230 NA
HETATM    4  C12 UNL     1      18.708   1.736  50.766  1.00  0.00     0.229 A 
HETATM    5  N3  UNL     1      18.346   0.412  50.685  1.00  0.00    -0.265 NA
HETATM    6  C13 UNL     1      19.657   0.636  50.958  1.00  0.00     0.170 A 
ENDROOT
BRANCH   1   7
HETATM    7  C3  UNL     1      22.116   0.594  51.429  1.00  0.00     0.048 C 
HETATM    8  C2  UNL     1      22.548   0.247  52.625  1.00  0.00     0.070 C 
BRANCH   8   9
HETATM    9  O1  UNL     1      21.607   0.665  53.587  1.00  0.00    -0.358 OA
HETATM   10  C1  UNL     1      21.274  -0.191  54.667  1.00  0.00     0.209 C 
ENDBRANCH   8   9
BRANCH   8  11
HETATM   11  C14 UNL     1      23.648  -0.415  53.343  1.00  0.00     0.232 C 
BRANCH  11  12
HETATM   12  O2  UNL     1      24.612   0.409  53.857  1.00  0.00    -0.377 OA
BRANCH  12  13
HETATM   13  C15 UNL     1      25.691   0.662  53.051  1.00  0.00     0.156 C 
HETATM   14  C16 UNL     1      26.274  -0.605  52.445  1.00  0.00     0.064 C 
HETATM   15  C17 UNL     1      27.580  -0.868  53.125  1.00  0.00     0.275 C 
HETATM   16  N4  UNL     1      27.612   0.040  54.255  1.00  0.00     0.091 N 
HETATM   17  C18 UNL     1      28.984   0.322  54.583  1.00  0.00     0.310 C 
HETATM   18  C19 UNL     1      26.888   1.195  53.813  1.00  0.00     0.247 C 
HETATM   19  C20 UNL     1      27.722   2.106  52.942  1.00  0.00     0.045 C 
ENDBRANCH  12  13
ENDBRANCH  11  12
ENDBRANCH   8  11
ENDBRANCH   1   7
BRANCH   2  20
HETATM   20  N1  UNL     1      21.535   3.730  51.399  1.00  0.00    -0.338 N 
HETATM   21  H5  UNL     1      21.546   4.575  52.001  1.00  0.00     0.167 HD
BRANCH  20  22
HETATM   22  C6  UNL     1      22.763   3.996  50.735  1.00  0.00     0.072 A 
HETATM   23  C7  UNL     1      22.992   4.454  49.440  1.00  0.00     0.034 A 
HETATM   24  C8  UNL     1      24.266   4.660  48.965  1.00  0.00     0.021 A 
HETATM   25  C9  UNL     1      25.358   4.416  49.776  1.00  0.00     0.014 A 
HETATM   26 BR1  UNL     1      27.037   4.761  48.941  1.00  0.00    -0.051 Br
HETATM   27  C10 UNL     1      25.159   3.962  51.064  1.00  0.00     0.063 A 
HETATM   28  C11 UNL     1      23.873   3.755  51.534  1.00  0.00     0.144 A 
HETATM   29  F1  UNL     1      23.851   3.310  52.812  1.00  0.00    -0.204 F 
ENDBRANCH  20  22
ENDBRANCH   2  20
TORSDOF 7
ENDMDL
MODEL 6
REMARK VINA RESULT:      -7.3      5.705      8.207
REMARK  7 active torsions:
REMARK  status: ('A' for Active; 'I' for Inactive)
REMARK    1  A    between atoms: O1_2  and  C2_3 
REMARK    2  A    between atoms: C2_3  and  C14_20 
REMARK    3  A    between atoms: C3_4  and  C4_5 
REMARK    4  A    between atoms: C5_6  and  N1_7 
REMARK    5  A    between atoms: N1_7  and  C6_8 
REMARK    6  A    between atoms: C14_20  and  O2_21 
REMARK    7  A    between atoms: O2_21  and  C15_22 
ROOT
HETATM    1  C4  UNL     1      27.779   6.344  48.279  1.00  0.00     0.027 A 
HETATM    2  C5  UNL     1      28.935   7.028  48.464  1.00  0.00     0.135 A 
HETATM    3  N2  UNL     1      28.778   8.317  48.042  1.00  0.00    -0.230 NA
HETATM    4  C12 UNL     1      27.529   8.473  47.585  1.00  0.00     0.229 A 
HETATM    5  N3  UNL     1      26.218   8.298  47.204  1.00  0.00    -0.265 NA
HETATM    6  C13 UNL     1      26.822   7.196  47.720  1.00  0.00     0.170 A 
ENDROOT
BRANCH   1   7
HETATM    7  C3  UNL     1      27.544   4.951  48.561  1.00  0.00     0.048 C 
HETATM    8  C2  UNL     1      26.641   4.534  49.428  1.00  0.00     0.070 C 
BRANCH   8   9
HETATM    9  O1  UNL     1      25.999   5.655  49.990  1.00  0.00    -0.358 OA
HETATM   10  C1  UNL     1      24.646   5.559  50.403  1.00  0.00     0.209 C 
ENDBRANCH   8   9
BRANCH   8  11
HETATM   11  C14 UNL     1      26.047   3.334  50.036  1.00  0.00     0.232 C 
BRANCH  11  12
HETATM   12  O2  UNL     1      26.903   2.530  50.739  1.00  0.00    -0.377 OA
BRANCH  12  13
HETATM   13  C15 UNL     1      26.508   2.179  52.004  1.00  0.00     0.156 C 
HETATM   14  C16 UNL     1      27.682   2.029  52.959  1.00  0.00     0.064 C 
HETATM   15  C17 UNL     1      27.853   0.569  53.236  1.00  0.00     0.275 C 
HETATM   16  N4  UNL     1      27.003  -0.103  52.272  1.00  0.00     0.091 N 
HETATM   17  C18 UNL     1      26.608  -1.376  52.815  1.00  0.00     0.310 C 
HETATM   18  C19 UNL     1      25.902   0.792  52.072  1.00  0.00     0.247 C 
HETATM   19  C20 UNL     1      24.873   0.705  53.177  1.00  0.00     0.045 C 
ENDBRANCH  12  13
ENDBRANCH  11  12
ENDBRANCH   8  11
ENDBRANCH   1   7
BRANCH   2  20
HETATM   20  N1  UNL     1      30.188   6.675  49.020  1.00  0.00    -0.338 N 
HETATM   21  H5  UNL     1      30.705   6.852  49.902  1.00  0.00     0.167 HD
BRANCH  20  22
HETATM   22  C6  UNL     1      31.197   5.888  48.403  1.00  0.00     0.072 A 
HETATM   23  C7  UNL     1      31.077   4.742  47.620  1.00  0.00     0.034 A 
HETATM   24  C8  UNL     1      32.181   4.109  47.097  1.00  0.00     0.021 A 
HETATM   25  C9  UNL     1      33.447   4.607  47.340  1.00  0.00     0.014 A 
HETATM   26 BR1  UNL     1      34.845   3.594  46.531  1.00  0.00    -0.051 Br
HETATM   27  C10 UNL     1      33.595   5.741  48.112  1.00  0.00     0.063 A 
HETATM   28  C11 UNL     1      32.478   6.371  48.636  1.00  0.00     0.144 A 
HETATM   29  F1  UNL     1      32.794   7.465  49.369  1.00  0.00    -0.204 F 
ENDBRANCH  20  22
ENDBRANCH   2  20
TORSDOF 7
ENDMDL
MODEL 7
REMARK VINA RESULT:      -7.2      3.422      5.846
REMARK  7 active torsions:
REMARK  status: ('A' for Active; 'I' for Inactive)
REMARK    1  A    between atoms: O1_2  and  C2_3 
REMARK    2  A    between atoms: C2_3  and  C14_20 
REMARK    3  A    between atoms: C3_4  and  C4_5 
REMARK    4  A    between atoms: C5_6  and  N1_7 
REMARK    5  A    between atoms: N1_7  and  C6_8 
REMARK    6  A    between atoms: C14_20  and  O2_21 
REMARK    7  A    between atoms: O2_21  and  C15_22 
ROOT
HETATM    1  C4  UNL     1      23.223   5.567  51.364  1.00  0.00     0.027 A 
HETATM    2  C5  UNL     1      24.242   4.841  50.841  1.00  0.00     0.135 A 
HETATM    3  N2  UNL     1      25.147   5.677  50.253  1.00  0.00    -0.230 NA
HETATM    4  C12 UNL     1      24.722   6.939  50.392  1.00  0.00     0.229 A 
HETATM    5  N3  UNL     1      24.021   8.082  50.699  1.00  0.00    -0.265 NA
HETATM    6  C13 UNL     1      23.451   6.924  51.121  1.00  0.00     0.170 A 
ENDROOT
BRANCH   1   7
HETATM    7  C3  UNL     1      22.053   5.058  52.033  1.00  0.00     0.048 C 
HETATM    8  C2  UNL     1      21.068   4.450  51.400  1.00  0.00     0.070 C 
BRANCH   8   9
HETATM    9  O1  UNL     1      21.371   4.407  50.025  1.00  0.00    -0.358 OA
HETATM   10  C1  UNL     1      20.602   3.589  49.158  1.00  0.00     0.209 C 
ENDBRANCH   8   9
BRANCH   8  11
HETATM   11  C14 UNL     1      19.765   3.795  51.586  1.00  0.00     0.232 C 
BRANCH  11  12
HETATM   12  O2  UNL     1      19.723   2.793  52.517  1.00  0.00    -0.377 OA
BRANCH  12  13
HETATM   13  C15 UNL     1      20.261   1.590  52.142  1.00  0.00     0.156 C 
HETATM   14  C16 UNL     1      19.257   0.451  52.229  1.00  0.00     0.064 C 
HETATM   15  C17 UNL     1      19.644  -0.401  53.396  1.00  0.00     0.275 C 
HETATM   16  N4  UNL     1      20.649   0.364  54.110  1.00  0.00     0.091 N 
HETATM   17  C18 UNL     1      21.502  -0.548  54.824  1.00  0.00     0.310 C 
HETATM   18  C19 UNL     1      21.336   1.100  53.090  1.00  0.00     0.247 C 
HETATM   19  C20 UNL     1      22.362   0.262  52.359  1.00  0.00     0.045 C 
ENDBRANCH  12  13
ENDBRANCH  11  12
ENDBRANCH   8  11
ENDBRANCH   1   7
BRANCH   2  20
HETATM   20  N1  UNL     1      24.535   3.456  50.832  1.00  0.00    -0.338 N 
HETATM   21  H5  UNL     1      24.324   2.638  50.228  1.00  0.00     0.167 HD
BRANCH  20  22
HETATM   22  C6  UNL     1      25.288   2.743  51.803  1.00  0.00     0.072 A 
HETATM   23  C7  UNL     1      25.038   2.558  53.161  1.00  0.00     0.034 A 
HETATM   24  C8  UNL     1      25.888   1.823  53.955  1.00  0.00     0.021 A 
HETATM   25  C9  UNL     1      27.019   1.244  53.412  1.00  0.00     0.014 A 
HETATM   26 BR1  UNL     1      28.068   0.266  54.669  1.00  0.00    -0.051 Br
HETATM   27  C10 UNL     1      27.290   1.411  52.069  1.00  0.00     0.063 A 
HETATM   28  C11 UNL     1      26.430   2.154  51.277  1.00  0.00     0.144 A 
HETATM   29  F1  UNL     1      26.838   2.221  49.988  1.00  0.00    -0.204 F 
ENDBRANCH  20  22
ENDBRANCH   2  20
TORSDOF 7
ENDMDL
MODEL 8
REMARK VINA RESULT:      -7.1      2.829      6.032
REMARK  7 active torsions:
REMARK  status: ('A' for Active; 'I' for Inactive)
REMARK    1  A    between atoms: O1_2  and  C2_3 
REMARK    2  A    between atoms: C2_3  and  C14_20 
REMARK    3  A    between atoms: C3_4  and  C4_5 
REMARK    4  A    between atoms: C5_6  and  N1_7 
REMARK    5  A    between atoms: N1_7  and  C6_8 
REMARK    6  A    between atoms: C14_20  and  O2_21 
REMARK    7  A    between atoms: O2_21  and  C15_22 
ROOT
HETATM    1  C4  UNL     1      23.117   0.067  53.499  1.00  0.00     0.027 A 
HETATM    2  C5  UNL     1      21.983  -0.302  52.853  1.00  0.00     0.135 A 
HETATM    3  N2  UNL     1      21.354  -1.289  53.556  1.00  0.00    -0.230 NA
HETATM    4  C12 UNL     1      22.073  -1.563  54.652  1.00  0.00     0.229 A 
HETATM    5  N3  UNL     1      23.018  -1.596  55.652  1.00  0.00    -0.265 NA
HETATM    6  C13 UNL     1      23.252  -0.693  54.665  1.00  0.00     0.170 A 
ENDROOT
BRANCH   1   7
HETATM    7  C3  UNL     1      24.078   1.048  53.067  1.00  0.00     0.048 C 
HETATM    8  C2  UNL     1      25.273   0.733  52.606  1.00  0.00     0.070 C 
BRANCH   8   9
HETATM    9  O1  UNL     1      25.412  -0.669  52.627  1.00  0.00    -0.358 OA
HETATM   10  C1  UNL     1      26.704  -1.251  52.587  1.00  0.00     0.209 C 
ENDBRANCH   8   9
BRANCH   8  11
HETATM   11  C14 UNL     1      26.526   1.292  52.076  1.00  0.00     0.232 C 
BRANCH  11  12
HETATM   12  O2  UNL     1      26.468   2.589  51.642  1.00  0.00    -0.377 OA
BRANCH  12  13
HETATM   13  C15 UNL     1      25.906   2.795  50.409  1.00  0.00     0.156 C 
HETATM   14  C16 UNL     1      26.763   3.680  49.519  1.00  0.00     0.064 C 
HETATM   15  C17 UNL     1      26.077   5.004  49.407  1.00  0.00     0.275 C 
HETATM   16  N4  UNL     1      25.027   4.975  50.406  1.00  0.00     0.091 N 
HETATM   17  C18 UNL     1      23.970   5.858  49.991  1.00  0.00     0.310 C 
HETATM   18  C19 UNL     1      24.624   3.601  50.469  1.00  0.00     0.247 C 
HETATM   19  C20 UNL     1      23.690   3.217  49.344  1.00  0.00     0.045 C 
ENDBRANCH  12  13
ENDBRANCH  11  12
ENDBRANCH   8  11
ENDBRANCH   1   7
BRANCH   2  20
HETATM   20  N1  UNL     1      21.353   0.157  51.671  1.00  0.00    -0.338 N 
HETATM   21  H5  UNL     1      21.517   0.092  50.649  1.00  0.00     0.167 HD
BRANCH  20  22
HETATM   22  C6  UNL     1      20.178   0.952  51.591  1.00  0.00     0.072 A 
HETATM   23  C7  UNL     1      18.857   0.566  51.375  1.00  0.00     0.034 A 
HETATM   24  C8  UNL     1      17.835   1.487  51.333  1.00  0.00     0.021 A 
HETATM   25  C9  UNL     1      18.105   2.831  51.508  1.00  0.00     0.014 A 
HETATM   26 BR1  UNL     1      16.563   3.948  51.416  1.00  0.00    -0.051 Br
HETATM   27  C10 UNL     1      19.405   3.241  51.724  1.00  0.00     0.063 A 
HETATM   28  C11 UNL     1      20.427   2.306  51.764  1.00  0.00     0.144 A 
HETATM   29  F1  UNL     1      21.639   2.870  51.983  1.00  0.00    -0.204 F 
ENDBRANCH  20  22
ENDBRANCH   2  20
TORSDOF 7
ENDMDL
MODEL 9
REMARK VINA RESULT:      -7.1      2.669      3.691
REMARK  7 active torsions:
REMARK  status: ('A' for Active; 'I' for Inactive)
REMARK    1  A    between atoms: O1_2  and  C2_3 
REMARK    2  A    between atoms: C2_3  and  C14_20 
REMARK    3  A    between atoms: C3_4  and  C4_5 
REMARK    4  A    between atoms: C5_6  and  N1_7 
REMARK    5  A    between atoms: N1_7  and  C6_8 
REMARK    6  A    between atoms: C14_20  and  O2_21 
REMARK    7  A    between atoms: O2_21  and  C15_22 
ROOT
HETATM    1  C4  UNL     1      25.376   2.368  52.730  1.00  0.00     0.027 A 
HETATM    2  C5  UNL     1      26.171   2.548  51.645  1.00  0.00     0.135 A 
HETATM    3  N2  UNL     1      27.463   2.248  51.969  1.00  0.00    -0.230 NA
HETATM    4  C12 UNL     1      27.511   1.875  53.254  1.00  0.00     0.229 A 
HETATM    5  N3  UNL     1      27.218   1.551  54.559  1.00  0.00    -0.265 NA
HETATM    6  C13 UNL     1      26.155   1.936  53.807  1.00  0.00     0.170 A 
ENDROOT
BRANCH   1   7
HETATM    7  C3  UNL     1      23.959   2.612  52.813  1.00  0.00     0.048 C 
HETATM    8  C2  UNL     1      23.057   1.652  52.738  1.00  0.00     0.070 C 
BRANCH   8   9
HETATM    9  O1  UNL     1      23.719   0.420  52.567  1.00  0.00    -0.358 OA
HETATM   10  C1  UNL     1      23.291  -0.718  53.297  1.00  0.00     0.209 C 
ENDBRANCH   8   9
BRANCH   8  11
HETATM   11  C14 UNL     1      21.612   1.378  52.766  1.00  0.00     0.232 C 
BRANCH  11  12
HETATM   12  O2  UNL     1      20.803   2.374  52.292  1.00  0.00    -0.377 OA
BRANCH  12  13
HETATM   13  C15 UNL     1      20.295   2.197  51.030  1.00  0.00     0.156 C 
HETATM   14  C16 UNL     1      20.854   0.960  50.346  1.00  0.00     0.064 C 
HETATM   15  C17 UNL     1      21.789   1.423  49.274  1.00  0.00     0.275 C 
HETATM   16  N4  UNL     1      21.973   2.841  49.516  1.00  0.00     0.091 N 
HETATM   17  C18 UNL     1      22.305   3.482  48.271  1.00  0.00     0.310 C 
HETATM   18  C19 UNL     1      20.724   3.281  50.062  1.00  0.00     0.247 C 
HETATM   19  C20 UNL     1      19.671   3.506  49.000  1.00  0.00     0.045 C 
ENDBRANCH  12  13
ENDBRANCH  11  12
ENDBRANCH   8  11
ENDBRANCH   1   7
BRANCH   2  20
HETATM   20  N1  UNL     1      25.907   2.930  50.308  1.00  0.00    -0.338 N 
HETATM   21  H5  UNL     1      25.445   2.516  49.476  1.00  0.00     0.167 HD
BRANCH  20  22
HETATM   22  C6  UNL     1      26.285   4.150  49.685  1.00  0.00     0.072 A 
HETATM   23  C7  UNL     1      27.411   4.445  48.920  1.00  0.00     0.034 A 
HETATM   24  C8  UNL     1      27.611   5.698  48.387  1.00  0.00     0.021 A 
HETATM   25  C9  UNL     1      26.682   6.699  48.601  1.00  0.00     0.014 A 
HETATM   26 BR1  UNL     1      27.134   8.361  47.782  1.00  0.00    -0.051 Br
HETATM   27  C10 UNL     1      25.558   6.434  49.355  1.00  0.00     0.063 A 
HETATM   28  C11 UNL     1      25.366   5.170  49.890  1.00  0.00     0.144 A 
HETATM   29  F1  UNL     1      24.218   5.075  50.601  1.00  0.00    -0.204 F 
ENDBRANCH  20  22
ENDBRANCH   2  20
TORSDOF 7
ENDMDL
