MODEL 1
REMARK VINA RESULT:      -8.4      0.000      0.000
REMARK  6 active torsions:
REMARK  status: ('A' for Active; 'I' for Inactive)
REMARK    1  A    between atoms: C3_3  and  O1_4 
REMARK    2  A    between atoms: O1_4  and  C4_5 
REMARK    3  A    between atoms: C4_5  and  C5_6 
REMARK    4  A    between atoms: C8_9  and  C9_10 
REMARK    5  A    between atoms: C13_15  and  N1_16 
REMARK    6  A    between atoms: C17_22  and  O2_23 
ROOT
HETATM    1  C1  UNL     1      29.799  -1.275  53.401  1.00  0.00     0.014 C 
HETATM    2  C2  UNL     1      29.496  -0.208  53.861  1.00  0.00    -0.091 C 
HETATM    3  C3  UNL     1      29.129   1.082  54.444  1.00  0.00     0.260 C 
ENDROOT
BRANCH   3   4
HETATM    4  O1  UNL     1      27.770   1.308  54.403  1.00  0.00    -0.375 OA
BRANCH   4   5
HETATM    5  C4  UNL     1      26.985   0.281  54.863  1.00  0.00     0.210 C 
BRANCH   5   6
HETATM    6  C5  UNL     1      25.681   0.232  54.167  1.00  0.00    -0.000 A 
HETATM    7  C6  UNL     1      25.346   1.005  53.085  1.00  0.00     0.028 A 
HETATM    8  C7  UNL     1      24.160   0.988  52.421  1.00  0.00     0.023 A 
HETATM    9  C8  UNL     1      24.009   1.857  51.371  1.00  0.00     0.079 A 
HETATM   10  C15 UNL     1      23.242   0.099  52.923  1.00  0.00     0.073 A 
HETATM   11  N2  UNL     1      22.780   1.771  50.821  1.00  0.00    -0.241 NA
HETATM   12  C14 UNL     1      21.856   0.941  51.257  1.00  0.00     0.234 A 
HETATM   13  N3  UNL     1      22.051   0.105  52.287  1.00  0.00    -0.241 NA
HETATM   14  C16 UNL     1      23.502  -0.710  54.005  1.00  0.00     0.069 A 
HETATM   15  C17 UNL     1      24.732  -0.665  54.659  1.00  0.00     0.076 A 
BRANCH   9  16
HETATM   16  C9  UNL     1      24.985   2.719  50.720  1.00  0.00     0.009 A 
HETATM   17  C10 UNL     1      26.204   2.691  50.245  1.00  0.00     0.013 A 
HETATM   18  C11 UNL     1      26.723   3.891  49.677  1.00  0.00     0.023 A 
HETATM   19  C12 UNL     1      25.731   4.741  49.815  1.00  0.00     0.049 A 
HETATM   20 CL1  UNL     1      25.602   6.441  49.353  1.00  0.00    -0.086 Cl
HETATM   21  C13 UNL     1      24.588   4.153  50.466  1.00  0.00     0.297 A 
BRANCH  21  22
HETATM   22  N1  UNL     1      24.291   4.708  51.772  1.00  0.00     0.092 N 
HETATM   23  H10 UNL     1      23.286   4.634  52.029  1.00  0.00     0.314 HD
HETATM   24  H11 UNL     1      24.670   5.673  51.886  1.00  0.00     0.314 HD
ENDBRANCH  21  22
ENDBRANCH   9  16
BRANCH  15  25
HETATM   25  O2  UNL     1      24.954  -1.497  55.746  1.00  0.00    -0.360 OA
HETATM   26  H14 UNL     1      25.130  -1.095  56.645  1.00  0.00     0.217 HD
ENDBRANCH  15  25
ENDBRANCH   5   6
ENDBRANCH   4   5
ENDBRANCH   3   4
TORSDOF 6
ENDMDL
MODEL 2
REMARK VINA RESULT:      -8.2      3.480      5.357
REMARK  6 active torsions:
REMARK  status: ('A' for Active; 'I' for Inactive)
REMARK    1  A    between atoms: C3_3  and  O1_4 
REMARK    2  A    between atoms: O1_4  and  C4_5 
REMARK    3  A    between atoms: C4_5  and  C5_6 
REMARK    4  A    between atoms: C8_9  and  C9_10 
REMARK    5  A    between atoms: C13_15  and  N1_16 
REMARK    6  A    between atoms: C17_22  and  O2_23 
ROOT
HETATM    1  C1  UNL     1      26.789   2.480  51.196  1.00  0.00     0.014 C 
HETATM    2  C2  UNL     1      25.931   2.947  50.498  1.00  0.00    -0.091 C 
HETATM    3  C3  UNL     1      24.885   3.537  49.664  1.00  0.00     0.260 C 
ENDROOT
BRANCH   3   4
HETATM    4  O1  UNL     1      23.646   2.983  49.907  1.00  0.00    -0.375 OA
BRANCH   4   5
HETATM    5  C4  UNL     1      22.941   3.542  50.943  1.00  0.00     0.210 C 
BRANCH   5   6
HETATM    6  C5  UNL     1      22.445   2.516  51.886  1.00  0.00    -0.000 A 
HETATM    7  C6  UNL     1      23.209   1.503  52.408  1.00  0.00     0.028 A 
HETATM    8  C7  UNL     1      22.789   0.546  53.275  1.00  0.00     0.023 A 
HETATM    9  C8  UNL     1      23.703  -0.399  53.666  1.00  0.00     0.079 A 
HETATM   10  C15 UNL     1      21.465   0.640  53.628  1.00  0.00     0.073 A 
HETATM   11  N2  UNL     1      23.156  -1.314  54.494  1.00  0.00    -0.241 NA
HETATM   12  C14 UNL     1      21.896  -1.279  54.869  1.00  0.00     0.234 A 
HETATM   13  N3  UNL     1      21.038  -0.331  54.462  1.00  0.00    -0.241 NA
HETATM   14  C16 UNL     1      20.635   1.626  53.147  1.00  0.00     0.069 A 
HETATM   15  C17 UNL     1      21.103   2.593  52.261  1.00  0.00     0.076 A 
BRANCH   9  16
HETATM   16  C9  UNL     1      25.138  -0.470  53.430  1.00  0.00     0.009 A 
HETATM   17  C10 UNL     1      25.998  -0.889  52.538  1.00  0.00     0.013 A 
HETATM   18  C11 UNL     1      27.384  -0.709  52.816  1.00  0.00     0.023 A 
HETATM   19  C12 UNL     1      27.380  -0.125  53.992  1.00  0.00     0.049 A 
HETATM   20 CL1  UNL     1      28.718   0.421  55.008  1.00  0.00    -0.086 Cl
HETATM   21  C13 UNL     1      26.048   0.072  54.506  1.00  0.00     0.297 A 
BRANCH  21  22
HETATM   22  N1  UNL     1      25.744  -0.702  55.693  1.00  0.00     0.092 N 
HETATM   23  H10 UNL     1      25.486  -0.114  56.511  1.00  0.00     0.314 HD
HETATM   24  H11 UNL     1      26.490  -1.398  55.913  1.00  0.00     0.314 HD
ENDBRANCH  21  22
ENDBRANCH   9  16
BRANCH  15  25
HETATM   25  O2  UNL     1      20.233   3.570  51.799  1.00  0.00    -0.360 OA
HETATM   26  H14 UNL     1      19.383   3.297  51.347  1.00  0.00     0.217 HD
ENDBRANCH  15  25
ENDBRANCH   5   6
ENDBRANCH   4   5
ENDBRANCH   3   4
TORSDOF 6
ENDMDL
MODEL 3
REMARK VINA RESULT:      -8.1      3.471      5.414
REMARK  6 active torsions:
REMARK  status: ('A' for Active; 'I' for Inactive)
REMARK    1  A    between atoms: C3_3  and  O1_4 
REMARK    2  A    between atoms: O1_4  and  C4_5 
REMARK    3  A    between atoms: C4_5  and  C5_6 
REMARK    4  A    between atoms: C8_9  and  C9_10 
REMARK    5  A    between atoms: C13_15  and  N1_16 
REMARK    6  A    between atoms: C17_22  and  O2_23 
ROOT
HETATM    1  C1  UNL     1      26.350   2.908  49.966  1.00  0.00     0.014 C 
HETATM    2  C2  UNL     1      25.205   3.257  49.867  1.00  0.00    -0.091 C 
HETATM    3  C3  UNL     1      23.816   3.704  49.759  1.00  0.00     0.260 C 
ENDROOT
BRANCH   3   4
HETATM    4  O1  UNL     1      22.999   3.102  50.692  1.00  0.00    -0.375 OA
BRANCH   4   5
HETATM    5  C4  UNL     1      22.688   1.788  50.447  1.00  0.00     0.210 C 
BRANCH   5   6
HETATM    6  C5  UNL     1      22.693   0.982  51.687  1.00  0.00    -0.000 A 
HETATM    7  C6  UNL     1      23.813   0.695  52.425  1.00  0.00     0.028 A 
HETATM    8  C7  UNL     1      23.856  -0.040  53.567  1.00  0.00     0.023 A 
HETATM    9  C8  UNL     1      25.082  -0.236  54.149  1.00  0.00     0.079 A 
HETATM   10  C15 UNL     1      22.637  -0.523  53.977  1.00  0.00     0.073 A 
HETATM   11  N2  UNL     1      24.997  -1.011  55.250  1.00  0.00    -0.241 NA
HETATM   12  C14 UNL     1      23.861  -1.504  55.694  1.00  0.00     0.234 A 
HETATM   13  N3  UNL     1      22.683  -1.283  55.092  1.00  0.00    -0.241 NA
HETATM   14  C16 UNL     1      21.470  -0.279  53.291  1.00  0.00     0.069 A 
HETATM   15  C17 UNL     1      21.466   0.482  52.125  1.00  0.00     0.076 A 
BRANCH   9  16
HETATM   16  C9  UNL     1      26.374   0.357  53.834  1.00  0.00     0.009 A 
HETATM   17  C10 UNL     1      26.905   1.495  53.469  1.00  0.00     0.013 A 
HETATM   18  C11 UNL     1      28.317   1.539  53.278  1.00  0.00     0.023 A 
HETATM   19  C12 UNL     1      28.694   0.310  53.548  1.00  0.00     0.049 A 
HETATM   20 CL1  UNL     1      30.298  -0.429  53.535  1.00  0.00    -0.086 Cl
HETATM   21  C13 UNL     1      27.585  -0.543  53.894  1.00  0.00     0.297 A 
BRANCH  21  22
HETATM   22  N1  UNL     1      27.325  -1.603  52.939  1.00  0.00     0.092 N 
HETATM   23  H10 UNL     1      28.121  -1.778  52.294  1.00  0.00     0.314 HD
HETATM   24  H11 UNL     1      26.419  -1.470  52.439  1.00  0.00     0.314 HD
ENDBRANCH  21  22
ENDBRANCH   9  16
BRANCH  15  25
HETATM   25  O2  UNL     1      20.267   0.705  51.463  1.00  0.00    -0.360 OA
HETATM   26  H14 UNL     1      19.910   1.638  51.395  1.00  0.00     0.217 HD
ENDBRANCH  15  25
ENDBRANCH   5   6
ENDBRANCH   4   5
ENDBRANCH   3   4
TORSDOF 6
ENDMDL
MODEL 4
REMARK VINA RESULT:      -7.9      2.730      4.942
REMARK  6 active torsions:
REMARK  status: ('A' for Active; 'I' for Inactive)
REMARK    1  A    between atoms: C3_3  and  O1_4 
REMARK    2  A    between atoms: O1_4  and  C4_5 
REMARK    3  A    between atoms: C4_5  and  C5_6 
REMARK    4  A    between atoms: C8_9  and  C9_10 
REMARK    5  A    between atoms: C13_15  and  N1_16 
REMARK    6  A    between atoms: C17_22  and  O2_23 
ROOT
HETATM    1  C1  UNL     1      19.805   0.736  50.838  1.00  0.00     0.014 C 
HETATM    2  C2  UNL     1      19.585   0.173  51.876  1.00  0.00    -0.091 C 
HETATM    3  C3  UNL     1      19.320  -0.490  53.153  1.00  0.00     0.260 C 
ENDROOT
BRANCH   3   4
HETATM    4  O1  UNL     1      20.418  -1.182  53.621  1.00  0.00    -0.375 OA
BRANCH   4   5
HETATM    5  C4  UNL     1      21.128  -0.561  54.617  1.00  0.00     0.210 C 
BRANCH   5   6
HETATM    6  C5  UNL     1      22.548  -0.380  54.248  1.00  0.00    -0.000 A 
HETATM    7  C6  UNL     1      22.992   0.430  53.234  1.00  0.00     0.028 A 
HETATM    8  C7  UNL     1      24.286   0.621  52.867  1.00  0.00     0.023 A 
HETATM    9  C8  UNL     1      24.527   1.458  51.807  1.00  0.00     0.079 A 
HETATM   10  C15 UNL     1      25.198  -0.090  53.608  1.00  0.00     0.073 A 
HETATM   11  N2  UNL     1      25.843   1.534  51.517  1.00  0.00    -0.241 NA
HETATM   12  C14 UNL     1      26.764   0.878  52.188  1.00  0.00     0.234 A 
HETATM   13  N3  UNL     1      26.481   0.072  53.222  1.00  0.00    -0.241 NA
HETATM   14  C16 UNL     1      24.831  -0.923  54.640  1.00  0.00     0.069 A 
HETATM   15  C17 UNL     1      23.493  -1.091  54.989  1.00  0.00     0.076 A 
BRANCH   9  16
HETATM   16  C9  UNL     1      23.619   2.331  51.077  1.00  0.00     0.009 A 
HETATM   17  C10 UNL     1      22.936   2.378  49.962  1.00  0.00     0.013 A 
HETATM   18  C11 UNL     1      22.156   3.544  49.709  1.00  0.00     0.023 A 
HETATM   19  C12 UNL     1      22.382   4.290  50.767  1.00  0.00     0.049 A 
HETATM   20 CL1  UNL     1      21.772   5.891  51.194  1.00  0.00    -0.086 Cl
HETATM   21  C13 UNL     1      23.290   3.668  51.697  1.00  0.00     0.297 A 
BRANCH  21  22
HETATM   22  N1  UNL     1      24.561   4.350  51.840  1.00  0.00     0.092 N 
HETATM   23  H10 UNL     1      25.058   4.484  50.936  1.00  0.00     0.314 HD
HETATM   24  H11 UNL     1      25.163   3.914  52.573  1.00  0.00     0.314 HD
ENDBRANCH  21  22
ENDBRANCH   9  16
BRANCH  15  25
HETATM   25  O2  UNL     1      23.165  -1.940  56.036  1.00  0.00    -0.360 OA
HETATM   26  H14 UNL     1      22.953  -1.554  56.934  1.00  0.00     0.217 HD
ENDBRANCH  15  25
ENDBRANCH   5   6
ENDBRANCH   4   5
ENDBRANCH   3   4
TORSDOF 6
ENDMDL
MODEL 5
REMARK VINA RESULT:      -7.6      2.761      3.379
REMARK  6 active torsions:
REMARK  status: ('A' for Active; 'I' for Inactive)
REMARK    1  A    between atoms: C3_3  and  O1_4 
REMARK    2  A    between atoms: O1_4  and  C4_5 
REMARK    3  A    between atoms: C4_5  and  C5_6 
REMARK    4  A    between atoms: C8_9  and  C9_10 
REMARK    5  A    between atoms: C13_15  and  N1_16 
REMARK    6  A    between atoms: C17_22  and  O2_23 
ROOT
HETATM    1  C1  UNL     1      29.041  -0.928  53.440  1.00  0.00     0.014 C 
HETATM    2  C2  UNL     1      27.876  -1.044  53.177  1.00  0.00    -0.091 C 
HETATM    3  C3  UNL     1      26.453  -1.160  52.854  1.00  0.00     0.260 C 
ENDROOT
BRANCH   3   4
HETATM    4  O1  UNL     1      25.669  -1.287  53.980  1.00  0.00    -0.375 OA
BRANCH   4   5
HETATM    5  C4  UNL     1      24.963  -0.166  54.339  1.00  0.00     0.210 C 
BRANCH   5   6
HETATM    6  C5  UNL     1      23.513  -0.331  54.099  1.00  0.00    -0.000 A 
HETATM    7  C6  UNL     1      22.797   0.352  53.149  1.00  0.00     0.028 A 
HETATM    8  C7  UNL     1      21.468   0.227  52.901  1.00  0.00     0.023 A 
HETATM    9  C8  UNL     1      20.930   1.019  51.919  1.00  0.00     0.079 A 
HETATM   10  C15 UNL     1      20.822  -0.678  53.707  1.00  0.00     0.073 A 
HETATM   11  N2  UNL     1      19.599   0.831  51.795  1.00  0.00    -0.241 NA
HETATM   12  C14 UNL     1      18.924  -0.020  52.537  1.00  0.00     0.234 A 
HETATM   13  N3  UNL     1      19.495  -0.778  53.485  1.00  0.00    -0.241 NA
HETATM   14  C16 UNL     1      21.469  -1.402  54.682  1.00  0.00     0.069 A 
HETATM   15  C17 UNL     1      22.836  -1.247  54.905  1.00  0.00     0.076 A 
BRANCH   9  16
HETATM   16  C9  UNL     1      21.584   1.891  50.954  1.00  0.00     0.009 A 
HETATM   17  C10 UNL     1      22.090   3.093  50.855  1.00  0.00     0.013 A 
HETATM   18  C11 UNL     1      22.641   3.481  49.599  1.00  0.00     0.023 A 
HETATM   19  C12 UNL     1      22.457   2.417  48.850  1.00  0.00     0.049 A 
HETATM   20 CL1  UNL     1      22.873   2.116  47.160  1.00  0.00    -0.086 Cl
HETATM   21  C13 UNL     1      21.792   1.353  49.559  1.00  0.00     0.297 A 
BRANCH  21  22
HETATM   22  N1  UNL     1      20.465   1.041  49.064  1.00  0.00     0.092 N 
HETATM   23  H10 UNL     1      20.085   0.151  49.444  1.00  0.00     0.314 HD
HETATM   24  H11 UNL     1      20.409   1.096  48.023  1.00  0.00     0.314 HD
ENDBRANCH  21  22
ENDBRANCH   9  16
BRANCH  15  25
HETATM   25  O2  UNL     1      23.450  -1.996  55.898  1.00  0.00    -0.360 OA
HETATM   26  H14 UNL     1      24.449  -2.057  55.921  1.00  0.00     0.217 HD
ENDBRANCH  15  25
ENDBRANCH   5   6
ENDBRANCH   4   5
ENDBRANCH   3   4
TORSDOF 6
ENDMDL
MODEL 6
REMARK VINA RESULT:      -7.5      2.368      4.644
REMARK  6 active torsions:
REMARK  status: ('A' for Active; 'I' for Inactive)
REMARK    1  A    between atoms: C3_3  and  O1_4 
REMARK    2  A    between atoms: O1_4  and  C4_5 
REMARK    3  A    between atoms: C4_5  and  C5_6 
REMARK    4  A    between atoms: C8_9  and  C9_10 
REMARK    5  A    between atoms: C13_15  and  N1_16 
REMARK    6  A    between atoms: C17_22  and  O2_23 
ROOT
HETATM    1  C1  UNL     1      21.476  -0.657  54.485  1.00  0.00     0.014 C 
HETATM    2  C2  UNL     1      22.501  -1.005  55.004  1.00  0.00    -0.091 C 
HETATM    3  C3  UNL     1      23.752  -1.407  55.649  1.00  0.00     0.260 C 
ENDROOT
BRANCH   3   4
HETATM    4  O1  UNL     1      24.847  -1.213  54.834  1.00  0.00    -0.375 OA
BRANCH   4   5
HETATM    5  C4  UNL     1      25.675  -0.179  55.192  1.00  0.00     0.210 C 
BRANCH   5   6
HETATM    6  C5  UNL     1      26.001   0.686  54.038  1.00  0.00    -0.000 A 
HETATM    7  C6  UNL     1      25.111   1.052  53.061  1.00  0.00     0.028 A 
HETATM    8  C7  UNL     1      25.374   1.844  51.989  1.00  0.00     0.023 A 
HETATM    9  C8  UNL     1      24.351   2.077  51.106  1.00  0.00     0.079 A 
HETATM   10  C15 UNL     1      26.671   2.291  51.919  1.00  0.00     0.073 A 
HETATM   11  N2  UNL     1      24.748   2.842  50.068  1.00  0.00    -0.241 NA
HETATM   12  C14 UNL     1      25.974   3.301  49.943  1.00  0.00     0.234 A 
HETATM   13  N3  UNL     1      26.944   3.049  50.836  1.00  0.00    -0.241 NA
HETATM   14  C16 UNL     1      27.622   1.968  52.859  1.00  0.00     0.069 A 
HETATM   15  C17 UNL     1      27.313   1.155  53.947  1.00  0.00     0.076 A 
BRANCH   9  16
HETATM   16  C9  UNL     1      22.937   1.740  51.200  1.00  0.00     0.009 A 
HETATM   17  C10 UNL     1      22.125   0.726  51.046  1.00  0.00     0.013 A 
HETATM   18  C11 UNL     1      20.736   0.947  51.272  1.00  0.00     0.023 A 
HETATM   19  C12 UNL     1      20.685   2.220  51.594  1.00  0.00     0.049 A 
HETATM   20 CL1  UNL     1      19.308   3.242  52.018  1.00  0.00    -0.086 Cl
HETATM   21  C13 UNL     1      21.981   2.847  51.573  1.00  0.00     0.297 A 
BRANCH  21  22
HETATM   22  N1  UNL     1      22.142   3.857  50.546  1.00  0.00     0.092 N 
HETATM   23  H10 UNL     1      21.401   3.821  49.817  1.00  0.00     0.314 HD
HETATM   24  H11 UNL     1      23.106   3.864  50.146  1.00  0.00     0.314 HD
ENDBRANCH  21  22
ENDBRANCH   9  16
BRANCH  15  25
HETATM   25  O2  UNL     1      28.301   0.853  54.872  1.00  0.00    -0.360 OA
HETATM   26  H14 UNL     1      28.304   1.319  55.758  1.00  0.00     0.217 HD
ENDBRANCH  15  25
ENDBRANCH   5   6
ENDBRANCH   4   5
ENDBRANCH   3   4
TORSDOF 6
ENDMDL
MODEL 7
REMARK VINA RESULT:      -7.4      3.638      6.337
REMARK  6 active torsions:
REMARK  status: ('A' for Active; 'I' for Inactive)
REMARK    1  A    between atoms: C3_3  and  O1_4 
REMARK    2  A    between atoms: O1_4  and  C4_5 
REMARK    3  A    between atoms: C4_5  and  C5_6 
REMARK    4  A    between atoms: C8_9  and  C9_10 
REMARK    5  A    between atoms: C13_15  and  N1_16 
REMARK    6  A    between atoms: C17_22  and  O2_23 
ROOT
HETATM    1  C1  UNL     1      24.001   6.362  48.122  1.00  0.00     0.014 C 
HETATM    2  C2  UNL     1      23.978   5.894  49.227  1.00  0.00    -0.091 C 
HETATM    3  C3  UNL     1      23.958   5.345  50.584  1.00  0.00     0.260 C 
ENDROOT
BRANCH   3   4
HETATM    4  O1  UNL     1      25.056   4.553  50.844  1.00  0.00    -0.375 OA
BRANCH   4   5
HETATM    5  C4  UNL     1      24.971   3.259  50.396  1.00  0.00     0.210 C 
BRANCH   5   6
HETATM    6  C5  UNL     1      25.128   2.286  51.498  1.00  0.00    -0.000 A 
HETATM    7  C6  UNL     1      24.111   1.526  52.018  1.00  0.00     0.028 A 
HETATM    8  C7  UNL     1      24.217   0.623  53.028  1.00  0.00     0.023 A 
HETATM    9  C8  UNL     1      23.074  -0.024  53.422  1.00  0.00     0.079 A 
HETATM   10  C15 UNL     1      25.482   0.500  53.548  1.00  0.00     0.073 A 
HETATM   11  N2  UNL     1      23.302  -0.862  54.454  1.00  0.00    -0.241 NA
HETATM   12  C14 UNL     1      24.489  -1.024  54.997  1.00  0.00     0.234 A 
HETATM   13  N3  UNL     1      25.582  -0.370  54.575  1.00  0.00    -0.241 NA
HETATM   14  C16 UNL     1      26.553   1.227  53.083  1.00  0.00     0.069 A 
HETATM   15  C17 UNL     1      26.405   2.142  52.042  1.00  0.00     0.076 A 
BRANCH   9  16
HETATM   16  C9  UNL     1      21.746  -0.029  52.824  1.00  0.00     0.009 A 
HETATM   17  C10 UNL     1      21.121   0.356  51.741  1.00  0.00     0.013 A 
HETATM   18  C11 UNL     1      19.722   0.095  51.653  1.00  0.00     0.023 A 
HETATM   19  C12 UNL     1      19.458  -0.507  52.791  1.00  0.00     0.049 A 
HETATM   20 CL1  UNL     1      17.938  -1.142  53.428  1.00  0.00    -0.086 Cl
HETATM   21  C13 UNL     1      20.623  -0.637  53.629  1.00  0.00     0.297 A 
BRANCH  21  22
HETATM   22  N1  UNL     1      20.567   0.134  54.856  1.00  0.00     0.092 N 
HETATM   23  H10 UNL     1      19.754  -0.110  55.456  1.00  0.00     0.314 HD
HETATM   24  H11 UNL     1      20.650   1.160  54.682  1.00  0.00     0.314 HD
ENDBRANCH  21  22
ENDBRANCH   9  16
BRANCH  15  25
HETATM   25  O2  UNL     1      27.511   2.854  51.602  1.00  0.00    -0.360 OA
HETATM   26  H14 UNL     1      28.349   2.362  51.362  1.00  0.00     0.217 HD
ENDBRANCH  15  25
ENDBRANCH   5   6
ENDBRANCH   4   5
ENDBRANCH   3   4
TORSDOF 6
ENDMDL
MODEL 8
REMARK VINA RESULT:      -7.3      3.595      6.028
REMARK  6 active torsions:
REMARK  status: ('A' for Active; 'I' for Inactive)
REMARK    1  A    between atoms: C3_3  and  O1_4 
REMARK    2  A    between atoms: O1_4  and  C4_5 
REMARK    3  A    between atoms: C4_5  and  C5_6 
REMARK    4  A    between atoms: C8_9  and  C9_10 
REMARK    5  A    between atoms: C13_15  and  N1_16 
REMARK    6  A    between atoms: C17_22  and  O2_23 
ROOT
HETATM    1  C1  UNL     1      30.572   5.719  47.865  1.00  0.00     0.014 C 
HETATM    2  C2  UNL     1      29.470   6.195  47.906  1.00  0.00    -0.091 C 
HETATM    3  C3  UNL     1      28.137   6.796  47.970  1.00  0.00     0.260 C 
ENDROOT
BRANCH   3   4
HETATM    4  O1  UNL     1      27.335   6.188  48.912  1.00  0.00    -0.375 OA
BRANCH   4   5
HETATM    5  C4  UNL     1      27.178   4.833  48.772  1.00  0.00     0.210 C 
BRANCH   5   6
HETATM    6  C5  UNL     1      25.927   4.357  49.400  1.00  0.00    -0.000 A 
HETATM    7  C6  UNL     1      25.845   3.300  50.271  1.00  0.00     0.028 A 
HETATM    8  C7  UNL     1      24.717   2.836  50.867  1.00  0.00     0.023 A 
HETATM    9  C8  UNL     1      24.838   1.749  51.694  1.00  0.00     0.079 A 
HETATM   10  C15 UNL     1      23.574   3.519  50.529  1.00  0.00     0.073 A 
HETATM   11  N2  UNL     1      23.645   1.361  52.192  1.00  0.00    -0.241 NA
HETATM   12  C14 UNL     1      22.516   1.972  51.906  1.00  0.00     0.234 A 
HETATM   13  N3  UNL     1      22.446   3.036  51.093  1.00  0.00    -0.241 NA
HETATM   14  C16 UNL     1      23.573   4.587  49.663  1.00  0.00     0.069 A 
HETATM   15  C17 UNL     1      24.753   5.037  49.073  1.00  0.00     0.076 A 
BRANCH   9  16
HETATM   16  C9  UNL     1      26.031   1.074  52.187  1.00  0.00     0.009 A 
HETATM   17  C10 UNL     1      26.615  -0.096  52.164  1.00  0.00     0.013 A 
HETATM   18  C11 UNL     1      27.852  -0.235  52.858  1.00  0.00     0.023 A 
HETATM   19  C12 UNL     1      28.050   0.964  53.358  1.00  0.00     0.049 A 
HETATM   20 CL1  UNL     1      29.373   1.591  54.346  1.00  0.00    -0.086 Cl
HETATM   21  C13 UNL     1      26.986   1.879  53.035  1.00  0.00     0.297 A 
BRANCH  21  22
HETATM   22  N1  UNL     1      26.208   2.320  54.176  1.00  0.00     0.092 N 
HETATM   23  H10 UNL     1      26.777   2.813  54.894  1.00  0.00     0.314 HD
HETATM   24  H11 UNL     1      25.625   1.554  54.577  1.00  0.00     0.314 HD
ENDBRANCH  21  22
ENDBRANCH   9  16
BRANCH  15  25
HETATM   25  O2  UNL     1      24.709   6.118  48.205  1.00  0.00    -0.360 OA
HETATM   26  H14 UNL     1      24.438   5.973  47.253  1.00  0.00     0.217 HD
ENDBRANCH  15  25
ENDBRANCH   5   6
ENDBRANCH   4   5
ENDBRANCH   3   4
TORSDOF 6
ENDMDL
MODEL 9
REMARK VINA RESULT:      -7.2      3.173      5.303
REMARK  6 active torsions:
REMARK  status: ('A' for Active; 'I' for Inactive)
REMARK    1  A    between atoms: C3_3  and  O1_4 
REMARK    2  A    between atoms: O1_4  and  C4_5 
REMARK    3  A    between atoms: C4_5  and  C5_6 
REMARK    4  A    between atoms: C8_9  and  C9_10 
REMARK    5  A    between atoms: C13_15  and  N1_16 
REMARK    6  A    between atoms: C17_22  and  O2_23 
ROOT
HETATM    1  C1  UNL     1      21.437   4.556  51.642  1.00  0.00     0.014 C 
HETATM    2  C2  UNL     1      20.691   3.670  51.328  1.00  0.00    -0.091 C 
HETATM    3  C3  UNL     1      19.761   2.605  50.951  1.00  0.00     0.260 C 
ENDROOT
BRANCH   3   4
HETATM    4  O1  UNL     1      19.636   1.646  51.934  1.00  0.00    -0.375 OA
BRANCH   4   5
HETATM    5  C4  UNL     1      20.171   0.419  51.635  1.00  0.00     0.210 C 
BRANCH   5   6
HETATM    6  C5  UNL     1      21.133  -0.026  52.666  1.00  0.00    -0.000 A 
HETATM    7  C6  UNL     1      22.479   0.241  52.644  1.00  0.00     0.028 A 
HETATM    8  C7  UNL     1      23.391  -0.150  53.571  1.00  0.00     0.023 A 
HETATM    9  C8  UNL     1      24.700   0.200  53.359  1.00  0.00     0.079 A 
HETATM   10  C15 UNL     1      22.868  -0.885  54.607  1.00  0.00     0.073 A 
HETATM   11  N2  UNL     1      25.510  -0.279  54.326  1.00  0.00    -0.241 NA
HETATM   12  C14 UNL     1      25.072  -0.989  55.342  1.00  0.00     0.234 A 
HETATM   13  N3  UNL     1      23.779  -1.304  55.511  1.00  0.00    -0.241 NA
HETATM   14  C16 UNL     1      21.531  -1.195  54.700  1.00  0.00     0.069 A 
HETATM   15  C17 UNL     1      20.625  -0.773  53.729  1.00  0.00     0.076 A 
BRANCH   9  16
HETATM   16  C9  UNL     1      25.284   1.081  52.358  1.00  0.00     0.009 A 
HETATM   17  C10 UNL     1      26.246   1.111  51.472  1.00  0.00     0.013 A 
HETATM   18  C11 UNL     1      26.403   2.299  50.701  1.00  0.00     0.023 A 
HETATM   19  C12 UNL     1      25.449   3.079  51.157  1.00  0.00     0.049 A 
HETATM   20 CL1  UNL     1      24.995   4.724  50.701  1.00  0.00    -0.086 Cl
HETATM   21  C13 UNL     1      24.682   2.457  52.206  1.00  0.00     0.297 A 
BRANCH  21  22
HETATM   22  N1  UNL     1      24.824   3.086  53.505  1.00  0.00     0.092 N 
HETATM   23  H10 UNL     1      25.294   4.012  53.462  1.00  0.00     0.314 HD
HETATM   24  H11 UNL     1      25.253   2.445  54.208  1.00  0.00     0.314 HD
ENDBRANCH  21  22
ENDBRANCH   9  16
BRANCH  15  25
HETATM   25  O2  UNL     1      19.285  -1.108  53.860  1.00  0.00    -0.360 OA
HETATM   26  H14 UNL     1      18.754  -1.340  53.044  1.00  0.00     0.217 HD
ENDBRANCH  15  25
ENDBRANCH   5   6
ENDBRANCH   4   5
ENDBRANCH   3   4
TORSDOF 6
ENDMDL
