MODEL 1
REMARK VINA RESULT:      -7.8      0.000      0.000
REMARK  2 active torsions:
REMARK  status: ('A' for Active; 'I' for Inactive)
REMARK    1  A    between atoms: O1_2  and  C2_3 
REMARK    2  A    between atoms: C14_18  and  O2_19 
ROOT
HETATM    1  C2  UNL     1      27.578   0.476  54.018  1.00  0.00     0.077 C 
HETATM    2  C3  UNL     1      27.737   1.182  52.875  1.00  0.00     0.062 C 
HETATM    3  C4  UNL     1      26.624   2.013  52.310  1.00  0.00     0.043 C 
HETATM    4  N1  UNL     1      27.103   2.453  51.194  1.00  0.00    -0.234 NA
HETATM    5  P1  UNL     1      26.340   3.499  49.995  1.00  0.00     0.208 P 
HETATM    6  N2  UNL     1      24.853   4.166  50.258  1.00  0.00    -0.241 NA
HETATM    7  C5  UNL     1      24.340   4.993  49.221  1.00  0.00     0.130 C 
HETATM    8  C6  UNL     1      23.168   4.863  48.666  1.00  0.00    -0.007 C 
HETATM    9  C7  UNL     1      22.281   4.187  49.334  1.00  0.00     0.013 C 
HETATM   10  C8  UNL     1      22.807   3.040  50.050  1.00  0.00    -0.003 C 
HETATM   11  C9  UNL     1      22.928   2.251  51.101  1.00  0.00    -0.026 C 
HETATM   12  C10 UNL     1      23.478   1.076  51.812  1.00  0.00     0.033 C 
HETATM   13  C11 UNL     1      24.212   1.464  53.052  1.00  0.00     0.007 A 
HETATM   14  C12 UNL     1      25.420   2.117  53.076  1.00  0.00     0.050 A 
HETATM   15  C13 UNL     1      25.257   0.633  53.540  1.00  0.00     0.036 A 
HETATM   16  C14 UNL     1      26.204   0.602  54.647  1.00  0.00     0.182 C 
ENDROOT
BRANCH   1  17
HETATM   17  O1  UNL     1      28.522  -0.342  54.667  1.00  0.00    -0.357 OA
HETATM   18  C1  UNL     1      29.581  -0.845  53.879  1.00  0.00     0.209 C 
ENDBRANCH   1  17
BRANCH  16  19
HETATM   19  O2  UNL     1      25.965  -0.519  55.443  1.00  0.00    -0.384 OA
HETATM   20  C15 UNL     1      24.743  -1.034  55.014  1.00  0.00     0.202 C 
ENDBRANCH  16  19
TORSDOF 2
ENDMDL
MODEL 2
REMARK VINA RESULT:      -7.8      3.257      5.128
REMARK  2 active torsions:
REMARK  status: ('A' for Active; 'I' for Inactive)
REMARK    1  A    between atoms: O1_2  and  C2_3 
REMARK    2  A    between atoms: C14_18  and  O2_19 
ROOT
HETATM    1  C2  UNL     1      26.313   3.014  50.754  1.00  0.00     0.077 C 
HETATM    2  C3  UNL     1      25.034   2.749  50.405  1.00  0.00     0.062 C 
HETATM    3  C4  UNL     1      24.083   2.095  51.362  1.00  0.00     0.043 C 
HETATM    4  N1  UNL     1      23.011   1.921  50.663  1.00  0.00    -0.234 NA
HETATM    5  P1  UNL     1      21.474   1.202  51.148  1.00  0.00     0.208 P 
HETATM    6  N2  UNL     1      21.195   0.743  52.709  1.00  0.00    -0.241 NA
HETATM    7  C5  UNL     1      19.919   0.176  52.982  1.00  0.00     0.130 C 
HETATM    8  C6  UNL     1      19.716  -0.966  53.577  1.00  0.00    -0.007 C 
HETATM    9  C7  UNL     1      20.700  -1.436  54.283  1.00  0.00     0.013 C 
HETATM   10  C8  UNL     1      22.015  -1.210  53.715  1.00  0.00    -0.003 C 
HETATM   11  C9  UNL     1      23.288  -0.864  53.769  1.00  0.00    -0.026 C 
HETATM   12  C10 UNL     1      24.620  -0.639  53.168  1.00  0.00     0.033 C 
HETATM   13  C11 UNL     1      25.083   0.769  53.340  1.00  0.00     0.007 A 
HETATM   14  C12 UNL     1      24.544   1.856  52.695  1.00  0.00     0.050 A 
HETATM   15  C13 UNL     1      25.988   1.332  52.399  1.00  0.00     0.036 A 
HETATM   16  C14 UNL     1      26.678   2.594  52.165  1.00  0.00     0.182 C 
ENDROOT
BRANCH   1  17
HETATM   17  O1  UNL     1      27.315   3.619  49.972  1.00  0.00    -0.357 OA
HETATM   18  C1  UNL     1      26.896   4.588  49.034  1.00  0.00     0.209 C 
ENDBRANCH   1  17
BRANCH  16  19
HETATM   19  O2  UNL     1      28.058   2.400  52.237  1.00  0.00    -0.384 OA
HETATM   20  C15 UNL     1      28.370   2.411  53.596  1.00  0.00     0.202 C 
ENDBRANCH  16  19
TORSDOF 2
ENDMDL
MODEL 3
REMARK VINA RESULT:      -7.6      2.925      3.735
REMARK  2 active torsions:
REMARK  status: ('A' for Active; 'I' for Inactive)
REMARK    1  A    between atoms: O1_2  and  C2_3 
REMARK    2  A    between atoms: C14_18  and  O2_19 
ROOT
HETATM    1  C2  UNL     1      27.399  -0.286  53.638  1.00  0.00     0.077 C 
HETATM    2  C3  UNL     1      26.141  -0.708  53.905  1.00  0.00     0.062 C 
HETATM    3  C4  UNL     1      24.953  -0.099  53.223  1.00  0.00     0.043 C 
HETATM    4  N1  UNL     1      23.944  -0.676  53.786  1.00  0.00    -0.234 NA
HETATM    5  P1  UNL     1      22.221  -0.448  53.479  1.00  0.00     0.208 P 
HETATM    6  N2  UNL     1      21.688   0.528  52.259  1.00  0.00    -0.241 NA
HETATM    7  C5  UNL     1      20.277   0.635  52.107  1.00  0.00     0.130 C 
HETATM    8  C6  UNL     1      19.609   1.752  52.056  1.00  0.00    -0.007 C 
HETATM    9  C7  UNL     1      20.287   2.821  51.760  1.00  0.00     0.013 C 
HETATM   10  C8  UNL     1      21.619   2.871  52.330  1.00  0.00    -0.003 C 
HETATM   11  C9  UNL     1      22.920   3.091  52.290  1.00  0.00    -0.026 C 
HETATM   12  C10 UNL     1      24.270   3.133  52.893  1.00  0.00     0.033 C 
HETATM   13  C11 UNL     1      25.232   2.246  52.176  1.00  0.00     0.007 A 
HETATM   14  C12 UNL     1      25.200   0.872  52.202  1.00  0.00     0.050 A 
HETATM   15  C13 UNL     1      26.342   1.700  52.878  1.00  0.00     0.036 A 
HETATM   16  C14 UNL     1      27.481   0.831  52.616  1.00  0.00     0.182 C 
ENDROOT
BRANCH   1  17
HETATM   17  O1  UNL     1      28.604  -0.757  54.193  1.00  0.00    -0.357 OA
HETATM   18  C1  UNL     1      29.347  -1.675  53.420  1.00  0.00     0.209 C 
ENDBRANCH   1  17
BRANCH  16  19
HETATM   19  O2  UNL     1      28.669   1.536  52.811  1.00  0.00    -0.384 OA
HETATM   20  C15 UNL     1      28.386   2.492  53.786  1.00  0.00     0.202 C 
ENDBRANCH  16  19
TORSDOF 2
ENDMDL
MODEL 4
REMARK VINA RESULT:      -7.3      3.533      4.840
REMARK  2 active torsions:
REMARK  status: ('A' for Active; 'I' for Inactive)
REMARK    1  A    between atoms: O1_2  and  C2_3 
REMARK    2  A    between atoms: C14_18  and  O2_19 
ROOT
HETATM    1  C2  UNL     1      27.244   1.405  52.814  1.00  0.00     0.077 C 
HETATM    2  C3  UNL     1      26.491   0.651  53.648  1.00  0.00     0.062 C 
HETATM    3  C4  UNL     1      25.070   0.306  53.320  1.00  0.00     0.043 C 
HETATM    4  N1  UNL     1      24.656  -0.328  54.366  1.00  0.00    -0.234 NA
HETATM    5  P1  UNL     1      23.069  -1.033  54.682  1.00  0.00     0.208 P 
HETATM    6  N2  UNL     1      21.891  -1.049  53.525  1.00  0.00    -0.241 NA
HETATM    7  C5  UNL     1      20.653  -1.644  53.893  1.00  0.00     0.130 C 
HETATM    8  C6  UNL     1      19.483  -1.082  53.772  1.00  0.00    -0.007 C 
HETATM    9  C7  UNL     1      19.400  -0.087  52.940  1.00  0.00     0.013 C 
HETATM   10  C8  UNL     1      20.559   0.785  52.921  1.00  0.00    -0.003 C 
HETATM   11  C9  UNL     1      21.496   1.501  52.329  1.00  0.00    -0.026 C 
HETATM   12  C10 UNL     1      22.679   2.389  52.335  1.00  0.00     0.033 C 
HETATM   13  C11 UNL     1      23.834   1.789  51.604  1.00  0.00     0.007 A 
HETATM   14  C12 UNL     1      24.567   0.714  52.044  1.00  0.00     0.050 A 
HETATM   15  C13 UNL     1      25.160   2.158  51.961  1.00  0.00     0.036 A 
HETATM   16  C14 UNL     1      26.526   1.854  51.557  1.00  0.00     0.182 C 
ENDROOT
BRANCH   1  17
HETATM   17  O1  UNL     1      28.582   1.808  52.984  1.00  0.00    -0.357 OA
HETATM   18  C1  UNL     1      29.384   1.019  53.837  1.00  0.00     0.209 C 
ENDBRANCH   1  17
BRANCH  16  19
HETATM   19  O2  UNL     1      27.144   3.007  51.070  1.00  0.00    -0.384 OA
HETATM   20  C15 UNL     1      26.521   3.284  49.854  1.00  0.00     0.202 C 
ENDBRANCH  16  19
TORSDOF 2
ENDMDL
MODEL 5
REMARK VINA RESULT:      -7.3      3.761      6.500
REMARK  2 active torsions:
REMARK  status: ('A' for Active; 'I' for Inactive)
REMARK    1  A    between atoms: O1_2  and  C2_3 
REMARK    2  A    between atoms: C14_18  and  O2_19 
ROOT
HETATM    1  C2  UNL     1      20.906   1.467  52.248  1.00  0.00     0.077 C 
HETATM    2  C3  UNL     1      21.720   0.543  52.808  1.00  0.00     0.062 C 
HETATM    3  C4  UNL     1      23.136   0.868  53.173  1.00  0.00     0.043 C 
HETATM    4  N1  UNL     1      23.617  -0.257  53.584  1.00  0.00    -0.234 NA
HETATM    5  P1  UNL     1      25.239  -0.624  54.175  1.00  0.00     0.208 P 
HETATM    6  N2  UNL     1      26.366   0.565  54.382  1.00  0.00    -0.241 NA
HETATM    7  C5  UNL     1      27.639   0.152  54.864  1.00  0.00     0.130 C 
HETATM    8  C6  UNL     1      28.782   0.435  54.306  1.00  0.00    -0.007 C 
HETATM    9  C7  UNL     1      28.795   1.444  53.487  1.00  0.00     0.013 C 
HETATM   10  C8  UNL     1      27.607   1.571  52.665  1.00  0.00    -0.003 C 
HETATM   11  C9  UNL     1      26.621   2.242  52.099  1.00  0.00    -0.026 C 
HETATM   12  C10 UNL     1      25.409   2.348  51.257  1.00  0.00     0.033 C 
HETATM   13  C11 UNL     1      24.246   2.893  52.015  1.00  0.00     0.007 A 
HETATM   14  C12 UNL     1      23.570   2.222  53.005  1.00  0.00     0.050 A 
HETATM   15  C13 UNL     1      22.924   2.549  51.619  1.00  0.00     0.036 A 
HETATM   16  C14 UNL     1      21.553   2.821  52.030  1.00  0.00     0.182 C 
ENDROOT
BRANCH   1  17
HETATM   17  O1  UNL     1      19.564   1.312  51.855  1.00  0.00    -0.357 OA
HETATM   18  C1  UNL     1      19.001   0.024  51.995  1.00  0.00     0.209 C 
ENDBRANCH   1  17
BRANCH  16  19
HETATM   19  O2  UNL     1      20.876   3.487  51.008  1.00  0.00    -0.384 OA
HETATM   20  C15 UNL     1      21.103   4.845  51.227  1.00  0.00     0.202 C 
ENDBRANCH  16  19
TORSDOF 2
ENDMDL
MODEL 6
REMARK VINA RESULT:      -7.3      3.876      6.733
REMARK  2 active torsions:
REMARK  status: ('A' for Active; 'I' for Inactive)
REMARK    1  A    between atoms: O1_2  and  C2_3 
REMARK    2  A    between atoms: C14_18  and  O2_19 
ROOT
HETATM    1  C2  UNL     1      19.564   2.773  51.928  1.00  0.00     0.077 C 
HETATM    2  C3  UNL     1      20.820   3.262  52.039  1.00  0.00     0.062 C 
HETATM    3  C4  UNL     1      22.017   2.361  51.981  1.00  0.00     0.043 C 
HETATM    4  N1  UNL     1      23.011   3.152  52.212  1.00  0.00    -0.234 NA
HETATM    5  P1  UNL     1      24.734   2.777  52.295  1.00  0.00     0.208 P 
HETATM    6  N2  UNL     1      25.301   1.266  51.945  1.00  0.00    -0.241 NA
HETATM    7  C5  UNL     1      26.708   1.081  52.045  1.00  0.00     0.130 C 
HETATM    8  C6  UNL     1      27.296   0.143  52.733  1.00  0.00    -0.007 C 
HETATM    9  C7  UNL     1      26.571  -0.891  53.042  1.00  0.00     0.013 C 
HETATM   10  C8  UNL     1      25.194  -0.587  53.378  1.00  0.00    -0.003 C 
HETATM   11  C9  UNL     1      23.889  -0.780  53.326  1.00  0.00    -0.026 C 
HETATM   12  C10 UNL     1      22.492  -0.451  53.681  1.00  0.00     0.033 C 
HETATM   13  C11 UNL     1      21.663  -0.149  52.478  1.00  0.00     0.007 A 
HETATM   14  C12 UNL     1      21.792   0.977  51.700  1.00  0.00     0.050 A 
HETATM   15  C13 UNL     1      20.538   0.713  52.597  1.00  0.00     0.036 A 
HETATM   16  C14 UNL     1      19.492   1.269  51.749  1.00  0.00     0.182 C 
ENDROOT
BRANCH   1  17
HETATM   17  O1  UNL     1      18.352   3.487  51.961  1.00  0.00    -0.357 OA
HETATM   18  C1  UNL     1      18.006   4.214  50.801  1.00  0.00     0.209 C 
ENDBRANCH   1  17
BRANCH  16  19
HETATM   19  O2  UNL     1      18.243   0.821  52.182  1.00  0.00    -0.384 OA
HETATM   20  C15 UNL     1      18.071  -0.436  51.604  1.00  0.00     0.202 C 
ENDBRANCH  16  19
TORSDOF 2
ENDMDL
MODEL 7
REMARK VINA RESULT:      -6.7      4.229      7.039
REMARK  2 active torsions:
REMARK  status: ('A' for Active; 'I' for Inactive)
REMARK    1  A    between atoms: O1_2  and  C2_3 
REMARK    2  A    between atoms: C14_18  and  O2_19 
ROOT
HETATM    1  C2  UNL     1      22.377   5.837  50.603  1.00  0.00     0.077 C 
HETATM    2  C3  UNL     1      21.461   4.860  50.792  1.00  0.00     0.062 C 
HETATM    3  C4  UNL     1      21.693   3.751  51.772  1.00  0.00     0.043 C 
HETATM    4  N1  UNL     1      20.672   2.977  51.612  1.00  0.00    -0.234 NA
HETATM    5  P1  UNL     1      20.280   1.469  52.442  1.00  0.00     0.208 P 
HETATM    6  N2  UNL     1      21.205   0.910  53.690  1.00  0.00    -0.241 NA
HETATM    7  C5  UNL     1      20.792  -0.315  54.282  1.00  0.00     0.130 C 
HETATM    8  C6  UNL     1      21.552  -1.358  54.460  1.00  0.00    -0.007 C 
HETATM    9  C7  UNL     1      22.835  -1.151  54.439  1.00  0.00     0.013 C 
HETATM   10  C8  UNL     1      23.274  -0.170  53.466  1.00  0.00    -0.003 C 
HETATM   11  C9  UNL     1      23.979   0.872  53.066  1.00  0.00    -0.026 C 
HETATM   12  C10 UNL     1      24.411   1.864  52.057  1.00  0.00     0.033 C 
HETATM   13  C11 UNL     1      24.127   3.264  52.489  1.00  0.00     0.007 A 
HETATM   14  C12 UNL     1      22.872   3.816  52.581  1.00  0.00     0.050 A 
HETATM   15  C13 UNL     1      23.916   4.273  51.510  1.00  0.00     0.036 A 
HETATM   16  C14 UNL     1      23.624   5.700  51.455  1.00  0.00     0.182 C 
ENDROOT
BRANCH   1  17
HETATM   17  O1  UNL     1      22.301   6.936  49.726  1.00  0.00    -0.357 OA
HETATM   18  C1  UNL     1      21.419   7.979  50.084  1.00  0.00     0.209 C 
ENDBRANCH   1  17
BRANCH  16  19
HETATM   19  O2  UNL     1      24.675   6.375  50.832  1.00  0.00    -0.384 OA
HETATM   20  C15 UNL     1      25.307   5.429  50.026  1.00  0.00     0.202 C 
ENDBRANCH  16  19
TORSDOF 2
ENDMDL
MODEL 8
REMARK VINA RESULT:      -6.7      3.918      6.074
REMARK  2 active torsions:
REMARK  status: ('A' for Active; 'I' for Inactive)
REMARK    1  A    between atoms: O1_2  and  C2_3 
REMARK    2  A    between atoms: C14_18  and  O2_19 
ROOT
HETATM    1  C2  UNL     1      25.499   4.384  49.523  1.00  0.00     0.077 C 
HETATM    2  C3  UNL     1      25.798   3.535  50.533  1.00  0.00     0.062 C 
HETATM    3  C4  UNL     1      24.784   2.570  51.068  1.00  0.00     0.043 C 
HETATM    4  N1  UNL     1      25.387   2.007  52.062  1.00  0.00    -0.234 NA
HETATM    5  P1  UNL     1      24.792   0.760  53.160  1.00  0.00     0.208 P 
HETATM    6  N2  UNL     1      23.319   0.050  52.936  1.00  0.00    -0.241 NA
HETATM    7  C5  UNL     1      22.945  -0.942  53.883  1.00  0.00     0.130 C 
HETATM    8  C6  UNL     1      21.827  -0.960  54.553  1.00  0.00    -0.007 C 
HETATM    9  C7  UNL     1      20.851  -0.250  54.071  1.00  0.00     0.013 C 
HETATM   10  C8  UNL     1      21.252   1.014  53.485  1.00  0.00    -0.003 C 
HETATM   11  C9  UNL     1      21.236   1.948  52.553  1.00  0.00    -0.026 C 
HETATM   12  C10 UNL     1      21.661   3.241  51.973  1.00  0.00     0.033 C 
HETATM   13  C11 UNL     1      22.289   3.074  50.630  1.00  0.00     0.007 A 
HETATM   14  C12 UNL     1      23.518   2.503  50.405  1.00  0.00     0.050 A 
HETATM   15  C13 UNL     1      23.244   4.025  50.177  1.00  0.00     0.036 A 
HETATM   16  C14 UNL     1      24.078   4.266  49.007  1.00  0.00     0.182 C 
ENDROOT
BRANCH   1  17
HETATM   17  O1  UNL     1      26.338   5.339  48.918  1.00  0.00    -0.357 OA
HETATM   18  C1  UNL     1      27.654   4.930  48.611  1.00  0.00     0.209 C 
ENDBRANCH   1  17
BRANCH  16  19
HETATM   19  O2  UNL     1      23.713   5.471  48.405  1.00  0.00    -0.384 OA
HETATM   20  C15 UNL     1      22.603   5.178  47.614  1.00  0.00     0.202 C 
ENDBRANCH  16  19
TORSDOF 2
ENDMDL
MODEL 9
REMARK VINA RESULT:      -6.7      4.090      5.490
REMARK  2 active torsions:
REMARK  status: ('A' for Active; 'I' for Inactive)
REMARK    1  A    between atoms: O1_2  and  C2_3 
REMARK    2  A    between atoms: C14_18  and  O2_19 
ROOT
HETATM    1  C2  UNL     1      24.728   2.465  51.430  1.00  0.00     0.077 C 
HETATM    2  C3  UNL     1      23.592   2.228  50.734  1.00  0.00     0.062 C 
HETATM    3  C4  UNL     1      22.355   1.718  51.409  1.00  0.00     0.043 C 
HETATM    4  N1  UNL     1      21.528   1.528  50.437  1.00  0.00    -0.234 NA
HETATM    5  P1  UNL     1      19.867   0.933  50.491  1.00  0.00     0.208 P 
HETATM    6  N2  UNL     1      19.106   0.643  51.927  1.00  0.00    -0.241 NA
HETATM    7  C5  UNL     1      17.768   0.167  51.848  1.00  0.00     0.130 C 
HETATM    8  C6  UNL     1      17.313  -0.900  52.442  1.00  0.00    -0.007 C 
HETATM    9  C7  UNL     1      18.007  -1.345  53.447  1.00  0.00     0.013 C 
HETATM   10  C8  UNL     1      19.444  -1.239  53.285  1.00  0.00    -0.003 C 
HETATM   11  C9  UNL     1      20.666  -0.950  53.691  1.00  0.00    -0.026 C 
HETATM   12  C10 UNL     1      22.130  -0.849  53.503  1.00  0.00     0.033 C 
HETATM   13  C11 UNL     1      22.625   0.545  53.695  1.00  0.00     0.007 A 
HETATM   14  C12 UNL     1      22.383   1.588  52.834  1.00  0.00     0.050 A 
HETATM   15  C13 UNL     1      23.806   0.970  53.028  1.00  0.00     0.036 A 
HETATM   16  C14 UNL     1      24.627   2.168  52.913  1.00  0.00     0.182 C 
ENDROOT
BRANCH   1  17
HETATM   17  O1  UNL     1      25.958   2.942  50.940  1.00  0.00    -0.357 OA
HETATM   18  C1  UNL     1      25.988   3.373  49.595  1.00  0.00     0.209 C 
ENDBRANCH   1  17
BRANCH  16  19
HETATM   19  O2  UNL     1      25.906   1.916  53.413  1.00  0.00    -0.384 OA
HETATM   20  C15 UNL     1      26.077   0.535  53.333  1.00  0.00     0.202 C 
ENDBRANCH  16  19
TORSDOF 2
ENDMDL
