MODEL 1
REMARK VINA RESULT:      -7.2      0.000      0.000
REMARK  6 active torsions:
REMARK  status: ('A' for Active; 'I' for Inactive)
REMARK    1  A    between atoms: C3_3  and  C4_5 
REMARK    2  A    between atoms: C5_6  and  C6_7 
REMARK    3  A    between atoms: C10_13  and  O3_14 
REMARK    4  A    between atoms: O3_14  and  C11_15 
REMARK    5  A    between atoms: C11_15  and  C12_16 
REMARK    6  A    between atoms: C12_16  and  O4_17 
ROOT
HETATM    1  C6  UNL     1      25.763   2.298  51.240  1.00  0.00     0.089 C 
HETATM    2  C7  UNL     1      24.600   1.864  51.665  1.00  0.00     0.113 C 
HETATM    3  O1  UNL     1      23.520   2.592  51.071  1.00  0.00    -0.325 OA
HETATM    4  C8  UNL     1      22.683   2.948  52.223  1.00  0.00     0.346 C 
HETATM    5  O2  UNL     1      22.602   1.694  52.866  1.00  0.00    -0.348 OA
HETATM    6  C9  UNL     1      23.735   0.972  52.476  1.00  0.00     0.239 C 
HETATM    7  C10 UNL     1      24.428   0.246  53.465  1.00  0.00     0.083 C 
HETATM    8  C14 UNL     1      25.164  -0.417  54.433  1.00  0.00     0.048 C 
HETATM    9  C15 UNL     1      26.480   0.139  54.839  1.00  0.00     0.219 C 
HETATM   10  N1  UNL     1      27.236   1.156  54.474  1.00  0.00    -0.278 NA
HETATM   11  C16 UNL     1      26.653   1.953  53.391  1.00  0.00     0.173 C 
HETATM   12  N2  UNL     1      26.337   1.394  52.227  1.00  0.00    -0.248 NA
ENDROOT
BRANCH   1  13
HETATM   13  C5  UNL     1      26.583   3.082  50.506  1.00  0.00     0.033 C 
HETATM   14  C4  UNL     1      26.269   3.859  49.381  1.00  0.00     0.021 C 
BRANCH  14  15
HETATM   15  C3  UNL     1      27.377   4.570  48.865  1.00  0.00     0.149 A 
HETATM   16  C2  UNL     1      26.979   5.891  48.584  1.00  0.00     0.169 A 
HETATM   17  C1  UNL     1      28.376   6.348  48.186  1.00  0.00     0.045 C 
HETATM   18  F1  UNL     1      27.602   5.835  48.469  1.00  0.00    -0.381 F 
ENDBRANCH  14  15
ENDBRANCH   1  13
BRANCH   7  19
HETATM   19  O3  UNL     1      23.550  -0.764  53.678  1.00  0.00    -0.350 OA
BRANCH  19  20
HETATM   20  C11 UNL     1      22.872  -1.161  54.831  1.00  0.00     0.201 C 
BRANCH  20  21
HETATM   21  C12 UNL     1      21.442  -1.606  54.398  1.00  0.00     0.193 C 
BRANCH  21  22
HETATM   22  O4  UNL     1      20.694  -0.449  54.399  1.00  0.00    -0.394 OA
HETATM   23  C13 UNL     1      19.743  -0.437  53.366  1.00  0.00     0.201 C 
ENDBRANCH  21  22
ENDBRANCH  20  21
ENDBRANCH  19  20
ENDBRANCH   7  19
TORSDOF 6
ENDMDL
MODEL 2
REMARK VINA RESULT:      -6.6      3.648      5.112
REMARK  6 active torsions:
REMARK  status: ('A' for Active; 'I' for Inactive)
REMARK    1  A    between atoms: C3_3  and  C4_5 
REMARK    2  A    between atoms: C5_6  and  C6_7 
REMARK    3  A    between atoms: C10_13  and  O3_14 
REMARK    4  A    between atoms: O3_14  and  C11_15 
REMARK    5  A    between atoms: C11_15  and  C12_16 
REMARK    6  A    between atoms: C12_16  and  O4_17 
ROOT
HETATM    1  C6  UNL     1      24.596  -0.107  52.796  1.00  0.00     0.089 C 
HETATM    2  C7  UNL     1      23.720   0.791  52.412  1.00  0.00     0.113 C 
HETATM    3  O1  UNL     1      24.358   2.009  52.015  1.00  0.00    -0.325 OA
HETATM    4  C8  UNL     1      23.599   3.036  52.739  1.00  0.00     0.346 C 
HETATM    5  O2  UNL     1      22.282   2.633  52.429  1.00  0.00    -0.348 OA
HETATM    6  C9  UNL     1      22.340   1.265  52.144  1.00  0.00     0.239 C 
HETATM    7  C10 UNL     1      21.336   0.436  52.681  1.00  0.00     0.083 C 
HETATM    8  C14 UNL     1      20.399  -0.407  53.256  1.00  0.00     0.048 C 
HETATM    9  C15 UNL     1      20.822  -1.301  54.363  1.00  0.00     0.219 C 
HETATM   10  N1  UNL     1      21.954  -1.575  54.984  1.00  0.00    -0.278 NA
HETATM   11  C16 UNL     1      23.099  -0.824  54.463  1.00  0.00     0.173 C 
HETATM   12  N2  UNL     1      23.443  -0.907  53.182  1.00  0.00    -0.248 NA
ENDROOT
BRANCH   1  13
HETATM   13  C5  UNL     1      25.840  -0.579  53.038  1.00  0.00     0.033 C 
HETATM   14  C4  UNL     1      27.066   0.090  52.912  1.00  0.00     0.021 C 
BRANCH  14  15
HETATM   15  C3  UNL     1      28.179  -0.709  53.263  1.00  0.00     0.149 A 
HETATM   16  C2  UNL     1      29.285   0.129  53.497  1.00  0.00     0.169 A 
HETATM   17  C1  UNL     1      30.197  -1.008  53.938  1.00  0.00     0.045 C 
HETATM   18  F1  UNL     1      29.452  -0.472  53.622  1.00  0.00    -0.381 F 
ENDBRANCH  14  15
ENDBRANCH   1  13
BRANCH   7  19
HETATM   19  O3  UNL     1      20.284   0.806  51.911  1.00  0.00    -0.350 OA
BRANCH  19  20
HETATM   20  C11 UNL     1      18.925   0.913  52.205  1.00  0.00     0.201 C 
BRANCH  20  21
HETATM   21  C12 UNL     1      18.373   2.138  51.414  1.00  0.00     0.193 C 
BRANCH  21  22
HETATM   22  O4  UNL     1      18.917   3.238  52.038  1.00  0.00    -0.394 OA
HETATM   23  C13 UNL     1      19.467   4.146  51.118  1.00  0.00     0.201 C 
ENDBRANCH  21  22
ENDBRANCH  20  21
ENDBRANCH  19  20
ENDBRANCH   7  19
TORSDOF 6
ENDMDL
MODEL 3
REMARK VINA RESULT:      -6.4      3.199      5.037
REMARK  6 active torsions:
REMARK  status: ('A' for Active; 'I' for Inactive)
REMARK    1  A    between atoms: C3_3  and  C4_5 
REMARK    2  A    between atoms: C5_6  and  C6_7 
REMARK    3  A    between atoms: C10_13  and  O3_14 
REMARK    4  A    between atoms: O3_14  and  C11_15 
REMARK    5  A    between atoms: C11_15  and  C12_16 
REMARK    6  A    between atoms: C12_16  and  O4_17 
ROOT
HETATM    1  C6  UNL     1      23.533   3.297  52.025  1.00  0.00     0.089 C 
HETATM    2  C7  UNL     1      24.708   2.717  52.069  1.00  0.00     0.113 C 
HETATM    3  O1  UNL     1      25.687   3.459  51.333  1.00  0.00    -0.325 OA
HETATM    4  C8  UNL     1      26.325   2.433  50.499  1.00  0.00     0.346 C 
HETATM    5  O2  UNL     1      26.575   1.443  51.473  1.00  0.00    -0.348 OA
HETATM    6  C9  UNL     1      25.641   1.644  52.495  1.00  0.00     0.239 C 
HETATM    7  C10 UNL     1      25.003   0.512  53.037  1.00  0.00     0.083 C 
HETATM    8  C14 UNL     1      24.311  -0.580  53.535  1.00  0.00     0.048 C 
HETATM    9  C15 UNL     1      22.882  -0.751  53.174  1.00  0.00     0.219 C 
HETATM   10  N1  UNL     1      21.989  -0.069  52.482  1.00  0.00    -0.278 NA
HETATM   11  C16 UNL     1      22.516   1.178  51.922  1.00  0.00     0.173 C 
HETATM   12  N2  UNL     1      23.043   2.109  52.710  1.00  0.00    -0.248 NA
ENDROOT
BRANCH   1  13
HETATM   13  C5  UNL     1      22.657   4.263  51.670  1.00  0.00     0.033 C 
HETATM   14  C4  UNL     1      22.924   5.592  51.311  1.00  0.00     0.021 C 
BRANCH  14  15
HETATM   15  C3  UNL     1      21.762   6.329  50.983  1.00  0.00     0.149 A 
HETATM   16  C2  UNL     1      22.143   7.610  50.543  1.00  0.00     0.169 A 
HETATM   17  C1  UNL     1      20.725   8.036  50.190  1.00  0.00     0.045 C 
HETATM   18  F1  UNL     1      21.513   7.554  50.489  1.00  0.00    -0.381 F 
ENDBRANCH  14  15
ENDBRANCH   1  13
BRANCH   7  19
HETATM   19  O3  UNL     1      26.028  -0.027  53.740  1.00  0.00    -0.350 OA
BRANCH  19  20
HETATM   20  C11 UNL     1      26.700   0.427  54.875  1.00  0.00     0.201 C 
BRANCH  20  21
HETATM   21  C12 UNL     1      28.210   0.089  54.687  1.00  0.00     0.193 C 
BRANCH  21  22
HETATM   22  O4  UNL     1      28.878   1.246  55.024  1.00  0.00    -0.394 OA
HETATM   23  C13 UNL     1      28.922   2.157  53.957  1.00  0.00     0.201 C 
ENDBRANCH  21  22
ENDBRANCH  20  21
ENDBRANCH  19  20
ENDBRANCH   7  19
TORSDOF 6
ENDMDL
MODEL 4
REMARK VINA RESULT:      -6.4      2.125      3.383
REMARK  6 active torsions:
REMARK  status: ('A' for Active; 'I' for Inactive)
REMARK    1  A    between atoms: C3_3  and  C4_5 
REMARK    2  A    between atoms: C5_6  and  C6_7 
REMARK    3  A    between atoms: C10_13  and  O3_14 
REMARK    4  A    between atoms: O3_14  and  C11_15 
REMARK    5  A    between atoms: C11_15  and  C12_16 
REMARK    6  A    between atoms: C12_16  and  O4_17 
ROOT
HETATM    1  C6  UNL     1      25.001   3.463  50.597  1.00  0.00     0.089 C 
HETATM    2  C7  UNL     1      24.899   2.511  51.493  1.00  0.00     0.113 C 
HETATM    3  O1  UNL     1      26.163   2.228  52.104  1.00  0.00    -0.325 OA
HETATM    4  C8  UNL     1      26.255   0.766  52.021  1.00  0.00     0.346 C 
HETATM    5  O2  UNL     1      24.981   0.409  52.514  1.00  0.00    -0.348 OA
HETATM    6  C9  UNL     1      24.141   1.501  52.273  1.00  0.00     0.239 C 
HETATM    7  C10 UNL     1      22.850   1.242  51.773  1.00  0.00     0.083 C 
HETATM    8  C14 UNL     1      21.602   1.016  51.214  1.00  0.00     0.048 C 
HETATM    9  C15 UNL     1      21.376   1.381  49.793  1.00  0.00     0.219 C 
HETATM   10  N1  UNL     1      22.079   1.953  48.835  1.00  0.00    -0.278 NA
HETATM   11  C16 UNL     1      23.428   2.339  49.256  1.00  0.00     0.173 C 
HETATM   12  N2  UNL     1      23.611   3.164  50.282  1.00  0.00    -0.248 NA
ENDROOT
BRANCH   1  13
HETATM   13  C5  UNL     1      25.655   4.402  49.878  1.00  0.00     0.033 C 
HETATM   14  C4  UNL     1      26.901   4.302  49.242  1.00  0.00     0.021 C 
BRANCH  14  15
HETATM   15  C3  UNL     1      27.280   5.484  48.563  1.00  0.00     0.149 A 
HETATM   16  C2  UNL     1      28.674   5.469  48.368  1.00  0.00     0.169 A 
HETATM   17  C1  UNL     1      28.688   6.757  47.555  1.00  0.00     0.045 C 
HETATM   18  F1  UNL     1      28.433   5.986  48.088  1.00  0.00    -0.381 F 
ENDBRANCH  14  15
ENDBRANCH   1  13
BRANCH   7  19
HETATM   19  O3  UNL     1      22.266   0.718  52.877  1.00  0.00    -0.350 OA
BRANCH  19  20
HETATM   20  C11 UNL     1      21.868  -0.586  53.173  1.00  0.00     0.201 C 
BRANCH  20  21
HETATM   21  C12 UNL     1      21.370  -0.596  54.650  1.00  0.00     0.193 C 
BRANCH  21  22
HETATM   22  O4  UNL     1      21.976  -1.693  55.221  1.00  0.00    -0.394 OA
HETATM   23  C13 UNL     1      23.328  -1.453  55.516  1.00  0.00     0.201 C 
ENDBRANCH  21  22
ENDBRANCH  20  21
ENDBRANCH  19  20
ENDBRANCH   7  19
TORSDOF 6
ENDMDL
MODEL 5
REMARK VINA RESULT:      -6.3      3.914      7.055
REMARK  6 active torsions:
REMARK  status: ('A' for Active; 'I' for Inactive)
REMARK    1  A    between atoms: C3_3  and  C4_5 
REMARK    2  A    between atoms: C5_6  and  C6_7 
REMARK    3  A    between atoms: C10_13  and  O3_14 
REMARK    4  A    between atoms: O3_14  and  C11_15 
REMARK    5  A    between atoms: C11_15  and  C12_16 
REMARK    6  A    between atoms: C12_16  and  O4_17 
ROOT
HETATM    1  C6  UNL     1      21.392  -0.133  52.636  1.00  0.00     0.089 C 
HETATM    2  C7  UNL     1      22.496  -0.569  53.194  1.00  0.00     0.113 C 
HETATM    3  O1  UNL     1      22.228  -1.604  54.147  1.00  0.00    -0.325 OA
HETATM    4  C8  UNL     1      22.985  -1.174  55.329  1.00  0.00     0.346 C 
HETATM    5  O2  UNL     1      24.229  -0.879  54.731  1.00  0.00    -0.348 OA
HETATM    6  C9  UNL     1      23.966  -0.579  53.390  1.00  0.00     0.239 C 
HETATM    7  C10 UNL     1      24.628   0.526  52.820  1.00  0.00     0.083 C 
HETATM    8  C14 UNL     1      25.212   1.650  52.259  1.00  0.00     0.048 C 
HETATM    9  C15 UNL     1      24.368   2.843  51.997  1.00  0.00     0.219 C 
HETATM   10  N1  UNL     1      23.091   3.149  52.118  1.00  0.00    -0.278 NA
HETATM   11  C16 UNL     1      22.277   2.047  52.638  1.00  0.00     0.173 C 
HETATM   12  N2  UNL     1      22.236   0.876  52.011  1.00  0.00    -0.248 NA
ENDROOT
BRANCH   1  13
HETATM   13  C5  UNL     1      20.058  -0.106  52.419  1.00  0.00     0.033 C 
HETATM   14  C4  UNL     1      19.373   0.184  51.230  1.00  0.00     0.021 C 
BRANCH  14  15
HETATM   15  C3  UNL     1      17.967   0.109  51.360  1.00  0.00     0.149 A 
HETATM   16  C2  UNL     1      17.393   0.064  50.076  1.00  0.00     0.169 A 
HETATM   17  C1  UNL     1      15.973  -0.122  50.593  1.00  0.00     0.045 C 
HETATM   18  F1  UNL     1      16.931   0.006  50.509  1.00  0.00    -0.381 F 
ENDBRANCH  14  15
ENDBRANCH   1  13
BRANCH   7  19
HETATM   19  O3  UNL     1      25.884   0.029  52.722  1.00  0.00    -0.350 OA
BRANCH  19  20
HETATM   20  C11 UNL     1      27.122   0.597  53.024  1.00  0.00     0.201 C 
BRANCH  20  21
HETATM   21  C12 UNL     1      27.555   0.052  54.418  1.00  0.00     0.193 C 
BRANCH  21  22
HETATM   22  O4  UNL     1      28.505   0.942  54.868  1.00  0.00    -0.394 OA
HETATM   23  C13 UNL     1      28.878   1.860  53.873  1.00  0.00     0.201 C 
ENDBRANCH  21  22
ENDBRANCH  20  21
ENDBRANCH  19  20
ENDBRANCH   7  19
TORSDOF 6
ENDMDL
MODEL 6
REMARK VINA RESULT:      -6.3      1.811      2.436
REMARK  6 active torsions:
REMARK  status: ('A' for Active; 'I' for Inactive)
REMARK    1  A    between atoms: C3_3  and  C4_5 
REMARK    2  A    between atoms: C5_6  and  C6_7 
REMARK    3  A    between atoms: C10_13  and  O3_14 
REMARK    4  A    between atoms: O3_14  and  C11_15 
REMARK    5  A    between atoms: C11_15  and  C12_16 
REMARK    6  A    between atoms: C12_16  and  O4_17 
ROOT
HETATM    1  C6  UNL     1      24.341   2.701  50.817  1.00  0.00     0.089 C 
HETATM    2  C7  UNL     1      23.084   2.810  51.176  1.00  0.00     0.113 C 
HETATM    3  O1  UNL     1      22.569   4.115  50.893  1.00  0.00    -0.325 OA
HETATM    4  C8  UNL     1      21.920   4.499  52.153  1.00  0.00     0.346 C 
HETATM    5  O2  UNL     1      21.168   3.333  52.409  1.00  0.00    -0.348 OA
HETATM    6  C9  UNL     1      21.820   2.285  51.750  1.00  0.00     0.239 C 
HETATM    7  C10 UNL     1      21.966   1.064  52.437  1.00  0.00     0.083 C 
HETATM    8  C14 UNL     1      22.184  -0.122  53.119  1.00  0.00     0.048 C 
HETATM    9  C15 UNL     1      23.558  -0.444  53.578  1.00  0.00     0.219 C 
HETATM   10  N1  UNL     1      24.750   0.112  53.473  1.00  0.00    -0.278 NA
HETATM   11  C16 UNL     1      24.742   1.363  52.710  1.00  0.00     0.173 C 
HETATM   12  N2  UNL     1      24.296   1.395  51.459  1.00  0.00    -0.248 NA
ENDROOT
BRANCH   1  13
HETATM   13  C5  UNL     1      25.505   3.139  50.288  1.00  0.00     0.033 C 
HETATM   14  C4  UNL     1      25.712   4.200  49.395  1.00  0.00     0.021 C 
BRANCH  14  15
HETATM   15  C3  UNL     1      27.071   4.389  49.054  1.00  0.00     0.149 A 
HETATM   16  C2  UNL     1      27.233   5.685  48.529  1.00  0.00     0.169 A 
HETATM   17  C1  UNL     1      28.745   5.567  48.400  1.00  0.00     0.045 C 
HETATM   18  F1  UNL     1      27.802   5.405  48.564  1.00  0.00    -0.381 F 
ENDBRANCH  14  15
ENDBRANCH   1  13
BRANCH   7  19
HETATM   19  O3  UNL     1      20.687   0.619  52.407  1.00  0.00    -0.350 OA
BRANCH  19  20
HETATM   20  C11 UNL     1      19.826   0.373  51.338  1.00  0.00     0.201 C 
BRANCH  20  21
HETATM   21  C12 UNL     1      18.450  -0.050  51.936  1.00  0.00     0.193 C 
BRANCH  21  22
HETATM   22  O4  UNL     1      18.761  -0.774  53.066  1.00  0.00    -0.394 OA
HETATM   23  C13 UNL     1      17.757  -1.699  53.390  1.00  0.00     0.201 C 
ENDBRANCH  21  22
ENDBRANCH  20  21
ENDBRANCH  19  20
ENDBRANCH   7  19
TORSDOF 6
ENDMDL
MODEL 7
REMARK VINA RESULT:      -6.2      3.285      6.326
REMARK  6 active torsions:
REMARK  status: ('A' for Active; 'I' for Inactive)
REMARK    1  A    between atoms: C3_3  and  C4_5 
REMARK    2  A    between atoms: C5_6  and  C6_7 
REMARK    3  A    between atoms: C10_13  and  O3_14 
REMARK    4  A    between atoms: O3_14  and  C11_15 
REMARK    5  A    between atoms: C11_15  and  C12_16 
REMARK    6  A    between atoms: C12_16  and  O4_17 
ROOT
HETATM    1  C6  UNL     1      25.856   1.999  51.473  1.00  0.00     0.089 C 
HETATM    2  C7  UNL     1      24.731   2.661  51.346  1.00  0.00     0.113 C 
HETATM    3  O1  UNL     1      23.602   1.840  51.664  1.00  0.00    -0.325 OA
HETATM    4  C8  UNL     1      22.697   2.063  50.529  1.00  0.00     0.346 C 
HETATM    5  O2  UNL     1      22.724   3.472  50.464  1.00  0.00    -0.348 OA
HETATM    6  C9  UNL     1      23.937   3.874  51.035  1.00  0.00     0.239 C 
HETATM    7  C10 UNL     1      24.668   4.887  50.385  1.00  0.00     0.083 C 
HETATM    8  C14 UNL     1      25.438   5.831  49.725  1.00  0.00     0.048 C 
HETATM    9  C15 UNL     1      26.677   5.392  49.036  1.00  0.00     0.219 C 
HETATM   10  N1  UNL     1      27.337   4.257  48.898  1.00  0.00    -0.278 NA
HETATM   11  C16 UNL     1      26.710   3.132  49.597  1.00  0.00     0.173 C 
HETATM   12  N2  UNL     1      26.489   3.181  50.906  1.00  0.00    -0.248 NA
ENDROOT
BRANCH   1  13
HETATM   13  C5  UNL     1      26.614   0.918  51.762  1.00  0.00     0.033 C 
HETATM   14  C4  UNL     1      27.133   0.522  53.003  1.00  0.00     0.021 C 
BRANCH  14  15
HETATM   15  C3  UNL     1      27.878  -0.677  52.944  1.00  0.00     0.149 A 
HETATM   16  C2  UNL     1      29.098  -0.490  53.620  1.00  0.00     0.169 A 
HETATM   17  C1  UNL     1      29.543  -1.936  53.456  1.00  0.00     0.045 C 
HETATM   18  F1  UNL     1      29.061  -1.094  53.428  1.00  0.00    -0.381 F 
ENDBRANCH  14  15
ENDBRANCH   1  13
BRANCH   7  19
HETATM   19  O3  UNL     1      23.892   5.961  50.667  1.00  0.00    -0.350 OA
BRANCH  19  20
HETATM   20  C11 UNL     1      23.418   6.990  49.852  1.00  0.00     0.201 C 
BRANCH  20  21
HETATM   21  C12 UNL     1      22.145   7.576  50.535  1.00  0.00     0.193 C 
BRANCH  21  22
HETATM   22  O4  UNL     1      21.409   6.477  50.917  1.00  0.00    -0.394 OA
HETATM   23  C13 UNL     1      20.434   6.141  49.964  1.00  0.00     0.201 C 
ENDBRANCH  21  22
ENDBRANCH  20  21
ENDBRANCH  19  20
ENDBRANCH   7  19
TORSDOF 6
ENDMDL
MODEL 8
REMARK VINA RESULT:      -6.1      3.844      6.230
REMARK  6 active torsions:
REMARK  status: ('A' for Active; 'I' for Inactive)
REMARK    1  A    between atoms: C3_3  and  C4_5 
REMARK    2  A    between atoms: C5_6  and  C6_7 
REMARK    3  A    between atoms: C10_13  and  O3_14 
REMARK    4  A    between atoms: O3_14  and  C11_15 
REMARK    5  A    between atoms: C11_15  and  C12_16 
REMARK    6  A    between atoms: C12_16  and  O4_17 
ROOT
HETATM    1  C6  UNL     1      22.874   1.733  52.757  1.00  0.00     0.089 C 
HETATM    2  C7  UNL     1      21.567   1.641  52.801  1.00  0.00     0.113 C 
HETATM    3  O1  UNL     1      21.147   0.429  53.437  1.00  0.00    -0.325 OA
HETATM    4  C8  UNL     1      20.153  -0.112  52.503  1.00  0.00     0.346 C 
HETATM    5  O2  UNL     1      19.368   1.039  52.282  1.00  0.00    -0.348 OA
HETATM    6  C9  UNL     1      20.194   2.139  52.537  1.00  0.00     0.239 C 
HETATM    7  C10 UNL     1      20.141   3.225  51.641  1.00  0.00     0.083 C 
HETATM    8  C14 UNL     1      20.158   4.273  50.735  1.00  0.00     0.048 C 
HETATM    9  C15 UNL     1      21.338   4.438  49.850  1.00  0.00     0.219 C 
HETATM   10  N1  UNL     1      22.504   3.839  49.698  1.00  0.00    -0.278 NA
HETATM   11  C16 UNL     1      22.711   2.728  50.631  1.00  0.00     0.173 C 
HETATM   12  N2  UNL     1      22.654   2.921  51.944  1.00  0.00    -0.248 NA
ENDROOT
BRANCH   1  13
HETATM   13  C5  UNL     1      24.139   1.319  52.993  1.00  0.00     0.033 C 
HETATM   14  C4  UNL     1      24.622   0.007  53.094  1.00  0.00     0.021 C 
BRANCH  14  15
HETATM   15  C3  UNL     1      26.014  -0.062  53.337  1.00  0.00     0.149 A 
HETATM   16  C2  UNL     1      26.517  -1.250  52.775  1.00  0.00     0.169 A 
HETATM   17  C1  UNL     1      27.966  -0.931  53.113  1.00  0.00     0.045 C 
HETATM   18  F1  UNL     1      27.001  -0.916  53.016  1.00  0.00    -0.381 F 
ENDBRANCH  14  15
ENDBRANCH   1  13
BRANCH   7  19
HETATM   19  O3  UNL     1      18.932   3.742  51.964  1.00  0.00    -0.350 OA
BRANCH  19  20
HETATM   20  C11 UNL     1      17.844   4.099  51.166  1.00  0.00     0.201 C 
BRANCH  20  21
HETATM   21  C12 UNL     1      16.566   3.502  51.829  1.00  0.00     0.193 C 
BRANCH  21  22
HETATM   22  O4  UNL     1      16.192   4.428  52.778  1.00  0.00    -0.394 OA
HETATM   23  C13 UNL     1      14.921   4.155  53.307  1.00  0.00     0.201 C 
ENDBRANCH  21  22
ENDBRANCH  20  21
ENDBRANCH  19  20
ENDBRANCH   7  19
TORSDOF 6
ENDMDL
MODEL 9
REMARK VINA RESULT:      -6.0      3.565      5.414
REMARK  6 active torsions:
REMARK  status: ('A' for Active; 'I' for Inactive)
REMARK    1  A    between atoms: C3_3  and  C4_5 
REMARK    2  A    between atoms: C5_6  and  C6_7 
REMARK    3  A    between atoms: C10_13  and  O3_14 
REMARK    4  A    between atoms: O3_14  and  C11_15 
REMARK    5  A    between atoms: C11_15  and  C12_16 
REMARK    6  A    between atoms: C12_16  and  O4_17 
ROOT
HETATM    1  C6  UNL     1      22.920   1.385  53.012  1.00  0.00     0.089 C 
HETATM    2  C7  UNL     1      21.899   0.632  53.346  1.00  0.00     0.113 C 
HETATM    3  O1  UNL     1      22.196  -0.177  54.489  1.00  0.00    -0.325 OA
HETATM    4  C8  UNL     1      21.767  -1.517  54.071  1.00  0.00     0.346 C 
HETATM    5  O2  UNL     1      20.486  -1.218  53.560  1.00  0.00    -0.348 OA
HETATM    6  C9  UNL     1      20.514   0.127  53.177  1.00  0.00     0.239 C 
HETATM    7  C10 UNL     1      19.924   0.475  51.946  1.00  0.00     0.083 C 
HETATM    8  C14 UNL     1      19.412   0.829  50.708  1.00  0.00     0.048 C 
HETATM    9  C15 UNL     1      20.354   1.192  49.620  1.00  0.00     0.219 C 
HETATM   10  N1  UNL     1      21.661   1.327  49.499  1.00  0.00    -0.278 NA
HETATM   11  C16 UNL     1      22.389   1.061  50.743  1.00  0.00     0.173 C 
HETATM   12  N2  UNL     1      22.127   1.752  51.847  1.00  0.00    -0.248 NA
ENDROOT
BRANCH   1  13
HETATM   13  C5  UNL     1      24.171   1.878  53.143  1.00  0.00     0.033 C 
HETATM   14  C4  UNL     1      25.360   1.182  53.404  1.00  0.00     0.021 C 
BRANCH  14  15
HETATM   15  C3  UNL     1      26.498   2.019  53.464  1.00  0.00     0.149 A 
HETATM   16  C2  UNL     1      27.638   1.223  53.685  1.00  0.00     0.169 A 
HETATM   17  C1  UNL     1      28.613   2.387  53.577  1.00  0.00     0.045 C 
HETATM   18  F1  UNL     1      27.821   1.827  53.611  1.00  0.00    -0.381 F 
ENDBRANCH  14  15
ENDBRANCH   1  13
BRANCH   7  19
HETATM   19  O3  UNL     1      18.614   0.334  52.261  1.00  0.00    -0.350 OA
BRANCH  19  20
HETATM   20  C11 UNL     1      17.602  -0.416  51.661  1.00  0.00     0.201 C 
BRANCH  20  21
HETATM   21  C12 UNL     1      16.952  -1.295  52.773  1.00  0.00     0.193 C 
BRANCH  21  22
HETATM   22  O4  UNL     1      15.596  -1.194  52.559  1.00  0.00    -0.394 OA
HETATM   23  C13 UNL     1      15.114   0.094  52.842  1.00  0.00     0.201 C 
ENDBRANCH  21  22
ENDBRANCH  20  21
ENDBRANCH  19  20
ENDBRANCH   7  19
TORSDOF 6
ENDMDL
