MODEL 1
REMARK VINA RESULT:      -8.4      0.000      0.000
REMARK  6 active torsions:
REMARK  status: ('A' for Active; 'I' for Inactive)
REMARK    1  A    between atoms: C5_5  and  C6_6 
REMARK    2  A    between atoms: C6_6  and  O1_7 
REMARK    3  A    between atoms: O1_7  and  C7_8 
REMARK    4  A    between atoms: C7_8  and  C8_9 
REMARK    5  A    between atoms: C9_11  and  C10_12 
REMARK    6  A    between atoms: C15_19  and  N3_20 
REMARK       I    between atoms: N3_20  and  C16_21 
REMARK       I    between atoms: C16_21  and  N4_22 
ROOT
HETATM    1  C10 UNL     1      26.050   2.879  50.779  1.00  0.00     0.051 A 
HETATM    2  N1  UNL     1      26.951   3.231  49.942  1.00  0.00    -0.245 NA
HETATM    3  C11 UNL     1      26.918   4.415  49.178  1.00  0.00     0.233 A 
HETATM    4  N2  UNL     1      25.910   5.231  49.311  1.00  0.00    -0.246 NA
HETATM    5  C12 UNL     1      24.840   4.941  50.215  1.00  0.00     0.046 A 
HETATM    6  C13 UNL     1      23.768   5.688  50.425  1.00  0.00     0.007 C 
HETATM    7  C14 UNL     1      22.795   5.134  51.439  1.00  0.00     0.086 C 
HETATM    8  C15 UNL     1      22.513   3.770  50.924  1.00  0.00     0.014 C 
HETATM    9  C17 UNL     1      23.574   3.015  50.717  1.00  0.00     0.016 C 
HETATM   10  C18 UNL     1      24.863   3.681  51.042  1.00  0.00     0.114 A 
ENDROOT
BRANCH   1  11
HETATM   11  C9  UNL     1      26.297   1.612  51.454  1.00  0.00     0.050 C 
HETATM   12  C8  UNL     1      27.095   1.301  52.487  1.00  0.00     0.037 C 
HETATM   13 CL1  UNL     1      28.184   2.350  53.413  1.00  0.00    -0.087 Cl
BRANCH  12  14
HETATM   14  C7  UNL     1      27.271  -0.051  53.105  1.00  0.00     0.219 C 
BRANCH  14  15
HETATM   15  O1  UNL     1      26.020  -0.672  53.125  1.00  0.00    -0.381 OA
BRANCH  15  16
HETATM   16  C6  UNL     1      25.376  -0.584  54.330  1.00  0.00     0.206 C 
BRANCH  16  17
HETATM   17  C5  UNL     1      23.918  -0.573  54.097  1.00  0.00    -0.035 A 
HETATM   18  C4  UNL     1      23.410   0.061  52.975  1.00  0.00     0.010 A 
HETATM   19  C3  UNL     1      22.083   0.165  52.615  1.00  0.00     0.007 A 
HETATM   20  C2  UNL     1      21.180  -0.429  53.467  1.00  0.00    -0.062 A 
HETATM   21  C1  UNL     1      19.729  -0.369  53.161  1.00  0.00     0.048 C 
HETATM   22  C20 UNL     1      21.606  -1.074  54.594  1.00  0.00     0.007 A 
HETATM   23  C19 UNL     1      22.938  -1.151  54.910  1.00  0.00     0.010 A 
ENDBRANCH  16  17
ENDBRANCH  15  16
ENDBRANCH  14  15
ENDBRANCH  12  14
ENDBRANCH   1  11
BRANCH   8  24
HETATM   24  N3  UNL     1      21.160   3.417  50.711  1.00  0.00    -0.313 N 
HETATM   25  C16 UNL     1      20.116   3.175  51.639  1.00  0.00     0.318 C 
HETATM   26  N4  UNL     1      18.782   2.823  51.297  1.00  0.00    -0.352 N 
HETATM   27  O2  UNL     1      20.340   3.268  52.861  1.00  0.00    -0.247 OA
HETATM   28  H16 UNL     1      18.222   2.148  51.866  1.00  0.00     0.160 HD
HETATM   29  H17 UNL     1      18.420   3.297  50.435  1.00  0.00     0.160 HD
HETATM   30  H15 UNL     1      20.801   3.297  49.735  1.00  0.00     0.170 HD
ENDBRANCH   8  24
TORSDOF 6
ENDMDL
MODEL 2
REMARK VINA RESULT:      -8.4      2.917      7.955
REMARK  6 active torsions:
REMARK  status: ('A' for Active; 'I' for Inactive)
REMARK    1  A    between atoms: C5_5  and  C6_6 
REMARK    2  A    between atoms: C6_6  and  O1_7 
REMARK    3  A    between atoms: O1_7  and  C7_8 
REMARK    4  A    between atoms: C7_8  and  C8_9 
REMARK    5  A    between atoms: C9_11  and  C10_12 
REMARK    6  A    between atoms: C15_19  and  N3_20 
REMARK       I    between atoms: N3_20  and  C16_21 
REMARK       I    between atoms: C16_21  and  N4_22 
ROOT
HETATM    1  C10 UNL     1      22.367   0.105  52.933  1.00  0.00     0.051 A 
HETATM    2  N1  UNL     1      21.274  -0.536  53.107  1.00  0.00    -0.245 NA
HETATM    3  C11 UNL     1      21.047  -1.470  54.138  1.00  0.00     0.233 A 
HETATM    4  N2  UNL     1      22.001  -1.721  54.991  1.00  0.00    -0.246 NA
HETATM    5  C12 UNL     1      23.269  -1.068  54.895  1.00  0.00     0.046 A 
HETATM    6  C13 UNL     1      24.307  -1.249  55.695  1.00  0.00     0.007 C 
HETATM    7  C14 UNL     1      25.525  -0.424  55.355  1.00  0.00     0.086 C 
HETATM    8  C15 UNL     1      25.772  -0.758  53.929  1.00  0.00     0.014 C 
HETATM    9  C17 UNL     1      24.746  -0.576  53.122  1.00  0.00     0.016 C 
HETATM   10  C18 UNL     1      23.526  -0.063  53.800  1.00  0.00     0.114 A 
ENDROOT
BRANCH   1  11
HETATM   11  C9  UNL     1      22.372   1.019  51.799  1.00  0.00     0.050 C 
HETATM   12  C8  UNL     1      22.938   2.224  51.636  1.00  0.00     0.037 C 
HETATM   13 CL1  UNL     1      23.895   3.173  52.789  1.00  0.00    -0.087 Cl
BRANCH  12  14
HETATM   14  C7  UNL     1      22.877   3.084  50.413  1.00  0.00     0.219 C 
BRANCH  14  15
HETATM   15  O1  UNL     1      23.530   4.283  50.706  1.00  0.00    -0.381 OA
BRANCH  15  16
HETATM   16  C6  UNL     1      23.672   5.115  49.628  1.00  0.00     0.206 C 
BRANCH  16  17
HETATM   17  C5  UNL     1      25.101   5.185  49.259  1.00  0.00    -0.035 A 
HETATM   18  C4  UNL     1      25.608   6.348  48.703  1.00  0.00     0.010 A 
HETATM   19  C3  UNL     1      26.907   6.575  48.303  1.00  0.00     0.007 A 
HETATM   20  C2  UNL     1      27.782   5.527  48.481  1.00  0.00    -0.062 A 
HETATM   21  C1  UNL     1      29.203   5.678  48.080  1.00  0.00     0.048 C 
HETATM   22  C20 UNL     1      27.356   4.348  49.024  1.00  0.00     0.007 A 
HETATM   23  C19 UNL     1      26.052   4.171  49.408  1.00  0.00     0.010 A 
ENDBRANCH  16  17
ENDBRANCH  15  16
ENDBRANCH  14  15
ENDBRANCH  12  14
ENDBRANCH   1  11
BRANCH   8  24
HETATM   24  N3  UNL     1      27.058  -1.231  53.580  1.00  0.00    -0.313 N 
HETATM   25  C16 UNL     1      28.305  -0.558  53.540  1.00  0.00     0.318 C 
HETATM   26  N4  UNL     1      29.543  -1.149  53.167  1.00  0.00    -0.352 N 
HETATM   27  O2  UNL     1      28.368   0.648  53.846  1.00  0.00    -0.247 OA
HETATM   28  H16 UNL     1      30.267  -0.627  52.622  1.00  0.00     0.160 HD
HETATM   29  H17 UNL     1      29.659  -2.140  53.487  1.00  0.00     0.160 HD
HETATM   30  H15 UNL     1      27.186  -2.230  53.295  1.00  0.00     0.170 HD
ENDBRANCH   8  24
TORSDOF 6
ENDMDL
MODEL 3
REMARK VINA RESULT:      -8.0      3.245      8.313
REMARK  6 active torsions:
REMARK  status: ('A' for Active; 'I' for Inactive)
REMARK    1  A    between atoms: C5_5  and  C6_6 
REMARK    2  A    between atoms: C6_6  and  O1_7 
REMARK    3  A    between atoms: O1_7  and  C7_8 
REMARK    4  A    between atoms: C7_8  and  C8_9 
REMARK    5  A    between atoms: C9_11  and  C10_12 
REMARK    6  A    between atoms: C15_19  and  N3_20 
REMARK       I    between atoms: N3_20  and  C16_21 
REMARK       I    between atoms: C16_21  and  N4_22 
ROOT
HETATM    1  C10 UNL     1      23.648   1.639  52.133  1.00  0.00     0.051 A 
HETATM    2  N1  UNL     1      22.513   1.243  51.695  1.00  0.00    -0.245 NA
HETATM    3  C11 UNL     1      21.843   0.085  52.138  1.00  0.00     0.233 A 
HETATM    4  N2  UNL     1      22.393  -0.657  53.058  1.00  0.00    -0.246 NA
HETATM    5  C12 UNL     1      23.664  -0.316  53.620  1.00  0.00     0.046 A 
HETATM    6  C13 UNL     1      24.318  -0.995  54.548  1.00  0.00     0.007 C 
HETATM    7  C14 UNL     1      25.646  -0.402  54.954  1.00  0.00     0.086 C 
HETATM    8  C15 UNL     1      26.363  -0.264  53.660  1.00  0.00     0.014 C 
HETATM    9  C17 UNL     1      25.723   0.416  52.731  1.00  0.00     0.016 C 
HETATM   10  C18 UNL     1      24.391   0.922  53.159  1.00  0.00     0.114 A 
ENDROOT
BRANCH   1  11
HETATM   11  C9  UNL     1      24.148   2.866  51.526  1.00  0.00     0.050 C 
HETATM   12  C8  UNL     1      23.739   4.139  51.637  1.00  0.00     0.037 C 
HETATM   13 CL1  UNL     1      22.386   4.798  52.575  1.00  0.00    -0.087 Cl
BRANCH  12  14
HETATM   14  C7  UNL     1      24.335   5.333  50.960  1.00  0.00     0.219 C 
BRANCH  14  15
HETATM   15  O1  UNL     1      25.395   4.883  50.170  1.00  0.00    -0.381 OA
BRANCH  15  16
HETATM   16  C6  UNL     1      25.403   5.406  48.904  1.00  0.00     0.206 C 
BRANCH  16  17
HETATM   17  C5  UNL     1      26.788   5.767  48.541  1.00  0.00    -0.035 A 
HETATM   18  C4  UNL     1      27.069   7.053  48.108  1.00  0.00     0.010 A 
HETATM   19  C3  UNL     1      28.299   7.548  47.732  1.00  0.00     0.007 A 
HETATM   20  C2  UNL     1      29.350   6.661  47.797  1.00  0.00    -0.062 A 
HETATM   21  C1  UNL     1      30.713   7.105  47.412  1.00  0.00     0.048 C 
HETATM   22  C20 UNL     1      29.152   5.376  48.216  1.00  0.00     0.007 A 
HETATM   23  C19 UNL     1      27.908   4.930  48.581  1.00  0.00     0.010 A 
ENDBRANCH  16  17
ENDBRANCH  15  16
ENDBRANCH  14  15
ENDBRANCH  12  14
ENDBRANCH   1  11
BRANCH   8  24
HETATM   24  N3  UNL     1      27.640  -0.863  53.552  1.00  0.00    -0.313 N 
HETATM   25  C16 UNL     1      28.908  -0.410  53.996  1.00  0.00     0.318 C 
HETATM   26  N4  UNL     1      30.133  -1.111  53.825  1.00  0.00    -0.352 N 
HETATM   27  O2  UNL     1      29.004   0.683  54.586  1.00  0.00    -0.247 OA
HETATM   28  H16 UNL     1      31.033  -0.617  53.625  1.00  0.00     0.160 HD
HETATM   29  H17 UNL     1      30.049  -2.151  53.918  1.00  0.00     0.160 HD
HETATM   30  H15 UNL     1      27.741  -1.791  53.080  1.00  0.00     0.170 HD
ENDBRANCH   8  24
TORSDOF 6
ENDMDL
MODEL 4
REMARK VINA RESULT:      -7.8      2.351      4.964
REMARK  6 active torsions:
REMARK  status: ('A' for Active; 'I' for Inactive)
REMARK    1  A    between atoms: C5_5  and  C6_6 
REMARK    2  A    between atoms: C6_6  and  O1_7 
REMARK    3  A    between atoms: O1_7  and  C7_8 
REMARK    4  A    between atoms: C7_8  and  C8_9 
REMARK    5  A    between atoms: C9_11  and  C10_12 
REMARK    6  A    between atoms: C15_19  and  N3_20 
REMARK       I    between atoms: N3_20  and  C16_21 
REMARK       I    between atoms: C16_21  and  N4_22 
ROOT
HETATM    1  C10 UNL     1      22.732   3.931  49.887  1.00  0.00     0.051 A 
HETATM    2  N1  UNL     1      22.478   5.050  49.322  1.00  0.00    -0.245 NA
HETATM    3  C11 UNL     1      23.453   5.921  48.796  1.00  0.00     0.233 A 
HETATM    4  N2  UNL     1      24.712   5.592  48.876  1.00  0.00    -0.246 NA
HETATM    5  C12 UNL     1      25.117   4.365  49.490  1.00  0.00     0.046 A 
HETATM    6  C13 UNL     1      26.359   3.933  49.634  1.00  0.00     0.007 C 
HETATM    7  C14 UNL     1      26.493   2.598  50.326  1.00  0.00     0.086 C 
HETATM    8  C15 UNL     1      25.753   2.802  51.598  1.00  0.00     0.014 C 
HETATM    9  C17 UNL     1      24.512   3.226  51.466  1.00  0.00     0.016 C 
HETATM   10  C18 UNL     1      24.086   3.421  50.054  1.00  0.00     0.114 A 
ENDROOT
BRANCH   1  11
HETATM   11  C9  UNL     1      21.562   3.199  50.356  1.00  0.00     0.050 C 
HETATM   12  C8  UNL     1      21.020   2.043  49.946  1.00  0.00     0.037 C 
HETATM   13 CL1  UNL     1      21.537   0.971  48.632  1.00  0.00    -0.087 Cl
BRANCH  12  14
HETATM   14  C7  UNL     1      19.803   1.377  50.509  1.00  0.00     0.219 C 
BRANCH  14  15
HETATM   15  O1  UNL     1      20.224   0.228  51.182  1.00  0.00    -0.381 OA
BRANCH  15  16
HETATM   16  C6  UNL     1      19.971   0.249  52.527  1.00  0.00     0.206 C 
BRANCH  16  17
HETATM   17  C5  UNL     1      21.199  -0.131  53.254  1.00  0.00    -0.035 A 
HETATM   18  C4  UNL     1      22.429   0.316  52.799  1.00  0.00     0.010 A 
HETATM   19  C3  UNL     1      23.662   0.051  53.356  1.00  0.00     0.007 A 
HETATM   20  C2  UNL     1      23.656  -0.740  54.482  1.00  0.00    -0.062 A 
HETATM   21  C1  UNL     1      24.937  -1.078  55.152  1.00  0.00     0.048 C 
HETATM   22  C20 UNL     1      22.482  -1.218  54.991  1.00  0.00     0.007 A 
HETATM   23  C19 UNL     1      21.279  -0.927  54.401  1.00  0.00     0.010 A 
ENDBRANCH  16  17
ENDBRANCH  15  16
ENDBRANCH  14  15
ENDBRANCH  12  14
ENDBRANCH   1  11
BRANCH   8  24
HETATM   24  N3  UNL     1      26.436   2.526  52.805  1.00  0.00    -0.313 N 
HETATM   25  C16 UNL     1      27.073   1.340  53.250  1.00  0.00     0.318 C 
HETATM   26  N4  UNL     1      27.733   1.185  54.499  1.00  0.00    -0.352 N 
HETATM   27  O2  UNL     1      27.079   0.330  52.522  1.00  0.00    -0.247 OA
HETATM   28  H16 UNL     1      27.694   0.292  55.042  1.00  0.00     0.160 HD
HETATM   29  H17 UNL     1      28.253   2.037  54.819  1.00  0.00     0.160 HD
HETATM   30  H15 UNL     1      26.524   3.271  53.535  1.00  0.00     0.170 HD
ENDBRANCH   8  24
TORSDOF 6
ENDMDL
MODEL 5
REMARK VINA RESULT:      -7.7      3.372      8.432
REMARK  6 active torsions:
REMARK  status: ('A' for Active; 'I' for Inactive)
REMARK    1  A    between atoms: C5_5  and  C6_6 
REMARK    2  A    between atoms: C6_6  and  O1_7 
REMARK    3  A    between atoms: O1_7  and  C7_8 
REMARK    4  A    between atoms: C7_8  and  C8_9 
REMARK    5  A    between atoms: C9_11  and  C10_12 
REMARK    6  A    between atoms: C15_19  and  N3_20 
REMARK       I    between atoms: N3_20  and  C16_21 
REMARK       I    between atoms: C16_21  and  N4_22 
ROOT
HETATM    1  C10 UNL     1      23.619   1.822  52.193  1.00  0.00     0.051 A 
HETATM    2  N1  UNL     1      22.499   1.458  51.695  1.00  0.00    -0.245 NA
HETATM    3  C11 UNL     1      21.830   0.260  52.016  1.00  0.00     0.233 A 
HETATM    4  N2  UNL     1      22.366  -0.557  52.879  1.00  0.00    -0.246 NA
HETATM    5  C12 UNL     1      23.619  -0.258  53.500  1.00  0.00     0.046 A 
HETATM    6  C13 UNL     1      24.258  -1.013  54.379  1.00  0.00     0.007 C 
HETATM    7  C14 UNL     1      25.570  -0.448  54.869  1.00  0.00     0.086 C 
HETATM    8  C15 UNL     1      26.316  -0.188  53.612  1.00  0.00     0.014 C 
HETATM    9  C17 UNL     1      25.691   0.567  52.731  1.00  0.00     0.016 C 
HETATM   10  C18 UNL     1      24.345   1.022  53.170  1.00  0.00     0.114 A 
ENDROOT
BRANCH   1  11
HETATM   11  C9  UNL     1      24.121   3.103  51.711  1.00  0.00     0.050 C 
HETATM   12  C8  UNL     1      24.109   3.654  50.489  1.00  0.00     0.037 C 
HETATM   13 CL1  UNL     1      23.476   2.990  48.971  1.00  0.00    -0.087 Cl
BRANCH  12  14
HETATM   14  C7  UNL     1      24.660   4.991  50.105  1.00  0.00     0.219 C 
BRANCH  14  15
HETATM   15  O1  UNL     1      25.458   4.810  48.973  1.00  0.00    -0.381 OA
BRANCH  15  16
HETATM   16  C6  UNL     1      26.758   4.486  49.258  1.00  0.00     0.206 C 
BRANCH  16  17
HETATM   17  C5  UNL     1      27.652   5.435  48.565  1.00  0.00    -0.035 A 
HETATM   18  C4  UNL     1      27.139   6.624  48.074  1.00  0.00     0.010 A 
HETATM   19  C3  UNL     1      27.834   7.610  47.405  1.00  0.00     0.007 A 
HETATM   20  C2  UNL     1      29.176   7.375  47.213  1.00  0.00    -0.062 A 
HETATM   21  C1  UNL     1      30.006   8.381  46.503  1.00  0.00     0.048 C 
HETATM   22  C20 UNL     1      29.754   6.225  47.670  1.00  0.00     0.007 A 
HETATM   23  C19 UNL     1      29.022   5.273  48.331  1.00  0.00     0.010 A 
ENDBRANCH  16  17
ENDBRANCH  15  16
ENDBRANCH  14  15
ENDBRANCH  12  14
ENDBRANCH   1  11
BRANCH   8  24
HETATM   24  N3  UNL     1      27.601  -0.765  53.482  1.00  0.00    -0.313 N 
HETATM   25  C16 UNL     1      28.856  -0.339  53.986  1.00  0.00     0.318 C 
HETATM   26  N4  UNL     1      30.091  -1.012  53.785  1.00  0.00    -0.352 N 
HETATM   27  O2  UNL     1      28.928   0.704  54.664  1.00  0.00    -0.247 OA
HETATM   28  H16 UNL     1      30.989  -0.496  53.643  1.00  0.00     0.160 HD
HETATM   29  H17 UNL     1      30.016  -2.057  53.792  1.00  0.00     0.160 HD
HETATM   30  H15 UNL     1      27.721  -1.651  52.938  1.00  0.00     0.170 HD
ENDBRANCH   8  24
TORSDOF 6
ENDMDL
MODEL 6
REMARK VINA RESULT:      -7.6      3.408      6.191
REMARK  6 active torsions:
REMARK  status: ('A' for Active; 'I' for Inactive)
REMARK    1  A    between atoms: C5_5  and  C6_6 
REMARK    2  A    between atoms: C6_6  and  O1_7 
REMARK    3  A    between atoms: O1_7  and  C7_8 
REMARK    4  A    between atoms: C7_8  and  C8_9 
REMARK    5  A    between atoms: C9_11  and  C10_12 
REMARK    6  A    between atoms: C15_19  and  N3_20 
REMARK       I    between atoms: N3_20  and  C16_21 
REMARK       I    between atoms: C16_21  and  N4_22 
ROOT
HETATM    1  C10 UNL     1      22.800   6.021  51.028  1.00  0.00     0.051 A 
HETATM    2  N1  UNL     1      21.668   6.593  51.189  1.00  0.00    -0.245 NA
HETATM    3  C11 UNL     1      21.209   7.691  50.433  1.00  0.00     0.233 A 
HETATM    4  N2  UNL     1      21.971   8.182  49.496  1.00  0.00    -0.246 NA
HETATM    5  C12 UNL     1      23.261   7.627  49.226  1.00  0.00     0.046 A 
HETATM    6  C13 UNL     1      24.118   8.045  48.309  1.00  0.00     0.007 C 
HETATM    7  C14 UNL     1      25.413   7.270  48.247  1.00  0.00     0.086 C 
HETATM    8  C15 UNL     1      25.913   7.335  49.644  1.00  0.00     0.014 C 
HETATM    9  C17 UNL     1      25.068   6.915  50.565  1.00  0.00     0.016 C 
HETATM   10  C18 UNL     1      23.764   6.449  50.023  1.00  0.00     0.114 A 
ENDROOT
BRANCH   1  11
HETATM   11  C9  UNL     1      23.060   4.904  51.926  1.00  0.00     0.050 C 
HETATM   12  C8  UNL     1      23.452   3.644  51.682  1.00  0.00     0.037 C 
HETATM   13 CL1  UNL     1      23.783   2.860  50.126  1.00  0.00    -0.087 Cl
BRANCH  12  14
HETATM   14  C7  UNL     1      23.691   2.569  52.695  1.00  0.00     0.219 C 
BRANCH  14  15
HETATM   15  O1  UNL     1      24.971   2.058  52.473  1.00  0.00    -0.381 OA
BRANCH  15  16
HETATM   16  C6  UNL     1      25.810   2.178  53.549  1.00  0.00     0.206 C 
BRANCH  16  17
HETATM   17  C5  UNL     1      26.822   1.103  53.493  1.00  0.00    -0.035 A 
HETATM   18  C4  UNL     1      26.435  -0.182  53.150  1.00  0.00     0.010 A 
HETATM   19  C3  UNL     1      27.249  -1.291  53.054  1.00  0.00     0.007 A 
HETATM   20  C2  UNL     1      28.581  -1.086  53.332  1.00  0.00    -0.062 A 
HETATM   21  C1  UNL     1      29.533  -2.222  53.255  1.00  0.00     0.048 C 
HETATM   22  C20 UNL     1      29.037   0.155  53.677  1.00  0.00     0.007 A 
HETATM   23  C19 UNL     1      28.189   1.229  53.758  1.00  0.00     0.010 A 
ENDBRANCH  16  17
ENDBRANCH  15  16
ENDBRANCH  14  15
ENDBRANCH  12  14
ENDBRANCH   1  11
BRANCH   8  24
HETATM   24  N3  UNL     1      27.221   7.831  49.849  1.00  0.00    -0.313 N 
HETATM   25  C16 UNL     1      27.690   9.163  49.972  1.00  0.00     0.318 C 
HETATM   26  N4  UNL     1      29.045   9.538  50.178  1.00  0.00    -0.352 N 
HETATM   27  O2  UNL     1      26.886  10.112  49.898  1.00  0.00    -0.247 OA
HETATM   28  H16 UNL     1      29.460  10.391  49.736  1.00  0.00     0.160 HD
HETATM   29  H17 UNL     1      29.579   8.891  50.804  1.00  0.00     0.160 HD
HETATM   30  H15 UNL     1      28.023   7.164  49.934  1.00  0.00     0.170 HD
ENDBRANCH   8  24
TORSDOF 6
ENDMDL
MODEL 7
REMARK VINA RESULT:      -7.6      3.011      8.042
REMARK  6 active torsions:
REMARK  status: ('A' for Active; 'I' for Inactive)
REMARK    1  A    between atoms: C5_5  and  C6_6 
REMARK    2  A    between atoms: C6_6  and  O1_7 
REMARK    3  A    between atoms: O1_7  and  C7_8 
REMARK    4  A    between atoms: C7_8  and  C8_9 
REMARK    5  A    between atoms: C9_11  and  C10_12 
REMARK    6  A    between atoms: C15_19  and  N3_20 
REMARK       I    between atoms: N3_20  and  C16_21 
REMARK       I    between atoms: C16_21  and  N4_22 
ROOT
HETATM    1  C10 UNL     1      22.388   2.290  51.774  1.00  0.00     0.051 A 
HETATM    2  N1  UNL     1      21.397   2.042  51.005  1.00  0.00    -0.245 NA
HETATM    3  C11 UNL     1      20.695   0.820  50.971  1.00  0.00     0.233 A 
HETATM    4  N2  UNL     1      21.058  -0.146  51.767  1.00  0.00    -0.246 NA
HETATM    5  C12 UNL     1      22.157   0.014  52.669  1.00  0.00     0.046 A 
HETATM    6  C13 UNL     1      22.617  -0.895  53.513  1.00  0.00     0.007 C 
HETATM    7  C14 UNL     1      23.796  -0.451  54.347  1.00  0.00     0.086 C 
HETATM    8  C15 UNL     1      24.776   0.008  53.329  1.00  0.00     0.014 C 
HETATM    9  C17 UNL     1      24.329   0.918  52.487  1.00  0.00     0.016 C 
HETATM   10  C18 UNL     1      22.915   1.317  52.720  1.00  0.00     0.114 A 
ENDROOT
BRANCH   1  11
HETATM   11  C9  UNL     1      22.958   3.624  51.633  1.00  0.00     0.050 C 
HETATM   12  C8  UNL     1      23.776   4.144  50.706  1.00  0.00     0.037 C 
HETATM   13 CL1  UNL     1      24.497   3.360  49.288  1.00  0.00    -0.087 Cl
BRANCH  12  14
HETATM   14  C7  UNL     1      24.303   5.543  50.661  1.00  0.00     0.219 C 
BRANCH  14  15
HETATM   15  O1  UNL     1      24.664   5.816  49.340  1.00  0.00    -0.381 OA
BRANCH  15  16
HETATM   16  C6  UNL     1      25.394   6.965  49.190  1.00  0.00     0.206 C 
BRANCH  16  17
HETATM   17  C5  UNL     1      26.778   6.611  48.816  1.00  0.00    -0.035 A 
HETATM   18  C4  UNL     1      27.700   7.616  48.571  1.00  0.00     0.010 A 
HETATM   19  C3  UNL     1      29.021   7.456  48.212  1.00  0.00     0.007 A 
HETATM   20  C2  UNL     1      29.457   6.157  48.086  1.00  0.00    -0.062 A 
HETATM   21  C1  UNL     1      30.865   5.886  47.702  1.00  0.00     0.048 C 
HETATM   22  C20 UNL     1      28.606   5.112  48.311  1.00  0.00     0.007 A 
HETATM   23  C19 UNL     1      27.299   5.321  48.668  1.00  0.00     0.010 A 
ENDBRANCH  16  17
ENDBRANCH  15  16
ENDBRANCH  14  15
ENDBRANCH  12  14
ENDBRANCH   1  11
BRANCH   8  24
HETATM   24  N3  UNL     1      26.069  -0.564  53.360  1.00  0.00    -0.313 N 
HETATM   25  C16 UNL     1      27.230  -0.174  54.074  1.00  0.00     0.318 C 
HETATM   26  N4  UNL     1      28.485  -0.838  54.021  1.00  0.00    -0.352 N 
HETATM   27  O2  UNL     1      27.192   0.825  54.818  1.00  0.00    -0.247 OA
HETATM   28  H16 UNL     1      29.392  -0.317  54.049  1.00  0.00     0.160 HD
HETATM   29  H17 UNL     1      28.416  -1.881  53.952  1.00  0.00     0.160 HD
HETATM   30  H15 UNL     1      26.275  -1.416  52.787  1.00  0.00     0.170 HD
ENDBRANCH   8  24
TORSDOF 6
ENDMDL
MODEL 8
REMARK VINA RESULT:      -7.6      3.746      8.427
REMARK  6 active torsions:
REMARK  status: ('A' for Active; 'I' for Inactive)
REMARK    1  A    between atoms: C5_5  and  C6_6 
REMARK    2  A    between atoms: C6_6  and  O1_7 
REMARK    3  A    between atoms: O1_7  and  C7_8 
REMARK    4  A    between atoms: C7_8  and  C8_9 
REMARK    5  A    between atoms: C9_11  and  C10_12 
REMARK    6  A    between atoms: C15_19  and  N3_20 
REMARK       I    between atoms: N3_20  and  C16_21 
REMARK       I    between atoms: C16_21  and  N4_22 
ROOT
HETATM    1  C10 UNL     1      24.726   4.377  49.988  1.00  0.00     0.051 A 
HETATM    2  N1  UNL     1      23.856   4.155  49.076  1.00  0.00    -0.245 NA
HETATM    3  C11 UNL     1      23.008   3.030  49.035  1.00  0.00     0.233 A 
HETATM    4  N2  UNL     1      23.092   2.133  49.977  1.00  0.00    -0.246 NA
HETATM    5  C12 UNL     1      24.031   2.272  51.047  1.00  0.00     0.046 A 
HETATM    6  C13 UNL     1      24.209   1.426  52.048  1.00  0.00     0.007 C 
HETATM    7  C14 UNL     1      25.277   1.826  53.038  1.00  0.00     0.086 C 
HETATM    8  C15 UNL     1      26.471   2.037  52.180  1.00  0.00     0.014 C 
HETATM    9  C17 UNL     1      26.305   2.883  51.183  1.00  0.00     0.016 C 
HETATM   10  C18 UNL     1      24.942   3.472  51.108  1.00  0.00     0.114 A 
ENDROOT
BRANCH   1  11
HETATM   11  C9  UNL     1      25.490   5.607  49.823  1.00  0.00     0.050 C 
HETATM   12  C8  UNL     1      25.243   6.862  50.226  1.00  0.00     0.037 C 
HETATM   13 CL1  UNL     1      23.842   7.496  51.110  1.00  0.00    -0.087 Cl
BRANCH  12  14
HETATM   14  C7  UNL     1      26.109   8.061  49.999  1.00  0.00     0.219 C 
BRANCH  14  15
HETATM   15  O1  UNL     1      26.813   7.854  48.810  1.00  0.00    -0.381 OA
BRANCH  15  16
HETATM   16  C6  UNL     1      28.013   8.511  48.754  1.00  0.00     0.206 C 
BRANCH  16  17
HETATM   17  C5  UNL     1      29.083   7.534  48.468  1.00  0.00    -0.035 A 
HETATM   18  C4  UNL     1      28.753   6.212  48.215  1.00  0.00     0.010 A 
HETATM   19  C3  UNL     1      29.625   5.182  47.935  1.00  0.00     0.007 A 
HETATM   20  C2  UNL     1      30.960   5.515  47.907  1.00  0.00    -0.062 A 
HETATM   21  C1  UNL     1      31.974   4.471  47.613  1.00  0.00     0.048 C 
HETATM   22  C20 UNL     1      31.363   6.799  48.145  1.00  0.00     0.007 A 
HETATM   23  C19 UNL     1      30.457   7.790  48.419  1.00  0.00     0.010 A 
ENDBRANCH  16  17
ENDBRANCH  15  16
ENDBRANCH  14  15
ENDBRANCH  12  14
ENDBRANCH   1  11
BRANCH   8  24
HETATM   24  N3  UNL     1      27.647   1.324  52.508  1.00  0.00    -0.313 N 
HETATM   25  C16 UNL     1      28.662   1.611  53.455  1.00  0.00     0.318 C 
HETATM   26  N4  UNL     1      29.810   0.808  53.694  1.00  0.00    -0.352 N 
HETATM   27  O2  UNL     1      28.583   2.639  54.154  1.00  0.00    -0.247 OA
HETATM   28  H16 UNL     1      30.744   1.224  53.915  1.00  0.00     0.160 HD
HETATM   29  H17 UNL     1      29.633  -0.223  53.631  1.00  0.00     0.160 HD
HETATM   30  H15 UNL     1      27.870   0.430  52.011  1.00  0.00     0.170 HD
ENDBRANCH   8  24
TORSDOF 6
ENDMDL
MODEL 9
REMARK VINA RESULT:      -7.5      3.070      7.398
REMARK  6 active torsions:
REMARK  status: ('A' for Active; 'I' for Inactive)
REMARK    1  A    between atoms: C5_5  and  C6_6 
REMARK    2  A    between atoms: C6_6  and  O1_7 
REMARK    3  A    between atoms: O1_7  and  C7_8 
REMARK    4  A    between atoms: C7_8  and  C8_9 
REMARK    5  A    between atoms: C9_11  and  C10_12 
REMARK    6  A    between atoms: C15_19  and  N3_20 
REMARK       I    between atoms: N3_20  and  C16_21 
REMARK       I    between atoms: C16_21  and  N4_22 
ROOT
HETATM    1  C10 UNL     1      26.778   2.040  51.944  1.00  0.00     0.051 A 
HETATM    2  N1  UNL     1      27.853   2.583  52.375  1.00  0.00    -0.245 NA
HETATM    3  C11 UNL     1      28.730   1.996  53.309  1.00  0.00     0.233 A 
HETATM    4  N2  UNL     1      28.453   0.816  53.788  1.00  0.00    -0.246 NA
HETATM    5  C12 UNL     1      27.275   0.112  53.384  1.00  0.00     0.046 A 
HETATM    6  C13 UNL     1      26.891  -1.081  53.808  1.00  0.00     0.007 C 
HETATM    7  C14 UNL     1      25.598  -1.582  53.211  1.00  0.00     0.086 C 
HETATM    8  C15 UNL     1      24.643  -0.481  53.499  1.00  0.00     0.014 C 
HETATM    9  C17 UNL     1      25.014   0.711  53.076  1.00  0.00     0.016 C 
HETATM   10  C18 UNL     1      26.330   0.725  52.382  1.00  0.00     0.114 A 
ENDROOT
BRANCH   1  11
HETATM   11  C9  UNL     1      26.028   2.835  50.980  1.00  0.00     0.050 C 
HETATM   12  C8  UNL     1      24.951   3.620  51.129  1.00  0.00     0.037 C 
HETATM   13 CL1  UNL     1      24.011   3.961  52.593  1.00  0.00    -0.087 Cl
BRANCH  12  14
HETATM   14  C7  UNL     1      24.257   4.399  50.056  1.00  0.00     0.219 C 
BRANCH  14  15
HETATM   15  O1  UNL     1      24.835   5.670  50.017  1.00  0.00    -0.381 OA
BRANCH  15  16
HETATM   16  C6  UNL     1      24.993   6.169  48.751  1.00  0.00     0.206 C 
BRANCH  16  17
HETATM   17  C5  UNL     1      26.434   6.214  48.430  1.00  0.00    -0.035 A 
HETATM   18  C4  UNL     1      26.963   7.337  47.814  1.00  0.00     0.010 A 
HETATM   19  C3  UNL     1      28.276   7.537  47.447  1.00  0.00     0.007 A 
HETATM   20  C2  UNL     1      29.142   6.505  47.726  1.00  0.00    -0.062 A 
HETATM   21  C1  UNL     1      30.577   6.629  47.366  1.00  0.00     0.048 C 
HETATM   22  C20 UNL     1      28.695   5.365  48.333  1.00  0.00     0.007 A 
HETATM   23  C19 UNL     1      27.378   5.213  48.680  1.00  0.00     0.010 A 
ENDBRANCH  16  17
ENDBRANCH  15  16
ENDBRANCH  14  15
ENDBRANCH  12  14
ENDBRANCH   1  11
BRANCH   8  24
HETATM   24  N3  UNL     1      23.452  -0.809  54.186  1.00  0.00    -0.313 N 
HETATM   25  C16 UNL     1      22.106  -0.817  53.741  1.00  0.00     0.318 C 
HETATM   26  N4  UNL     1      20.983  -1.171  54.536  1.00  0.00    -0.352 N 
HETATM   27  O2  UNL     1      21.841  -0.496  52.567  1.00  0.00    -0.247 OA
HETATM   28  H16 UNL     1      20.061  -0.683  54.446  1.00  0.00     0.160 HD
HETATM   29  H17 UNL     1      21.162  -1.953  55.210  1.00  0.00     0.160 HD
HETATM   30  H15 UNL     1      23.494  -1.103  55.190  1.00  0.00     0.170 HD
ENDBRANCH   8  24
TORSDOF 6
ENDMDL
