MODEL 1
REMARK VINA RESULT:      -7.3      0.000      0.000
REMARK  3 active torsions:
REMARK  status: ('A' for Active; 'I' for Inactive)
REMARK    1  A    between atoms: O1_2  and  C2_3 
REMARK    2  A    between atoms: C6_7  and  O2_8 
REMARK    3  A    between atoms: C9_11  and  O3_12 
ROOT
HETATM    1  C2  UNL     1      22.358   4.848  50.580  1.00  0.00     0.137 A 
HETATM    2  C3  UNL     1      22.513   4.274  49.416  1.00  0.00    -0.013 C 
HETATM    3  C4  UNL     1      23.802   4.280  49.116  1.00  0.00    -0.009 C 
HETATM    4  C5  UNL     1      24.477   3.056  49.448  1.00  0.00     0.092 C 
HETATM    5  C6  UNL     1      25.879   3.492  49.912  1.00  0.00     0.051 C 
HETATM    6  C8  UNL     1      26.700   2.990  50.861  1.00  0.00     0.069 C 
HETATM    7  C9  UNL     1      27.030   2.030  51.907  1.00  0.00     0.066 C 
HETATM    8  C11 UNL     1      26.379   0.951  52.392  1.00  0.00     0.011 C 
HETATM    9  C12 UNL     1      25.188   0.036  52.361  1.00  0.00     0.052 C 
HETATM   10  C13 UNL     1      24.443   0.166  53.633  1.00  0.00     0.154 C 
HETATM   11  N1  UNL     1      23.315  -0.672  53.825  1.00  0.00    -0.285 NA
HETATM   12  C14 UNL     1      22.317  -0.664  53.028  1.00  0.00     0.190 C 
HETATM   13  N2  UNL     1      22.356   0.232  51.903  1.00  0.00    -0.383 NA
HETATM   14  C15 UNL     1      22.306   1.493  52.042  1.00  0.00     0.282 C 
HETATM   15  C16 UNL     1      22.244   2.907  52.280  1.00  0.00     0.008 C 
HETATM   16  C17 UNL     1      22.342   3.541  51.128  1.00  0.00     0.049 A 
HETATM   17  O4  UNL     1      22.216   4.492  52.173  1.00  0.00     0.000 OA
HETATM   18  C18 UNL     1      23.233   5.063  52.957  1.00  0.00     0.000 C 
ENDROOT
BRANCH   1  19
HETATM   19  O1  UNL     1      22.353   6.166  50.216  1.00  0.00    -0.375 OA
HETATM   20  C1  UNL     1      21.146   6.866  49.931  1.00  0.00     0.203 C 
ENDBRANCH   1  19
BRANCH   5  21
HETATM   21  O2  UNL     1      26.264   4.578  49.170  1.00  0.00    -0.360 OA
HETATM   22  C7  UNL     1      27.537   4.831  48.644  1.00  0.00     0.209 C 
ENDBRANCH   5  21
BRANCH   7  23
HETATM   23  O3  UNL     1      28.253   2.211  52.578  1.00  0.00    -0.356 OA
HETATM   24  C10 UNL     1      28.567   1.379  53.651  1.00  0.00     0.210 C 
ENDBRANCH   7  23
TORSDOF 3
ENDMDL
MODEL 2
REMARK VINA RESULT:      -6.9      2.578      5.800
REMARK  3 active torsions:
REMARK  status: ('A' for Active; 'I' for Inactive)
REMARK    1  A    between atoms: O1_2  and  C2_3 
REMARK    2  A    between atoms: C6_7  and  O2_8 
REMARK    3  A    between atoms: C9_11  and  O3_12 
ROOT
HETATM    1  C2  UNL     1      27.414  -0.020  53.656  1.00  0.00     0.137 A 
HETATM    2  C3  UNL     1      27.254   1.127  54.262  1.00  0.00    -0.013 C 
HETATM    3  C4  UNL     1      26.959   2.042  53.352  1.00  0.00    -0.009 C 
HETATM    4  C5  UNL     1      25.551   2.285  53.213  1.00  0.00     0.092 C 
HETATM    5  C6  UNL     1      25.343   2.550  51.710  1.00  0.00     0.051 C 
HETATM    6  C8  UNL     1      24.319   2.242  50.884  1.00  0.00     0.069 C 
HETATM    7  C9  UNL     1      23.008   1.666  50.611  1.00  0.00     0.066 C 
HETATM    8  C11 UNL     1      22.088   1.077  51.405  1.00  0.00     0.011 C 
HETATM    9  C12 UNL     1      21.658   0.624  52.772  1.00  0.00     0.052 C 
HETATM   10  C13 UNL     1      21.571  -0.853  52.788  1.00  0.00     0.154 C 
HETATM   11  N1  UNL     1      21.114  -1.474  53.978  1.00  0.00    -0.285 NA
HETATM   12  C14 UNL     1      21.703  -1.314  55.099  1.00  0.00     0.190 C 
HETATM   13  N2  UNL     1      22.869  -0.472  55.138  1.00  0.00    -0.383 NA
HETATM   14  C15 UNL     1      23.956  -0.798  54.568  1.00  0.00     0.282 C 
HETATM   15  C16 UNL     1      25.148  -1.236  53.900  1.00  0.00     0.008 C 
HETATM   16  C17 UNL     1      26.073  -0.303  54.017  1.00  0.00     0.049 A 
HETATM   17  O4  UNL     1      26.600  -1.389  53.271  1.00  0.00     0.000 OA
HETATM   18  C18 UNL     1      26.522  -1.611  51.886  1.00  0.00     0.000 C 
ENDROOT
BRANCH   1  19
HETATM   19  O1  UNL     1      28.709   0.095  53.231  1.00  0.00    -0.375 OA
HETATM   20  C1  UNL     1      29.776  -0.599  53.870  1.00  0.00     0.203 C 
ENDBRANCH   1  19
BRANCH   5  21
HETATM   21  O2  UNL     1      26.439   3.219  51.231  1.00  0.00    -0.360 OA
HETATM   22  C7  UNL     1      26.660   3.643  49.915  1.00  0.00     0.209 C 
ENDBRANCH   5  21
BRANCH   7  23
HETATM   23  O3  UNL     1      22.559   1.702  49.279  1.00  0.00    -0.356 OA
HETATM   24  C10 UNL     1      21.317   1.153  48.968  1.00  0.00     0.210 C 
ENDBRANCH   7  23
TORSDOF 3
ENDMDL
MODEL 3
REMARK VINA RESULT:      -6.7      2.401      4.381
REMARK  3 active torsions:
REMARK  status: ('A' for Active; 'I' for Inactive)
REMARK    1  A    between atoms: O1_2  and  C2_3 
REMARK    2  A    between atoms: C6_7  and  O2_8 
REMARK    3  A    between atoms: C9_11  and  O3_12 
ROOT
HETATM    1  C2  UNL     1      25.439   5.983  49.472  1.00  0.00     0.137 A 
HETATM    2  C3  UNL     1      26.178   5.146  48.791  1.00  0.00    -0.013 C 
HETATM    3  C4  UNL     1      26.623   4.214  49.619  1.00  0.00    -0.009 C 
HETATM    4  C5  UNL     1      25.833   3.015  49.617  1.00  0.00     0.092 C 
HETATM    5  C6  UNL     1      25.850   2.528  51.077  1.00  0.00     0.051 C 
HETATM    6  C8  UNL     1      24.905   1.912  51.823  1.00  0.00     0.069 C 
HETATM    7  C9  UNL     1      23.582   1.329  52.007  1.00  0.00     0.066 C 
HETATM    8  C11 UNL     1      22.541   1.149  51.167  1.00  0.00     0.011 C 
HETATM    9  C12 UNL     1      21.947   1.289  49.793  1.00  0.00     0.052 C 
HETATM   10  C13 UNL     1      20.812   2.236  49.851  1.00  0.00     0.154 C 
HETATM   11  N1  UNL     1      20.073   2.453  48.660  1.00  0.00    -0.285 NA
HETATM   12  C14 UNL     1      20.618   2.886  47.590  1.00  0.00     0.190 C 
HETATM   13  N2  UNL     1      22.030   3.159  47.611  1.00  0.00    -0.383 NA
HETATM   14  C15 UNL     1      22.525   4.108  48.294  1.00  0.00     0.282 C 
HETATM   15  C16 UNL     1      23.008   5.200  49.091  1.00  0.00     0.008 C 
HETATM   16  C17 UNL     1      24.323   5.243  49.007  1.00  0.00     0.049 A 
HETATM   17  O4  UNL     1      23.876   6.288  49.856  1.00  0.00     0.000 OA
HETATM   18  C18 UNL     1      23.630   6.241  51.239  1.00  0.00     0.000 C 
ENDROOT
BRANCH   1  19
HETATM   19  O1  UNL     1      26.400   6.796  50.005  1.00  0.00    -0.375 OA
HETATM   20  C1  UNL     1      26.814   7.997  49.361  1.00  0.00     0.203 C 
ENDBRANCH   1  19
BRANCH   5  21
HETATM   21  O2  UNL     1      27.076   2.815  51.617  1.00  0.00    -0.360 OA
HETATM   22  C7  UNL     1      27.723   2.129  52.653  1.00  0.00     0.209 C 
ENDBRANCH   5  21
BRANCH   7  23
HETATM   23  O3  UNL     1      23.271   0.843  53.289  1.00  0.00    -0.356 OA
HETATM   24  C10 UNL     1      22.142   0.042  53.454  1.00  0.00     0.210 C 
ENDBRANCH   7  23
TORSDOF 3
ENDMDL
MODEL 4
REMARK VINA RESULT:      -6.7      2.869      4.933
REMARK  3 active torsions:
REMARK  status: ('A' for Active; 'I' for Inactive)
REMARK    1  A    between atoms: O1_2  and  C2_3 
REMARK    2  A    between atoms: C6_7  and  O2_8 
REMARK    3  A    between atoms: C9_11  and  O3_12 
ROOT
HETATM    1  C2  UNL     1      20.771   2.840  50.395  1.00  0.00     0.137 A 
HETATM    2  C3  UNL     1      20.818   3.424  51.563  1.00  0.00    -0.013 C 
HETATM    3  C4  UNL     1      21.322   2.568  52.438  1.00  0.00    -0.009 C 
HETATM    4  C5  UNL     1      22.731   2.732  52.660  1.00  0.00     0.092 C 
HETATM    5  C6  UNL     1      23.268   1.303  52.862  1.00  0.00     0.051 C 
HETATM    6  C8  UNL     1      24.442   0.733  52.511  1.00  0.00     0.069 C 
HETATM    7  C9  UNL     1      25.769   0.776  51.910  1.00  0.00     0.066 C 
HETATM    8  C11 UNL     1      26.481   1.773  51.344  1.00  0.00     0.011 C 
HETATM    9  C12 UNL     1      26.593   3.217  50.941  1.00  0.00     0.052 C 
HETATM   10  C13 UNL     1      26.646   3.305  49.465  1.00  0.00     0.154 C 
HETATM   11  N1  UNL     1      26.820   4.588  48.886  1.00  0.00    -0.285 NA
HETATM   12  C14 UNL     1      26.003   5.547  49.097  1.00  0.00     0.190 C 
HETATM   13  N2  UNL     1      24.873   5.298  49.953  1.00  0.00    -0.383 NA
HETATM   14  C15 UNL     1      23.931   4.515  49.616  1.00  0.00     0.282 C 
HETATM   15  C16 UNL     1      22.906   3.619  49.165  1.00  0.00     0.008 C 
HETATM   16  C17 UNL     1      21.996   3.496  50.112  1.00  0.00     0.049 A 
HETATM   17  O4  UNL     1      21.624   2.693  49.003  1.00  0.00     0.000 OA
HETATM   18  C18 UNL     1      21.998   1.368  48.725  1.00  0.00     0.000 C 
ENDROOT
BRANCH   1  19
HETATM   19  O1  UNL     1      19.604   2.138  50.507  1.00  0.00    -0.375 OA
HETATM   20  C1  UNL     1      18.340   2.723  50.207  1.00  0.00     0.203 C 
ENDBRANCH   1  19
BRANCH   5  21
HETATM   21  O2  UNL     1      22.316   0.571  53.523  1.00  0.00    -0.360 OA
HETATM   22  C7  UNL     1      22.440  -0.741  53.998  1.00  0.00     0.209 C 
ENDBRANCH   5  21
BRANCH   7  23
HETATM   23  O3  UNL     1      26.499  -0.426  51.887  1.00  0.00    -0.356 OA
HETATM   24  C10 UNL     1      26.505  -1.236  53.022  1.00  0.00     0.210 C 
ENDBRANCH   7  23
TORSDOF 3
ENDMDL
MODEL 5
REMARK VINA RESULT:      -6.6      2.506      4.903
REMARK  3 active torsions:
REMARK  status: ('A' for Active; 'I' for Inactive)
REMARK    1  A    between atoms: O1_2  and  C2_3 
REMARK    2  A    between atoms: C6_7  and  O2_8 
REMARK    3  A    between atoms: C9_11  and  O3_12 
ROOT
HETATM    1  C2  UNL     1      22.093   4.622  49.117  1.00  0.00     0.137 A 
HETATM    2  C3  UNL     1      22.023   5.447  50.128  1.00  0.00    -0.013 C 
HETATM    3  C4  UNL     1      21.120   4.987  50.980  1.00  0.00    -0.009 C 
HETATM    4  C5  UNL     1      21.680   4.223  52.058  1.00  0.00     0.092 C 
HETATM    5  C6  UNL     1      20.652   3.109  52.329  1.00  0.00     0.051 C 
HETATM    6  C8  UNL     1      20.811   1.821  52.708  1.00  0.00     0.069 C 
HETATM    7  C9  UNL     1      21.633   0.679  53.088  1.00  0.00     0.066 C 
HETATM    8  C11 UNL     1      22.964   0.530  53.256  1.00  0.00     0.011 C 
HETATM    9  C12 UNL     1      24.345   1.123  53.241  1.00  0.00     0.052 C 
HETATM   10  C13 UNL     1      25.132   0.489  52.161  1.00  0.00     0.154 C 
HETATM   11  N1  UNL     1      26.493   0.868  52.027  1.00  0.00    -0.285 NA
HETATM   12  C14 UNL     1      26.845   2.079  51.823  1.00  0.00     0.190 C 
HETATM   13  N2  UNL     1      25.814   3.078  51.730  1.00  0.00    -0.383 NA
HETATM   14  C15 UNL     1      24.993   3.112  50.761  1.00  0.00     0.282 C 
HETATM   15  C16 UNL     1      24.103   3.086  49.636  1.00  0.00     0.008 C 
HETATM   16  C17 UNL     1      23.213   4.049  49.770  1.00  0.00     0.049 A 
HETATM   17  O4  UNL     1      22.958   3.343  48.566  1.00  0.00     0.000 OA
HETATM   18  C18 UNL     1      22.177   2.190  48.383  1.00  0.00     0.000 C 
ENDROOT
BRANCH   1  19
HETATM   19  O1  UNL     1      21.038   5.054  48.361  1.00  0.00    -0.375 OA
HETATM   20  C1  UNL     1      21.172   6.108  47.413  1.00  0.00     0.203 C 
ENDBRANCH   1  19
BRANCH   5  21
HETATM   21  O2  UNL     1      19.397   3.618  52.123  1.00  0.00    -0.360 OA
HETATM   22  C7  UNL     1      18.286   2.940  51.605  1.00  0.00     0.209 C 
ENDBRANCH   5  21
BRANCH   7  23
HETATM   23  O3  UNL     1      20.964  -0.532  53.343  1.00  0.00    -0.356 OA
HETATM   24  C10 UNL     1      21.535  -1.448  54.225  1.00  0.00     0.210 C 
ENDBRANCH   7  23
TORSDOF 3
ENDMDL
MODEL 6
REMARK VINA RESULT:      -6.4      2.448      3.933
REMARK  3 active torsions:
REMARK  status: ('A' for Active; 'I' for Inactive)
REMARK    1  A    between atoms: O1_2  and  C2_3 
REMARK    2  A    between atoms: C6_7  and  O2_8 
REMARK    3  A    between atoms: C9_11  and  O3_12 
ROOT
HETATM    1  C2  UNL     1      19.784   1.677  51.288  1.00  0.00     0.137 A 
HETATM    2  C3  UNL     1      19.986   0.733  50.408  1.00  0.00    -0.013 C 
HETATM    3  C4  UNL     1      20.544   1.274  49.336  1.00  0.00    -0.009 C 
HETATM    4  C5  UNL     1      21.975   1.160  49.310  1.00  0.00     0.092 C 
HETATM    5  C6  UNL     1      22.465   2.471  48.668  1.00  0.00     0.051 C 
HETATM    6  C8  UNL     1      23.565   3.222  48.899  1.00  0.00     0.069 C 
HETATM    7  C9  UNL     1      24.818   3.497  49.591  1.00  0.00     0.066 C 
HETATM    8  C11 UNL     1      25.508   2.818  50.532  1.00  0.00     0.011 C 
HETATM    9  C12 UNL     1      25.641   1.615  51.423  1.00  0.00     0.052 C 
HETATM   10  C13 UNL     1      25.534   2.045  52.835  1.00  0.00     0.154 C 
HETATM   11  N1  UNL     1      25.702   1.057  53.839  1.00  0.00    -0.285 NA
HETATM   12  C14 UNL     1      24.958   0.021  53.907  1.00  0.00     0.190 C 
HETATM   13  N2  UNL     1      23.920  -0.133  52.922  1.00  0.00    -0.383 NA
HETATM   14  C15 UNL     1      22.911   0.637  52.879  1.00  0.00     0.282 C 
HETATM   15  C16 UNL     1      21.802   1.547  52.895  1.00  0.00     0.008 C 
HETATM   16  C17 UNL     1      20.998   1.261  51.889  1.00  0.00     0.049 A 
HETATM   17  O4  UNL     1      20.469   2.363  52.609  1.00  0.00     0.000 OA
HETATM   18  C18 UNL     1      20.748   3.730  52.437  1.00  0.00     0.000 C 
ENDROOT
BRANCH   1  19
HETATM   19  O1  UNL     1      18.604   2.200  50.835  1.00  0.00    -0.375 OA
HETATM   20  C1  UNL     1      17.344   1.651  51.207  1.00  0.00     0.203 C 
ENDBRANCH   1  19
BRANCH   5  21
HETATM   21  O2  UNL     1      21.559   2.851  47.712  1.00  0.00    -0.360 OA
HETATM   22  C7  UNL     1      21.827   3.541  46.523  1.00  0.00     0.209 C 
ENDBRANCH   5  21
BRANCH   7  23
HETATM   23  O3  UNL     1      25.484   4.689  49.255  1.00  0.00    -0.356 OA
HETATM   24  C10 UNL     1      26.861   4.659  49.041  1.00  0.00     0.210 C 
ENDBRANCH   7  23
TORSDOF 3
ENDMDL
MODEL 7
REMARK VINA RESULT:      -6.4      2.986      6.706
REMARK  3 active torsions:
REMARK  status: ('A' for Active; 'I' for Inactive)
REMARK    1  A    between atoms: O1_2  and  C2_3 
REMARK    2  A    between atoms: C6_7  and  O2_8 
REMARK    3  A    between atoms: C9_11  and  O3_12 
ROOT
HETATM    1  C2  UNL     1      24.716   2.441  52.133  1.00  0.00     0.137 A 
HETATM    2  C3  UNL     1      24.558   1.154  51.971  1.00  0.00    -0.013 C 
HETATM    3  C4  UNL     1      23.466   0.783  52.621  1.00  0.00    -0.009 C 
HETATM    4  C5  UNL     1      22.298   0.703  51.788  1.00  0.00     0.092 C 
HETATM    5  C6  UNL     1      21.140   1.178  52.686  1.00  0.00     0.051 C 
HETATM    6  C8  UNL     1      20.024   1.886  52.402  1.00  0.00     0.069 C 
HETATM    7  C9  UNL     1      19.140   2.588  51.480  1.00  0.00     0.066 C 
HETATM    8  C11 UNL     1      19.186   2.786  50.146  1.00  0.00     0.011 C 
HETATM    9  C12 UNL     1      19.879   2.573  48.829  1.00  0.00     0.052 C 
HETATM   10  C13 UNL     1      20.359   3.876  48.318  1.00  0.00     0.154 C 
HETATM   11  N1  UNL     1      20.985   3.895  47.045  1.00  0.00    -0.285 NA
HETATM   12  C14 UNL     1      22.027   3.203  46.788  1.00  0.00     0.190 C 
HETATM   13  N2  UNL     1      22.570   2.382  47.837  1.00  0.00    -0.383 NA
HETATM   14  C15 UNL     1      23.109   2.880  48.874  1.00  0.00     0.282 C 
HETATM   15  C16 UNL     1      23.702   3.517  50.015  1.00  0.00     0.008 C 
HETATM   16  C17 UNL     1      24.090   2.591  50.870  1.00  0.00     0.049 A 
HETATM   17  O4  UNL     1      24.399   3.871  51.398  1.00  0.00     0.000 OA
HETATM   18  C18 UNL     1      23.581   4.715  52.167  1.00  0.00     0.000 C 
ENDROOT
BRANCH   1  19
HETATM   19  O1  UNL     1      25.330   2.471  53.354  1.00  0.00    -0.375 OA
HETATM   20  C1  UNL     1      26.697   2.107  53.520  1.00  0.00     0.203 C 
ENDBRANCH   1  19
BRANCH   5  21
HETATM   21  O2  UNL     1      21.382   0.754  53.966  1.00  0.00    -0.360 OA
HETATM   22  C7  UNL     1      20.894  -0.408  54.577  1.00  0.00     0.209 C 
ENDBRANCH   5  21
BRANCH   7  23
HETATM   23  O3  UNL     1      17.999   3.199  52.031  1.00  0.00    -0.356 OA
HETATM   24  C10 UNL     1      17.276   4.104  51.256  1.00  0.00     0.210 C 
ENDBRANCH   7  23
TORSDOF 3
ENDMDL
MODEL 8
REMARK VINA RESULT:      -6.4      1.961      3.043
REMARK  3 active torsions:
REMARK  status: ('A' for Active; 'I' for Inactive)
REMARK    1  A    between atoms: O1_2  and  C2_3 
REMARK    2  A    between atoms: C6_7  and  O2_8 
REMARK    3  A    between atoms: C9_11  and  O3_12 
ROOT
HETATM    1  C2  UNL     1      24.268   5.182  50.604  1.00  0.00     0.137 A 
HETATM    2  C3  UNL     1      24.801   4.505  49.622  1.00  0.00    -0.013 C 
HETATM    3  C4  UNL     1      25.699   3.674  50.127  1.00  0.00    -0.009 C 
HETATM    4  C5  UNL     1      25.199   2.345  50.344  1.00  0.00     0.092 C 
HETATM    5  C6  UNL     1      25.892   1.867  51.633  1.00  0.00     0.051 C 
HETATM    6  C8  UNL     1      25.455   1.080  52.641  1.00  0.00     0.069 C 
HETATM    7  C9  UNL     1      24.445   0.253  53.289  1.00  0.00     0.066 C 
HETATM    8  C11 UNL     1      23.201  -0.123  52.920  1.00  0.00     0.011 C 
HETATM    9  C12 UNL     1      22.087  -0.097  51.912  1.00  0.00     0.052 C 
HETATM   10  C13 UNL     1      20.926   0.614  52.492  1.00  0.00     0.154 C 
HETATM   11  N1  UNL     1      19.742   0.688  51.715  1.00  0.00    -0.285 NA
HETATM   12  C14 UNL     1      19.721   1.220  50.554  1.00  0.00     0.190 C 
HETATM   13  N2  UNL     1      20.949   1.759  50.034  1.00  0.00    -0.383 NA
HETATM   14  C15 UNL     1      21.504   2.784  50.538  1.00  0.00     0.282 C 
HETATM   15  C16 UNL     1      22.069   3.947  51.161  1.00  0.00     0.008 C 
HETATM   16  C17 UNL     1      23.207   4.243  50.564  1.00  0.00     0.049 A 
HETATM   17  O4  UNL     1      22.967   5.181  51.602  1.00  0.00     0.000 OA
HETATM   18  C18 UNL     1      23.316   5.084  52.959  1.00  0.00     0.000 C 
ENDROOT
BRANCH   1  19
HETATM   19  O1  UNL     1      25.204   6.164  50.775  1.00  0.00    -0.375 OA
HETATM   20  C1  UNL     1      25.110   7.419  50.107  1.00  0.00     0.203 C 
ENDBRANCH   1  19
BRANCH   5  21
HETATM   21  O2  UNL     1      27.161   2.384  51.661  1.00  0.00    -0.360 OA
HETATM   22  C7  UNL     1      28.075   2.319  52.721  1.00  0.00     0.209 C 
ENDBRANCH   5  21
BRANCH   7  23
HETATM   23  O3  UNL     1      24.771  -0.287  54.546  1.00  0.00    -0.356 OA
HETATM   24  C10 UNL     1      26.060  -0.111  55.044  1.00  0.00     0.210 C 
ENDBRANCH   7  23
TORSDOF 3
ENDMDL
MODEL 9
REMARK VINA RESULT:      -6.2      1.663      2.009
REMARK  3 active torsions:
REMARK  status: ('A' for Active; 'I' for Inactive)
REMARK    1  A    between atoms: O1_2  and  C2_3 
REMARK    2  A    between atoms: C6_7  and  O2_8 
REMARK    3  A    between atoms: C9_11  and  O3_12 
ROOT
HETATM    1  C2  UNL     1      21.393   4.733  49.908  1.00  0.00     0.137 A 
HETATM    2  C3  UNL     1      21.632   3.952  48.887  1.00  0.00    -0.013 C 
HETATM    3  C4  UNL     1      22.920   3.646  48.889  1.00  0.00    -0.009 C 
HETATM    4  C5  UNL     1      23.213   2.385  49.510  1.00  0.00     0.092 C 
HETATM    5  C6  UNL     1      24.560   2.600  50.223  1.00  0.00     0.051 C 
HETATM    6  C8  UNL     1      25.042   2.109  51.387  1.00  0.00     0.069 C 
HETATM    7  C9  UNL     1      24.929   1.292  52.589  1.00  0.00     0.066 C 
HETATM    8  C11 UNL     1      23.963   0.465  53.042  1.00  0.00     0.011 C 
HETATM    9  C12 UNL     1      22.620  -0.182  52.852  1.00  0.00     0.052 C 
HETATM   10  C13 UNL     1      21.695   0.308  53.898  1.00  0.00     0.154 C 
HETATM   11  N1  UNL     1      20.386  -0.239  53.930  1.00  0.00    -0.285 NA
HETATM   12  C14 UNL     1      19.592  -0.164  52.933  1.00  0.00     0.190 C 
HETATM   13  N2  UNL     1      20.056   0.503  51.746  1.00  0.00    -0.383 NA
HETATM   14  C15 UNL     1      20.276   1.753  51.716  1.00  0.00     0.282 C 
HETATM   15  C16 UNL     1      20.501   3.170  51.761  1.00  0.00     0.008 C 
HETATM   16  C17 UNL     1      20.966   3.567  50.592  1.00  0.00     0.049 A 
HETATM   17  O4  UNL     1      20.866   4.687  51.459  1.00  0.00     0.000 OA
HETATM   18  C18 UNL     1      21.817   5.163  52.377  1.00  0.00     0.000 C 
ENDROOT
BRANCH   1  19
HETATM   19  O1  UNL     1      21.767   5.944  49.395  1.00  0.00    -0.375 OA
HETATM   20  C1  UNL     1      20.824   6.844  48.821  1.00  0.00     0.203 C 
ENDBRANCH   1  19
BRANCH   5  21
HETATM   21  O2  UNL     1      25.325   3.444  49.461  1.00  0.00    -0.360 OA
HETATM   22  C7  UNL     1      26.694   3.702  49.604  1.00  0.00     0.209 C 
ENDBRANCH   5  21
BRANCH   7  23
HETATM   23  O3  UNL     1      26.007   1.333  53.492  1.00  0.00    -0.356 OA
HETATM   24  C10 UNL     1      26.158   0.297  54.412  1.00  0.00     0.210 C 
ENDBRANCH   7  23
TORSDOF 3
ENDMDL
