MODEL 1
REMARK VINA RESULT:      -8.3      0.000      0.000
REMARK  4 active torsions:
REMARK  status: ('A' for Active; 'I' for Inactive)
REMARK    1  A    between atoms: O1_2  and  C2_3 
REMARK    2  A    between atoms: N2_16  and  C14_17 
REMARK    3  A    between atoms: C14_17  and  S1_18 
REMARK    4  A    between atoms: S1_18  and  C15_19 
ROOT
HETATM    1  C2  UNL     1      26.321  -0.558  52.986  1.00  0.00     0.078 A 
HETATM    2  C3  UNL     1      26.837   0.142  51.889  1.00  0.00     0.038 A 
HETATM    3  C4  UNL     1      26.295   1.390  51.667  1.00  0.00     0.012 A 
HETATM    4  C5  UNL     1      25.316   1.898  52.480  1.00  0.00    -0.033 A 
HETATM    5  C6  UNL     1      24.781   1.273  53.564  1.00  0.00     0.023 A 
HETATM    6  C7  UNL     1      25.320   0.045  53.760  1.00  0.00    -0.002 A 
HETATM    7  C8  UNL     1      24.808  -0.914  54.698  1.00  0.00     0.015 C 
HETATM    8  C9  UNL     1      23.486  -0.886  54.440  1.00  0.00     0.007 C 
HETATM    9  C10 UNL     1      22.472  -0.281  53.629  1.00  0.00    -0.060 C 
HETATM   10  C11 UNL     1      21.157  -0.916  54.017  1.00  0.00     0.048 C 
HETATM   11  C12 UNL     1      22.249   0.604  52.687  1.00  0.00     0.035 C 
HETATM   12  C13 UNL     1      23.033   1.557  51.881  1.00  0.00     0.057 C 
HETATM   13  N1  UNL     1      23.691   1.712  50.784  1.00  0.00    -0.180 NA
HETATM   14  N2  UNL     1      24.216   3.027  50.658  1.00  0.00    -0.286 N 
HETATM   15  C17 UNL     1      24.611   3.136  52.107  1.00  0.00     0.144 C 
HETATM   16  C18 UNL     1      23.132   2.921  52.556  1.00  0.00     0.093 C 
ENDROOT
BRANCH  14  17
HETATM   17  C14 UNL     1      24.195   3.760  49.411  1.00  0.00     0.223 C 
BRANCH  17  18
HETATM   18  S1  UNL     1      25.364   5.091  49.263  1.00  0.00    -0.116 SA
BRANCH  18  19
HETATM   19  C15 UNL     1      24.929   6.575  50.143  1.00  0.00     0.106 C 
HETATM   20  C16 UNL     1      25.982   7.409  50.086  1.00  0.00     0.196 A 
HETATM   21  N3  UNL     1      27.271   7.474  49.569  1.00  0.00    -0.235 N 
HETATM   22  O2  UNL     1      26.805   8.577  50.284  1.00  0.00    -0.215 OA
HETATM   23  H16 UNL     1      28.249   7.648  49.235  1.00  0.00     0.197 HD
ENDBRANCH  18  19
ENDBRANCH  17  18
ENDBRANCH  14  17
BRANCH   1  24
HETATM   24  O1  UNL     1      26.864  -1.804  53.202  1.00  0.00    -0.355 OA
HETATM   25  C1  UNL     1      28.210  -2.133  52.994  1.00  0.00     0.210 C 
ENDBRANCH   1  24
TORSDOF 4
ENDMDL
MODEL 2
REMARK VINA RESULT:      -8.0      2.746      3.444
REMARK  4 active torsions:
REMARK  status: ('A' for Active; 'I' for Inactive)
REMARK    1  A    between atoms: O1_2  and  C2_3 
REMARK    2  A    between atoms: N2_16  and  C14_17 
REMARK    3  A    between atoms: C14_17  and  S1_18 
REMARK    4  A    between atoms: S1_18  and  C15_19 
ROOT
HETATM    1  C2  UNL     1      26.108  -0.596  53.062  1.00  0.00     0.078 A 
HETATM    2  C3  UNL     1      26.634   0.071  51.950  1.00  0.00     0.038 A 
HETATM    3  C4  UNL     1      26.082   1.304  51.675  1.00  0.00     0.012 A 
HETATM    4  C5  UNL     1      25.086   1.830  52.454  1.00  0.00    -0.033 A 
HETATM    5  C6  UNL     1      24.540   1.238  53.551  1.00  0.00     0.023 A 
HETATM    6  C7  UNL     1      25.089   0.023  53.799  1.00  0.00    -0.002 A 
HETATM    7  C8  UNL     1      24.572  -0.908  54.762  1.00  0.00     0.015 C 
HETATM    8  C9  UNL     1      23.254  -0.904  54.483  1.00  0.00     0.007 C 
HETATM    9  C10 UNL     1      22.247  -0.339  53.635  1.00  0.00    -0.060 C 
HETATM   10  C11 UNL     1      20.932  -0.974  54.025  1.00  0.00     0.048 C 
HETATM   11  C12 UNL     1      22.029   0.509  52.659  1.00  0.00     0.035 C 
HETATM   12  C13 UNL     1      22.816   1.442  51.832  1.00  0.00     0.057 C 
HETATM   13  N1  UNL     1      23.490   1.566  50.741  1.00  0.00    -0.180 NA
HETATM   14  N2  UNL     1      24.003   2.881  50.576  1.00  0.00    -0.286 N 
HETATM   15  C17 UNL     1      24.374   3.045  52.027  1.00  0.00     0.144 C 
HETATM   16  C18 UNL     1      22.890   2.831  52.460  1.00  0.00     0.093 C 
ENDROOT
BRANCH  14  17
HETATM   17  C14 UNL     1      23.994   3.569  49.303  1.00  0.00     0.223 C 
BRANCH  17  18
HETATM   18  S1  UNL     1      22.546   3.342  48.299  1.00  0.00    -0.116 SA
BRANCH  18  19
HETATM   19  C15 UNL     1      21.003   3.701  49.111  1.00  0.00     0.106 C 
HETATM   20  C16 UNL     1      20.353   2.539  49.289  1.00  0.00     0.196 A 
HETATM   21  N3  UNL     1      20.504   1.178  49.044  1.00  0.00    -0.235 N 
HETATM   22  O2  UNL     1      19.334   1.596  49.678  1.00  0.00    -0.215 OA
HETATM   23  H16 UNL     1      20.494   0.137  48.920  1.00  0.00     0.197 HD
ENDBRANCH  18  19
ENDBRANCH  17  18
ENDBRANCH  14  17
BRANCH   1  24
HETATM   24  O1  UNL     1      26.661  -1.827  53.331  1.00  0.00    -0.355 OA
HETATM   25  C1  UNL     1      27.804  -2.341  52.704  1.00  0.00     0.210 C 
ENDBRANCH   1  24
TORSDOF 4
ENDMDL
MODEL 3
REMARK VINA RESULT:      -7.8      2.081      3.712
REMARK  4 active torsions:
REMARK  status: ('A' for Active; 'I' for Inactive)
REMARK    1  A    between atoms: O1_2  and  C2_3 
REMARK    2  A    between atoms: N2_16  and  C14_17 
REMARK    3  A    between atoms: C14_17  and  S1_18 
REMARK    4  A    between atoms: S1_18  and  C15_19 
ROOT
HETATM    1  C2  UNL     1      21.454   0.604  53.243  1.00  0.00     0.078 A 
HETATM    2  C3  UNL     1      20.864   1.808  52.844  1.00  0.00     0.038 A 
HETATM    3  C4  UNL     1      21.602   2.575  51.968  1.00  0.00     0.012 A 
HETATM    4  C5  UNL     1      22.831   2.167  51.523  1.00  0.00    -0.033 A 
HETATM    5  C6  UNL     1      23.453   1.006  51.865  1.00  0.00     0.023 A 
HETATM    6  C7  UNL     1      22.717   0.271  52.734  1.00  0.00    -0.002 A 
HETATM    7  C8  UNL     1      23.209  -0.892  53.417  1.00  0.00     0.015 C 
HETATM    8  C9  UNL     1      24.406  -0.471  53.870  1.00  0.00     0.007 C 
HETATM    9  C10 UNL     1      25.309   0.641  53.909  1.00  0.00    -0.060 C 
HETATM   10  C11 UNL     1      26.503   0.212  54.729  1.00  0.00     0.048 C 
HETATM   11  C12 UNL     1      25.495   1.877  53.510  1.00  0.00     0.035 C 
HETATM   12  C13 UNL     1      24.775   2.881  52.707  1.00  0.00     0.057 C 
HETATM   13  N1  UNL     1      23.929   3.852  52.752  1.00  0.00    -0.180 NA
HETATM   14  N2  UNL     1      23.694   4.416  51.468  1.00  0.00    -0.286 N 
HETATM   15  C17 UNL     1      23.686   3.089  50.756  1.00  0.00     0.144 C 
HETATM   16  C18 UNL     1      25.143   2.793  51.229  1.00  0.00     0.093 C 
ENDROOT
BRANCH  14  17
HETATM   17  C14 UNL     1      23.584   5.842  51.250  1.00  0.00     0.223 C 
BRANCH  17  18
HETATM   18  S1  UNL     1      24.900   6.599  50.327  1.00  0.00    -0.116 SA
BRANCH  18  19
HETATM   19  C15 UNL     1      24.678   8.330  49.980  1.00  0.00     0.106 C 
HETATM   20  C16 UNL     1      25.854   8.944  50.188  1.00  0.00     0.196 A 
HETATM   21  N3  UNL     1      27.158   8.660  50.581  1.00  0.00    -0.235 N 
HETATM   22  O2  UNL     1      26.848   9.985  50.278  1.00  0.00    -0.215 OA
HETATM   23  H16 UNL     1      28.165   8.580  50.860  1.00  0.00     0.197 HD
ENDBRANCH  18  19
ENDBRANCH  17  18
ENDBRANCH  14  17
BRANCH   1  24
HETATM   24  O1  UNL     1      20.714  -0.158  54.119  1.00  0.00    -0.355 OA
HETATM   25  C1  UNL     1      19.571  -0.889  53.769  1.00  0.00     0.210 C 
ENDBRANCH   1  24
TORSDOF 4
ENDMDL
MODEL 4
REMARK VINA RESULT:      -7.6      3.199      6.444
REMARK  4 active torsions:
REMARK  status: ('A' for Active; 'I' for Inactive)
REMARK    1  A    between atoms: O1_2  and  C2_3 
REMARK    2  A    between atoms: N2_16  and  C14_17 
REMARK    3  A    between atoms: C14_17  and  S1_18 
REMARK    4  A    between atoms: S1_18  and  C15_19 
ROOT
HETATM    1  C2  UNL     1      26.262   2.599  51.241  1.00  0.00     0.078 A 
HETATM    2  C3  UNL     1      25.347   1.978  52.100  1.00  0.00     0.038 A 
HETATM    3  C4  UNL     1      24.043   1.932  51.652  1.00  0.00     0.012 A 
HETATM    4  C5  UNL     1      23.685   2.462  50.441  1.00  0.00    -0.033 A 
HETATM    5  C6  UNL     1      24.526   3.067  49.560  1.00  0.00     0.023 A 
HETATM    6  C7  UNL     1      25.800   3.111  50.021  1.00  0.00    -0.002 A 
HETATM    7  C8  UNL     1      26.852   3.865  49.399  1.00  0.00     0.015 C 
HETATM    8  C9  UNL     1      26.261   5.058  49.188  1.00  0.00     0.007 C 
HETATM    9  C10 UNL     1      25.043   5.794  49.343  1.00  0.00    -0.060 C 
HETATM   10  C11 UNL     1      25.300   7.189  48.821  1.00  0.00     0.048 C 
HETATM   11  C12 UNL     1      23.801   5.725  49.761  1.00  0.00     0.035 C 
HETATM   12  C13 UNL     1      22.909   4.716  50.358  1.00  0.00     0.057 C 
HETATM   13  N1  UNL     1      22.485   4.212  51.465  1.00  0.00    -0.180 NA
HETATM   14  N2  UNL     1      21.532   3.178  51.253  1.00  0.00    -0.286 N 
HETATM   15  C17 UNL     1      22.264   2.585  50.077  1.00  0.00     0.144 C 
HETATM   16  C18 UNL     1      22.152   3.929  49.292  1.00  0.00     0.093 C 
ENDROOT
BRANCH  14  17
HETATM   17  C14 UNL     1      20.338   3.039  52.057  1.00  0.00     0.223 C 
BRANCH  17  18
HETATM   18  S1  UNL     1      19.658   1.401  52.174  1.00  0.00    -0.116 SA
BRANCH  18  19
HETATM   19  C15 UNL     1      20.857   0.099  52.359  1.00  0.00     0.106 C 
HETATM   20  C16 UNL     1      21.010  -0.133  53.673  1.00  0.00     0.196 A 
HETATM   21  N3  UNL     1      20.538   0.313  54.903  1.00  0.00    -0.235 N 
HETATM   22  O2  UNL     1      21.486  -0.710  54.907  1.00  0.00    -0.215 OA
HETATM   23  H16 UNL     1      20.266   0.555  55.886  1.00  0.00     0.197 HD
ENDBRANCH  18  19
ENDBRANCH  17  18
ENDBRANCH  14  17
BRANCH   1  24
HETATM   24  O1  UNL     1      27.561   2.643  51.693  1.00  0.00    -0.355 OA
HETATM   25  C1  UNL     1      27.979   2.214  52.960  1.00  0.00     0.210 C 
ENDBRANCH   1  24
TORSDOF 4
ENDMDL
MODEL 5
REMARK VINA RESULT:      -7.6      5.448      7.191
REMARK  4 active torsions:
REMARK  status: ('A' for Active; 'I' for Inactive)
REMARK    1  A    between atoms: O1_2  and  C2_3 
REMARK    2  A    between atoms: N2_16  and  C14_17 
REMARK    3  A    between atoms: C14_17  and  S1_18 
REMARK    4  A    between atoms: S1_18  and  C15_19 
ROOT
HETATM    1  C2  UNL     1      22.194  -0.017  53.153  1.00  0.00     0.078 A 
HETATM    2  C3  UNL     1      20.865  -0.455  53.203  1.00  0.00     0.038 A 
HETATM    3  C4  UNL     1      20.033   0.045  52.223  1.00  0.00     0.012 A 
HETATM    4  C5  UNL     1      20.495   0.911  51.268  1.00  0.00    -0.033 A 
HETATM    5  C6  UNL     1      21.773   1.365  51.160  1.00  0.00     0.023 A 
HETATM    6  C7  UNL     1      22.573   0.871  52.137  1.00  0.00    -0.002 A 
HETATM    7  C8  UNL     1      23.908   1.334  52.389  1.00  0.00     0.015 C 
HETATM    8  C9  UNL     1      23.753   2.672  52.377  1.00  0.00     0.007 C 
HETATM    9  C10 UNL     1      22.803   3.730  52.208  1.00  0.00    -0.060 C 
HETATM   10  C11 UNL     1      23.548   5.030  52.407  1.00  0.00     0.048 C 
HETATM   11  C12 UNL     1      21.546   4.003  51.950  1.00  0.00     0.035 C 
HETATM   12  C13 UNL     1      20.309   3.257  51.657  1.00  0.00     0.057 C 
HETATM   13  N1  UNL     1      19.268   2.704  52.178  1.00  0.00    -0.180 NA
HETATM   14  N2  UNL     1      18.418   2.130  51.193  1.00  0.00    -0.286 N 
HETATM   15  C17 UNL     1      19.552   1.588  50.363  1.00  0.00     0.144 C 
HETATM   16  C18 UNL     1      20.129   3.024  50.160  1.00  0.00     0.093 C 
ENDROOT
BRANCH  14  17
HETATM   17  C14 UNL     1      16.977   2.239  51.245  1.00  0.00     0.223 C 
BRANCH  17  18
HETATM   18  S1  UNL     1      16.328   3.768  51.877  1.00  0.00    -0.116 SA
BRANCH  18  19
HETATM   19  C15 UNL     1      14.552   3.864  51.940  1.00  0.00     0.106 C 
HETATM   20  C16 UNL     1      14.206   4.255  53.179  1.00  0.00     0.196 A 
HETATM   21  N3  UNL     1      14.786   4.598  54.395  1.00  0.00    -0.235 N 
HETATM   22  O2  UNL     1      13.394   4.633  54.309  1.00  0.00    -0.215 OA
HETATM   23  H16 UNL     1      15.094   4.877  55.358  1.00  0.00     0.197 HD
ENDBRANCH  18  19
ENDBRANCH  17  18
ENDBRANCH  14  17
BRANCH   1  24
HETATM   24  O1  UNL     1      23.019  -0.517  54.134  1.00  0.00    -0.355 OA
HETATM   25  C1  UNL     1      22.608  -1.384  55.155  1.00  0.00     0.210 C 
ENDBRANCH   1  24
TORSDOF 4
ENDMDL
MODEL 6
REMARK VINA RESULT:      -7.3      2.927      6.673
REMARK  4 active torsions:
REMARK  status: ('A' for Active; 'I' for Inactive)
REMARK    1  A    between atoms: O1_2  and  C2_3 
REMARK    2  A    between atoms: N2_16  and  C14_17 
REMARK    3  A    between atoms: C14_17  and  S1_18 
REMARK    4  A    between atoms: S1_18  and  C15_19 
ROOT
HETATM    1  C2  UNL     1      25.784   5.832  48.592  1.00  0.00     0.078 A 
HETATM    2  C3  UNL     1      26.559   4.821  49.173  1.00  0.00     0.038 A 
HETATM    3  C4  UNL     1      25.863   3.725  49.637  1.00  0.00     0.012 A 
HETATM    4  C5  UNL     1      24.500   3.646  49.526  1.00  0.00    -0.033 A 
HETATM    5  C6  UNL     1      23.693   4.588  48.965  1.00  0.00     0.023 A 
HETATM    6  C7  UNL     1      24.395   5.660  48.524  1.00  0.00    -0.002 A 
HETATM    7  C8  UNL     1      23.790   6.884  48.077  1.00  0.00     0.015 C 
HETATM    8  C9  UNL     1      22.891   7.129  49.050  1.00  0.00     0.007 C 
HETATM    9  C10 UNL     1      22.350   6.640  50.283  1.00  0.00    -0.060 C 
HETATM   10  C11 UNL     1      21.316   7.642  50.741  1.00  0.00     0.048 C 
HETATM   11  C12 UNL     1      22.407   5.666  51.160  1.00  0.00     0.035 C 
HETATM   12  C13 UNL     1      23.154   4.408  51.342  1.00  0.00     0.057 C 
HETATM   13  N1  UNL     1      24.211   3.879  51.853  1.00  0.00    -0.180 NA
HETATM   14  N2  UNL     1      24.274   2.478  51.622  1.00  0.00    -0.286 N 
HETATM   15  C17 UNL     1      23.762   2.570  50.208  1.00  0.00     0.144 C 
HETATM   16  C18 UNL     1      22.434   3.226  50.701  1.00  0.00     0.093 C 
ENDROOT
BRANCH  14  17
HETATM   17  C14 UNL     1      24.702   1.537  52.634  1.00  0.00     0.223 C 
BRANCH  17  18
HETATM   18  S1  UNL     1      26.370   0.942  52.496  1.00  0.00    -0.116 SA
BRANCH  18  19
HETATM   19  C15 UNL     1      27.623   2.206  52.498  1.00  0.00     0.106 C 
HETATM   20  C16 UNL     1      28.319   2.091  53.641  1.00  0.00     0.196 A 
HETATM   21  N3  UNL     1      28.367   1.315  54.794  1.00  0.00    -0.235 N 
HETATM   22  O2  UNL     1      29.299   2.345  54.669  1.00  0.00    -0.215 OA
HETATM   23  H16 UNL     1      28.509   0.809  55.701  1.00  0.00     0.197 HD
ENDBRANCH  18  19
ENDBRANCH  17  18
ENDBRANCH  14  17
BRANCH   1  24
HETATM   24  O1  UNL     1      26.483   6.924  48.132  1.00  0.00    -0.355 OA
HETATM   25  C1  UNL     1      27.389   7.670  48.898  1.00  0.00     0.210 C 
ENDBRANCH   1  24
TORSDOF 4
ENDMDL
MODEL 7
REMARK VINA RESULT:      -7.3      3.733      6.609
REMARK  4 active torsions:
REMARK  status: ('A' for Active; 'I' for Inactive)
REMARK    1  A    between atoms: O1_2  and  C2_3 
REMARK    2  A    between atoms: N2_16  and  C14_17 
REMARK    3  A    between atoms: C14_17  and  S1_18 
REMARK    4  A    between atoms: S1_18  and  C15_19 
ROOT
HETATM    1  C2  UNL     1      24.832   2.760  50.886  1.00  0.00     0.078 A 
HETATM    2  C3  UNL     1      23.788   2.846  49.958  1.00  0.00     0.038 A 
HETATM    3  C4  UNL     1      22.518   2.689  50.470  1.00  0.00     0.012 A 
HETATM    4  C5  UNL     1      22.309   2.468  51.805  1.00  0.00    -0.033 A 
HETATM    5  C6  UNL     1      23.278   2.385  52.757  1.00  0.00     0.023 A 
HETATM    6  C7  UNL     1      24.519   2.532  52.233  1.00  0.00    -0.002 A 
HETATM    7  C8  UNL     1      25.731   2.288  52.964  1.00  0.00     0.015 C 
HETATM    8  C9  UNL     1      25.476   1.102  53.550  1.00  0.00     0.007 C 
HETATM    9  C10 UNL     1      24.497   0.068  53.705  1.00  0.00    -0.060 C 
HETATM   10  C11 UNL     1      25.113  -0.996  54.583  1.00  0.00     0.048 C 
HETATM   11  C12 UNL     1      23.283  -0.307  53.379  1.00  0.00     0.035 C 
HETATM   12  C13 UNL     1      22.157   0.220  52.587  1.00  0.00     0.057 C 
HETATM   13  N1  UNL     1      21.618   0.249  51.418  1.00  0.00    -0.180 NA
HETATM   14  N2  UNL     1      20.425   1.022  51.397  1.00  0.00    -0.286 N 
HETATM   15  C17 UNL     1      20.970   2.102  52.295  1.00  0.00     0.144 C 
HETATM   16  C18 UNL     1      21.215   1.068  53.438  1.00  0.00     0.093 C 
ENDROOT
BRANCH  14  17
HETATM   17  C14 UNL     1      19.240   0.610  50.678  1.00  0.00     0.223 C 
BRANCH  17  18
HETATM   18  S1  UNL     1      17.712   0.676  51.583  1.00  0.00    -0.116 SA
BRANCH  18  19
HETATM   19  C15 UNL     1      16.901  -0.893  51.807  1.00  0.00     0.106 C 
HETATM   20  C16 UNL     1      17.492  -1.516  52.840  1.00  0.00     0.196 A 
HETATM   21  N3  UNL     1      18.512  -1.325  53.766  1.00  0.00    -0.235 N 
HETATM   22  O2  UNL     1      17.794  -2.518  53.832  1.00  0.00    -0.215 OA
HETATM   23  H16 UNL     1      19.247  -1.304  54.513  1.00  0.00     0.197 HD
ENDBRANCH  18  19
ENDBRANCH  17  18
ENDBRANCH  14  17
BRANCH   1  24
HETATM   24  O1  UNL     1      26.099   2.915  50.370  1.00  0.00    -0.355 OA
HETATM   25  C1  UNL     1      26.465   3.899  49.442  1.00  0.00     0.210 C 
ENDBRANCH   1  24
TORSDOF 4
ENDMDL
MODEL 8
REMARK VINA RESULT:      -7.2      2.763      3.786
REMARK  4 active torsions:
REMARK  status: ('A' for Active; 'I' for Inactive)
REMARK    1  A    between atoms: O1_2  and  C2_3 
REMARK    2  A    between atoms: N2_16  and  C14_17 
REMARK    3  A    between atoms: C14_17  and  S1_18 
REMARK    4  A    between atoms: S1_18  and  C15_19 
ROOT
HETATM    1  C2  UNL     1      22.880   0.325  53.011  1.00  0.00     0.078 A 
HETATM    2  C3  UNL     1      23.387   1.151  52.002  1.00  0.00     0.038 A 
HETATM    3  C4  UNL     1      22.567   2.188  51.609  1.00  0.00     0.012 A 
HETATM    4  C5  UNL     1      21.340   2.384  52.184  1.00  0.00    -0.033 A 
HETATM    5  C6  UNL     1      20.796   1.624  53.173  1.00  0.00     0.023 A 
HETATM    6  C7  UNL     1      21.612   0.605  53.538  1.00  0.00    -0.002 A 
HETATM    7  C8  UNL     1      21.215  -0.467  54.407  1.00  0.00     0.015 C 
HETATM    8  C9  UNL     1      20.022  -0.824  53.892  1.00  0.00     0.007 C 
HETATM    9  C10 UNL     1      19.067  -0.536  52.865  1.00  0.00    -0.060 C 
HETATM   10  C11 UNL     1      17.938  -1.529  53.019  1.00  0.00     0.048 C 
HETATM   11  C12 UNL     1      18.797   0.250  51.850  1.00  0.00     0.035 C 
HETATM   12  C13 UNL     1      19.423   1.395  51.164  1.00  0.00     0.057 C 
HETATM   13  N1  UNL     1      20.219   1.742  50.213  1.00  0.00    -0.180 NA
HETATM   14  N2  UNL     1      20.360   3.154  50.121  1.00  0.00    -0.286 N 
HETATM   15  C17 UNL     1      20.402   3.364  51.612  1.00  0.00     0.144 C 
HETATM   16  C18 UNL     1      18.986   2.725  51.771  1.00  0.00     0.093 C 
ENDROOT
BRANCH  14  17
HETATM   17  C14 UNL     1      20.386   3.856  48.856  1.00  0.00     0.223 C 
BRANCH  17  18
HETATM   18  S1  UNL     1      21.360   5.341  48.804  1.00  0.00    -0.116 SA
BRANCH  18  19
HETATM   19  C15 UNL     1      23.069   5.138  49.254  1.00  0.00     0.106 C 
HETATM   20  C16 UNL     1      23.230   5.640  50.491  1.00  0.00     0.196 A 
HETATM   21  N3  UNL     1      22.499   6.253  51.502  1.00  0.00    -0.235 N 
HETATM   22  O2  UNL     1      23.857   6.033  51.728  1.00  0.00    -0.215 OA
HETATM   23  H16 UNL     1      22.065   6.718  52.336  1.00  0.00     0.197 HD
ENDBRANCH  18  19
ENDBRANCH  17  18
ENDBRANCH  14  17
BRANCH   1  24
HETATM   24  O1  UNL     1      23.701  -0.710  53.398  1.00  0.00    -0.355 OA
HETATM   25  C1  UNL     1      25.006  -0.551  53.883  1.00  0.00     0.210 C 
ENDBRANCH   1  24
TORSDOF 4
ENDMDL
MODEL 9
REMARK VINA RESULT:      -7.1      4.264      7.100
REMARK  4 active torsions:
REMARK  status: ('A' for Active; 'I' for Inactive)
REMARK    1  A    between atoms: O1_2  and  C2_3 
REMARK    2  A    between atoms: N2_16  and  C14_17 
REMARK    3  A    between atoms: C14_17  and  S1_18 
REMARK    4  A    between atoms: S1_18  and  C15_19 
ROOT
HETATM    1  C2  UNL     1      17.667   2.301  51.410  1.00  0.00     0.078 A 
HETATM    2  C3  UNL     1      18.661   3.281  51.511  1.00  0.00     0.038 A 
HETATM    3  C4  UNL     1      19.958   2.836  51.362  1.00  0.00     0.012 A 
HETATM    4  C5  UNL     1      20.237   1.515  51.129  1.00  0.00    -0.033 A 
HETATM    5  C6  UNL     1      19.318   0.519  51.011  1.00  0.00     0.023 A 
HETATM    6  C7  UNL     1      18.051   0.974  51.169  1.00  0.00    -0.002 A 
HETATM    7  C8  UNL     1      16.903   0.121  51.297  1.00  0.00     0.015 C 
HETATM    8  C9  UNL     1      17.320  -0.783  52.205  1.00  0.00     0.007 C 
HETATM    9  C10 UNL     1      18.424  -1.180  53.028  1.00  0.00    -0.060 C 
HETATM   10  C11 UNL     1      17.973  -2.384  53.821  1.00  0.00     0.048 C 
HETATM   11  C12 UNL     1      19.663  -0.902  53.355  1.00  0.00     0.035 C 
HETATM   12  C13 UNL     1      20.689   0.091  52.988  1.00  0.00     0.057 C 
HETATM   13  N1  UNL     1      21.180   1.247  53.271  1.00  0.00    -0.180 NA
HETATM   14  N2  UNL     1      22.269   1.589  52.422  1.00  0.00    -0.286 N 
HETATM   15  C17 UNL     1      21.626   1.031  51.179  1.00  0.00     0.144 C 
HETATM   16  C18 UNL     1      21.548  -0.389  51.821  1.00  0.00     0.093 C 
ENDROOT
BRANCH  14  17
HETATM   17  C14 UNL     1      23.471   2.226  52.912  1.00  0.00     0.223 C 
BRANCH  17  18
HETATM   18  S1  UNL     1      25.006   1.440  52.483  1.00  0.00    -0.116 SA
BRANCH  18  19
HETATM   19  C15 UNL     1      25.274  -0.150  53.238  1.00  0.00     0.106 C 
HETATM   20  C16 UNL     1      26.210   0.001  54.190  1.00  0.00     0.196 A 
HETATM   21  N3  UNL     1      27.015   0.984  54.756  1.00  0.00    -0.235 N 
HETATM   22  O2  UNL     1      27.127  -0.312  55.259  1.00  0.00    -0.215 OA
HETATM   23  H16 UNL     1      27.670   1.625  55.265  1.00  0.00     0.197 HD
ENDBRANCH  18  19
ENDBRANCH  17  18
ENDBRANCH  14  17
BRANCH   1  24
HETATM   24  O1  UNL     1      16.375   2.750  51.560  1.00  0.00    -0.355 OA
HETATM   25  C1  UNL     1      15.945   4.050  51.264  1.00  0.00     0.210 C 
ENDBRANCH   1  24
TORSDOF 4
ENDMDL
