MODEL 1
REMARK VINA RESULT:      -7.7      0.000      0.000
REMARK  5 active torsions:
REMARK  status: ('A' for Active; 'I' for Inactive)
REMARK    1  A    between atoms: O1_2  and  C2_3 
REMARK    2  A    between atoms: C6_9  and  N3_10 
REMARK    3  A    between atoms: N3_10  and  C7_11 
REMARK    4  A    between atoms: C9_13  and  O2_14 
REMARK    5  A    between atoms: C15_21  and  O4_22 
ROOT
HETATM    1  C2  UNL     1      19.395  -0.414  52.701  1.00  0.00     0.103 A 
HETATM    2  C3  UNL     1      19.951  -1.019  53.814  1.00  0.00     0.072 A 
HETATM    3  C4  UNL     1      21.302  -0.941  54.071  1.00  0.00     0.075 A 
HETATM    4  N1  UNL     1      21.861  -1.526  55.154  1.00  0.00    -0.241 NA
HETATM    5  C5  UNL     1      23.195  -1.428  55.375  1.00  0.00     0.236 A 
HETATM    6  N2  UNL     1      24.001  -0.741  54.512  1.00  0.00    -0.224 NA
HETATM    7  C6  UNL     1      23.478  -0.160  53.444  1.00  0.00     0.141 A 
HETATM    8  C13 UNL     1      22.122  -0.247  53.204  1.00  0.00     0.042 A 
HETATM    9  C14 UNL     1      21.573   0.357  52.093  1.00  0.00     0.057 A 
HETATM   10  C15 UNL     1      20.219   0.281  51.833  1.00  0.00     0.102 A 
ENDROOT
BRANCH   7  11
HETATM   11  N3  UNL     1      24.366   0.538  52.588  1.00  0.00    -0.342 N 
HETATM   12  H6  UNL     1      24.219   0.990  51.659  1.00  0.00     0.167 HD
BRANCH  11  13
HETATM   13  C7  UNL     1      25.721   0.697  52.993  1.00  0.00     0.033 C 
HETATM   14  C8  UNL     1      26.714  -0.145  52.705  1.00  0.00     0.034 C 
HETATM   15  C9  UNL     1      28.133  -0.000  53.116  1.00  0.00     0.169 C 
HETATM   16  C11 UNL     1      28.306   1.268  53.913  1.00  0.00     0.204 C 
HETATM   17  O3  UNL     1      27.144   1.463  54.674  1.00  0.00    -0.382 OA
HETATM   18  C12 UNL     1      26.109   1.892  53.812  1.00  0.00     0.224 C 
BRANCH  15  19
HETATM   19  O2  UNL     1      28.596  -1.118  53.780  1.00  0.00    -0.385 OA
HETATM   20  C10 UNL     1      29.956  -1.288  53.776  1.00  0.00     0.202 C 
ENDBRANCH  15  19
ENDBRANCH  11  13
ENDBRANCH   7  11
BRANCH  10  21
HETATM   21  O4  UNL     1      19.681   0.903  50.698  1.00  0.00    -0.353 OA
HETATM   22  C16 UNL     1      20.580   1.245  49.655  1.00  0.00     0.210 C 
ENDBRANCH  10  21
BRANCH   1  23
HETATM   23  O1  UNL     1      18.056  -0.453  52.387  1.00  0.00    -0.353 OA
HETATM   24  C1  UNL     1      17.073  -1.247  52.973  1.00  0.00     0.210 C 
ENDBRANCH   1  23
TORSDOF 5
ENDMDL
MODEL 2
REMARK VINA RESULT:      -7.3      2.157      3.620
REMARK  5 active torsions:
REMARK  status: ('A' for Active; 'I' for Inactive)
REMARK    1  A    between atoms: O1_2  and  C2_3 
REMARK    2  A    between atoms: C6_9  and  N3_10 
REMARK    3  A    between atoms: N3_10  and  C7_11 
REMARK    4  A    between atoms: C9_13  and  O2_14 
REMARK    5  A    between atoms: C15_21  and  O4_22 
ROOT
HETATM    1  C2  UNL     1      21.257   0.663  51.810  1.00  0.00     0.103 A 
HETATM    2  C3  UNL     1      21.783   1.321  50.713  1.00  0.00     0.072 A 
HETATM    3  C4  UNL     1      22.993   1.976  50.784  1.00  0.00     0.075 A 
HETATM    4  N1  UNL     1      23.521   2.623  49.721  1.00  0.00    -0.241 NA
HETATM    5  C5  UNL     1      24.716   3.256  49.827  1.00  0.00     0.236 A 
HETATM    6  N2  UNL     1      25.408   3.254  51.005  1.00  0.00    -0.224 NA
HETATM    7  C6  UNL     1      24.912   2.628  52.060  1.00  0.00     0.141 A 
HETATM    8  C13 UNL     1      23.700   1.978  51.970  1.00  0.00     0.042 A 
HETATM    9  C14 UNL     1      23.179   1.323  53.067  1.00  0.00     0.057 A 
HETATM   10  C15 UNL     1      21.967   0.667  52.999  1.00  0.00     0.102 A 
ENDROOT
BRANCH   7  11
HETATM   11  N3  UNL     1      25.679   2.663  53.252  1.00  0.00    -0.342 N 
HETATM   12  H6  UNL     1      25.562   3.208  54.134  1.00  0.00     0.167 HD
BRANCH  11  13
HETATM   13  C7  UNL     1      26.834   1.837  53.344  1.00  0.00     0.033 C 
HETATM   14  C8  UNL     1      26.923   0.587  52.886  1.00  0.00     0.034 C 
HETATM   15  C9  UNL     1      28.116  -0.294  52.971  1.00  0.00     0.169 C 
HETATM   16  C11 UNL     1      29.244   0.440  53.650  1.00  0.00     0.204 C 
HETATM   17  O3  UNL     1      28.690   1.270  54.636  1.00  0.00    -0.382 OA
HETATM   18  C12 UNL     1      28.071   2.371  54.001  1.00  0.00     0.224 C 
BRANCH  15  19
HETATM   19  O2  UNL     1      27.825  -1.502  53.570  1.00  0.00    -0.385 OA
HETATM   20  C10 UNL     1      27.394  -2.493  52.727  1.00  0.00     0.202 C 
ENDBRANCH  15  19
ENDBRANCH  11  13
ENDBRANCH   7  11
BRANCH  10  21
HETATM   21  O4  UNL     1      21.456   0.007  54.126  1.00  0.00    -0.353 OA
HETATM   22  C16 UNL     1      22.283  -0.968  54.741  1.00  0.00     0.210 C 
ENDBRANCH  10  21
BRANCH   1  23
HETATM   23  O1  UNL     1      20.056  -0.008  51.808  1.00  0.00    -0.353 OA
HETATM   24  C1  UNL     1      18.844   0.431  51.281  1.00  0.00     0.210 C 
ENDBRANCH   1  23
TORSDOF 5
ENDMDL
MODEL 3
REMARK VINA RESULT:      -7.3      2.335      6.369
REMARK  5 active torsions:
REMARK  status: ('A' for Active; 'I' for Inactive)
REMARK    1  A    between atoms: O1_2  and  C2_3 
REMARK    2  A    between atoms: C6_9  and  N3_10 
REMARK    3  A    between atoms: N3_10  and  C7_11 
REMARK    4  A    between atoms: C9_13  and  O2_14 
REMARK    5  A    between atoms: C15_21  and  O4_22 
ROOT
HETATM    1  C2  UNL     1      26.131  -0.480  54.011  1.00  0.00     0.103 A 
HETATM    2  C3  UNL     1      25.122  -0.940  54.838  1.00  0.00     0.072 A 
HETATM    3  C4  UNL     1      23.799  -0.860  54.465  1.00  0.00     0.075 A 
HETATM    4  N1  UNL     1      22.802  -1.307  55.262  1.00  0.00    -0.241 NA
HETATM    5  C5  UNL     1      21.509  -1.212  54.861  1.00  0.00     0.236 A 
HETATM    6  N2  UNL     1      21.188  -0.667  53.650  1.00  0.00    -0.224 NA
HETATM    7  C6  UNL     1      22.146  -0.223  52.853  1.00  0.00     0.141 A 
HETATM    8  C13 UNL     1      23.466  -0.312  53.243  1.00  0.00     0.042 A 
HETATM    9  C14 UNL     1      24.468   0.149  52.415  1.00  0.00     0.057 A 
HETATM   10  C15 UNL     1      25.795   0.071  52.786  1.00  0.00     0.102 A 
ENDROOT
BRANCH   7  11
HETATM   11  N3  UNL     1      21.748   0.331  51.610  1.00  0.00    -0.342 N 
HETATM   12  H6  UNL     1      21.740  -0.068  50.646  1.00  0.00     0.167 HD
BRANCH  11  13
HETATM   13  C7  UNL     1      21.259   1.667  51.584  1.00  0.00     0.033 C 
HETATM   14  C8  UNL     1      22.009   2.757  51.421  1.00  0.00     0.034 C 
HETATM   15  C9  UNL     1      21.521   4.160  51.390  1.00  0.00     0.169 C 
HETATM   16  C11 UNL     1      20.024   4.182  51.560  1.00  0.00     0.204 C 
HETATM   17  O3  UNL     1      19.672   3.146  52.437  1.00  0.00    -0.382 OA
HETATM   18  C12 UNL     1      19.790   1.916  51.751  1.00  0.00     0.224 C 
BRANCH  15  19
HETATM   19  O2  UNL     1      22.178   4.956  52.307  1.00  0.00    -0.385 OA
HETATM   20  C10 UNL     1      23.438   4.545  52.653  1.00  0.00     0.202 C 
ENDBRANCH  15  19
ENDBRANCH  11  13
ENDBRANCH   7  11
BRANCH  10  21
HETATM   21  O4  UNL     1      26.799   0.545  51.929  1.00  0.00    -0.353 OA
HETATM   22  C16 UNL     1      26.792   1.931  51.623  1.00  0.00     0.210 C 
ENDBRANCH  10  21
BRANCH   1  23
HETATM   23  O1  UNL     1      27.471  -0.529  54.323  1.00  0.00    -0.353 OA
HETATM   24  C1  UNL     1      28.231   0.460  54.943  1.00  0.00     0.210 C 
ENDBRANCH   1  23
TORSDOF 5
ENDMDL
MODEL 4
REMARK VINA RESULT:      -7.2      3.437      6.797
REMARK  5 active torsions:
REMARK  status: ('A' for Active; 'I' for Inactive)
REMARK    1  A    between atoms: O1_2  and  C2_3 
REMARK    2  A    between atoms: C6_9  and  N3_10 
REMARK    3  A    between atoms: N3_10  and  C7_11 
REMARK    4  A    between atoms: C9_13  and  O2_14 
REMARK    5  A    between atoms: C15_21  and  O4_22 
ROOT
HETATM    1  C2  UNL     1      27.393  -0.520  53.285  1.00  0.00     0.103 A 
HETATM    2  C3  UNL     1      26.086  -0.973  53.285  1.00  0.00     0.072 A 
HETATM    3  C4  UNL     1      25.025  -0.098  53.193  1.00  0.00     0.075 A 
HETATM    4  N1  UNL     1      23.742  -0.525  53.190  1.00  0.00    -0.241 NA
HETATM    5  C5  UNL     1      22.724   0.365  53.098  1.00  0.00     0.236 A 
HETATM    6  N2  UNL     1      22.969   1.706  53.008  1.00  0.00    -0.224 NA
HETATM    7  C6  UNL     1      24.216   2.148  53.009  1.00  0.00     0.141 A 
HETATM    8  C13 UNL     1      25.265   1.258  53.100  1.00  0.00     0.042 A 
HETATM    9  C14 UNL     1      26.567   1.715  53.101  1.00  0.00     0.057 A 
HETATM   10  C15 UNL     1      27.631   0.841  53.193  1.00  0.00     0.102 A 
ENDROOT
BRANCH   7  11
HETATM   11  N3  UNL     1      24.404   3.550  52.913  1.00  0.00    -0.342 N 
HETATM   12  H6  UNL     1      24.690   4.260  53.622  1.00  0.00     0.167 HD
BRANCH  11  13
HETATM   13  C7  UNL     1      24.185   4.183  51.657  1.00  0.00     0.033 C 
HETATM   14  C8  UNL     1      24.906   3.973  50.554  1.00  0.00     0.034 C 
HETATM   15  C9  UNL     1      24.696   4.621  49.234  1.00  0.00     0.169 C 
HETATM   16  C11 UNL     1      23.520   5.561  49.309  1.00  0.00     0.204 C 
HETATM   17  O3  UNL     1      23.509   6.140  50.586  1.00  0.00    -0.382 OA
HETATM   18  C12 UNL     1      23.067   5.171  51.516  1.00  0.00     0.224 C 
BRANCH  15  19
HETATM   19  O2  UNL     1      25.842   5.232  48.770  1.00  0.00    -0.385 OA
HETATM   20  C10 UNL     1      27.016   4.582  49.050  1.00  0.00     0.202 C 
ENDBRANCH  15  19
ENDBRANCH  11  13
ENDBRANCH   7  11
BRANCH  10  21
HETATM   21  O4  UNL     1      28.947   1.326  53.192  1.00  0.00    -0.353 OA
HETATM   22  C16 UNL     1      29.435   1.885  54.401  1.00  0.00     0.210 C 
ENDBRANCH  10  21
BRANCH   1  23
HETATM   23  O1  UNL     1      28.496  -1.338  53.374  1.00  0.00    -0.353 OA
HETATM   24  C1  UNL     1      28.593  -2.670  52.980  1.00  0.00     0.210 C 
ENDBRANCH   1  23
TORSDOF 5
ENDMDL
MODEL 5
REMARK VINA RESULT:      -7.1      2.421      7.282
REMARK  5 active torsions:
REMARK  status: ('A' for Active; 'I' for Inactive)
REMARK    1  A    between atoms: O1_2  and  C2_3 
REMARK    2  A    between atoms: C6_9  and  N3_10 
REMARK    3  A    between atoms: N3_10  and  C7_11 
REMARK    4  A    between atoms: C9_13  and  O2_14 
REMARK    5  A    between atoms: C15_21  and  O4_22 
ROOT
HETATM    1  C2  UNL     1      27.212  -0.236  53.382  1.00  0.00     0.103 A 
HETATM    2  C3  UNL     1      27.534   0.679  52.396  1.00  0.00     0.072 A 
HETATM    3  C4  UNL     1      26.623   1.621  51.969  1.00  0.00     0.075 A 
HETATM    4  N1  UNL     1      26.922   2.523  51.008  1.00  0.00    -0.241 NA
HETATM    5  C5  UNL     1      26.000   3.436  50.613  1.00  0.00     0.236 A 
HETATM    6  N2  UNL     1      24.755   3.463  51.174  1.00  0.00    -0.224 NA
HETATM    7  C6  UNL     1      24.438   2.590  52.116  1.00  0.00     0.141 A 
HETATM    8  C13 UNL     1      25.363   1.656  52.532  1.00  0.00     0.042 A 
HETATM    9  C14 UNL     1      25.037   0.744  53.515  1.00  0.00     0.057 A 
HETATM   10  C15 UNL     1      25.948  -0.200  53.944  1.00  0.00     0.102 A 
ENDROOT
BRANCH   7  11
HETATM   11  N3  UNL     1      23.131   2.671  52.659  1.00  0.00    -0.342 N 
HETATM   12  H6  UNL     1      22.764   3.152  53.509  1.00  0.00     0.167 HD
BRANCH  11  13
HETATM   13  C7  UNL     1      22.070   2.006  51.984  1.00  0.00     0.033 C 
HETATM   14  C8  UNL     1      22.186   1.347  50.830  1.00  0.00     0.034 C 
HETATM   15  C9  UNL     1      21.094   0.646  50.107  1.00  0.00     0.169 C 
HETATM   16  C11 UNL     1      19.807   0.772  50.882  1.00  0.00     0.204 C 
HETATM   17  O3  UNL     1      19.791   2.035  51.492  1.00  0.00    -0.382 OA
HETATM   18  C12 UNL     1      20.694   2.021  52.579  1.00  0.00     0.224 C 
BRANCH  15  19
HETATM   19  O2  UNL     1      20.979   1.076  48.801  1.00  0.00    -0.385 OA
HETATM   20  C10 UNL     1      22.072   1.728  48.293  1.00  0.00     0.202 C 
ENDBRANCH  15  19
ENDBRANCH  11  13
ENDBRANCH   7  11
BRANCH  10  21
HETATM   21  O4  UNL     1      25.596  -1.117  54.945  1.00  0.00    -0.353 OA
HETATM   22  C16 UNL     1      24.225  -1.197  55.302  1.00  0.00     0.210 C 
ENDBRANCH  10  21
BRANCH   1  23
HETATM   23  O1  UNL     1      28.073  -1.201  53.853  1.00  0.00    -0.353 OA
HETATM   24  C1  UNL     1      29.409  -1.385  53.504  1.00  0.00     0.210 C 
ENDBRANCH   1  23
TORSDOF 5
ENDMDL
MODEL 6
REMARK VINA RESULT:      -7.0      2.100      7.201
REMARK  5 active torsions:
REMARK  status: ('A' for Active; 'I' for Inactive)
REMARK    1  A    between atoms: O1_2  and  C2_3 
REMARK    2  A    between atoms: C6_9  and  N3_10 
REMARK    3  A    between atoms: N3_10  and  C7_11 
REMARK    4  A    between atoms: C9_13  and  O2_14 
REMARK    5  A    between atoms: C15_21  and  O4_22 
ROOT
HETATM    1  C2  UNL     1      27.311   0.062  53.558  1.00  0.00     0.103 A 
HETATM    2  C3  UNL     1      27.542   0.825  52.428  1.00  0.00     0.072 A 
HETATM    3  C4  UNL     1      26.582   1.680  51.933  1.00  0.00     0.075 A 
HETATM    4  N1  UNL     1      26.792   2.433  50.830  1.00  0.00    -0.241 NA
HETATM    5  C5  UNL     1      25.824   3.264  50.372  1.00  0.00     0.236 A 
HETATM    6  N2  UNL     1      24.620   3.358  51.011  1.00  0.00    -0.224 NA
HETATM    7  C6  UNL     1      24.389   2.631  52.092  1.00  0.00     0.141 A 
HETATM    8  C13 UNL     1      25.363   1.781  52.573  1.00  0.00     0.042 A 
HETATM    9  C14 UNL     1      25.127   1.022  53.701  1.00  0.00     0.057 A 
HETATM   10  C15 UNL     1      26.088   0.164  54.198  1.00  0.00     0.102 A 
ENDROOT
BRANCH   7  11
HETATM   11  N3  UNL     1      23.121   2.774  52.709  1.00  0.00    -0.342 N 
HETATM   12  H6  UNL     1      22.781   3.429  53.446  1.00  0.00     0.167 HD
BRANCH  11  13
HETATM   13  C7  UNL     1      22.066   1.908  52.309  1.00  0.00     0.033 C 
HETATM   14  C8  UNL     1      21.169   1.359  53.129  1.00  0.00     0.034 C 
HETATM   15  C9  UNL     1      20.060   0.453  52.734  1.00  0.00     0.169 C 
HETATM   16  C11 UNL     1      20.079   0.244  51.242  1.00  0.00     0.204 C 
HETATM   17  O3  UNL     1      21.418   0.232  50.823  1.00  0.00    -0.382 OA
HETATM   18  C12 UNL     1      21.912   1.556  50.860  1.00  0.00     0.224 C 
BRANCH  15  19
HETATM   19  O2  UNL     1      20.083  -0.731  53.442  1.00  0.00    -0.385 OA
HETATM   20  C10 UNL     1      21.162  -0.907  54.269  1.00  0.00     0.202 C 
ENDBRANCH  15  19
ENDBRANCH  11  13
ENDBRANCH   7  11
BRANCH  10  21
HETATM   21  O4  UNL     1      25.828  -0.599  55.346  1.00  0.00    -0.353 OA
HETATM   22  C16 UNL     1      24.578  -1.267  55.414  1.00  0.00     0.210 C 
ENDBRANCH  10  21
BRANCH   1  23
HETATM   23  O1  UNL     1      28.225  -0.811  54.104  1.00  0.00    -0.353 OA
HETATM   24  C1  UNL     1      29.588  -0.886  53.829  1.00  0.00     0.210 C 
ENDBRANCH   1  23
TORSDOF 5
ENDMDL
MODEL 7
REMARK VINA RESULT:      -6.9      4.703      6.715
REMARK  5 active torsions:
REMARK  status: ('A' for Active; 'I' for Inactive)
REMARK    1  A    between atoms: O1_2  and  C2_3 
REMARK    2  A    between atoms: C6_9  and  N3_10 
REMARK    3  A    between atoms: N3_10  and  C7_11 
REMARK    4  A    between atoms: C9_13  and  O2_14 
REMARK    5  A    between atoms: C15_21  and  O4_22 
ROOT
HETATM    1  C2  UNL     1      24.629   0.853  53.435  1.00  0.00     0.103 A 
HETATM    2  C3  UNL     1      23.346   0.953  52.927  1.00  0.00     0.072 A 
HETATM    3  C4  UNL     1      22.835   2.162  52.509  1.00  0.00     0.075 A 
HETATM    4  N1  UNL     1      21.584   2.275  52.009  1.00  0.00    -0.241 NA
HETATM    5  C5  UNL     1      21.113   3.482  51.607  1.00  0.00     0.236 A 
HETATM    6  N2  UNL     1      21.888   4.603  51.698  1.00  0.00    -0.224 NA
HETATM    7  C6  UNL     1      23.115   4.518  52.184  1.00  0.00     0.141 A 
HETATM    8  C13 UNL     1      23.612   3.299  52.597  1.00  0.00     0.042 A 
HETATM    9  C14 UNL     1      24.891   3.205  53.104  1.00  0.00     0.057 A 
HETATM   10  C15 UNL     1      25.406   1.995  53.523  1.00  0.00     0.102 A 
ENDROOT
BRANCH   7  11
HETATM   11  N3  UNL     1      23.869   5.717  52.252  1.00  0.00    -0.342 N 
HETATM   12  H6  UNL     1      24.205   6.276  53.066  1.00  0.00     0.167 HD
BRANCH  11  13
HETATM   13  C7  UNL     1      24.280   6.334  51.038  1.00  0.00     0.033 C 
HETATM   14  C8  UNL     1      24.923   5.720  50.043  1.00  0.00     0.034 C 
HETATM   15  C9  UNL     1      25.362   6.343  48.768  1.00  0.00     0.169 C 
HETATM   16  C11 UNL     1      24.959   7.795  48.745  1.00  0.00     0.204 C 
HETATM   17  O3  UNL     1      25.065   8.295  50.052  1.00  0.00    -0.382 OA
HETATM   18  C12 UNL     1      23.989   7.788  50.816  1.00  0.00     0.224 C 
BRANCH  15  19
HETATM   19  O2  UNL     1      26.709   6.156  48.538  1.00  0.00    -0.385 OA
HETATM   20  C10 UNL     1      27.192   4.906  48.828  1.00  0.00     0.202 C 
ENDBRANCH  15  19
ENDBRANCH  11  13
ENDBRANCH   7  11
BRANCH  10  21
HETATM   21  O4  UNL     1      26.710   1.922  54.035  1.00  0.00    -0.353 OA
HETATM   22  C16 UNL     1      27.780   2.058  53.114  1.00  0.00     0.210 C 
ENDBRANCH  10  21
BRANCH   1  23
HETATM   23  O1  UNL     1      25.200  -0.321  53.870  1.00  0.00    -0.353 OA
HETATM   24  C1  UNL     1      24.927  -1.007  55.051  1.00  0.00     0.210 C 
ENDBRANCH   1  23
TORSDOF 5
ENDMDL
MODEL 8
REMARK VINA RESULT:      -6.7      3.826      5.193
REMARK  5 active torsions:
REMARK  status: ('A' for Active; 'I' for Inactive)
REMARK    1  A    between atoms: O1_2  and  C2_3 
REMARK    2  A    between atoms: C6_9  and  N3_10 
REMARK    3  A    between atoms: N3_10  and  C7_11 
REMARK    4  A    between atoms: C9_13  and  O2_14 
REMARK    5  A    between atoms: C15_21  and  O4_22 
ROOT
HETATM    1  C2  UNL     1      22.780   5.889  51.207  1.00  0.00     0.103 A 
HETATM    2  C3  UNL     1      21.639   5.311  51.734  1.00  0.00     0.072 A 
HETATM    3  C4  UNL     1      21.587   3.964  52.021  1.00  0.00     0.075 A 
HETATM    4  N1  UNL     1      20.480   3.384  52.538  1.00  0.00    -0.241 NA
HETATM    5  C5  UNL     1      20.465   2.055  52.808  1.00  0.00     0.236 A 
HETATM    6  N2  UNL     1      21.562   1.277  52.565  1.00  0.00    -0.224 NA
HETATM    7  C6  UNL     1      22.657   1.822  52.059  1.00  0.00     0.141 A 
HETATM    8  C13 UNL     1      22.691   3.172  51.780  1.00  0.00     0.042 A 
HETATM    9  C14 UNL     1      23.830   3.744  51.253  1.00  0.00     0.057 A 
HETATM   10  C15 UNL     1      23.885   5.093  50.965  1.00  0.00     0.102 A 
ENDROOT
BRANCH   7  11
HETATM   11  N3  UNL     1      23.760   0.962  51.831  1.00  0.00    -0.342 N 
HETATM   12  H6  UNL     1      24.080   0.460  50.973  1.00  0.00     0.167 HD
BRANCH  11  13
HETATM   13  C7  UNL     1      24.640   0.678  52.912  1.00  0.00     0.033 C 
HETATM   14  C8  UNL     1      25.740   1.371  53.210  1.00  0.00     0.034 C 
HETATM   15  C9  UNL     1      26.672   1.095  54.333  1.00  0.00     0.169 C 
HETATM   16  C11 UNL     1      26.186  -0.097  55.117  1.00  0.00     0.204 C 
HETATM   17  O3  UNL     1      25.600  -0.999  54.217  1.00  0.00    -0.382 OA
HETATM   18  C12 UNL     1      24.347  -0.482  53.815  1.00  0.00     0.224 C 
BRANCH  15  19
HETATM   19  O2  UNL     1      27.975   0.958  53.902  1.00  0.00    -0.385 OA
HETATM   20  C10 UNL     1      28.817   0.296  54.757  1.00  0.00     0.202 C 
ENDBRANCH  15  19
ENDBRANCH  11  13
ENDBRANCH   7  11
BRANCH  10  21
HETATM   21  O4  UNL     1      25.054   5.654  50.430  1.00  0.00    -0.353 OA
HETATM   22  C16 UNL     1      25.879   4.812  49.641  1.00  0.00     0.210 C 
ENDBRANCH  10  21
BRANCH   1  23
HETATM   23  O1  UNL     1      22.898   7.225  50.898  1.00  0.00    -0.353 OA
HETATM   24  C1  UNL     1      22.310   7.901  49.831  1.00  0.00     0.210 C 
ENDBRANCH   1  23
TORSDOF 5
ENDMDL
MODEL 9
REMARK VINA RESULT:      -6.6      3.325      4.816
REMARK  5 active torsions:
REMARK  status: ('A' for Active; 'I' for Inactive)
REMARK    1  A    between atoms: O1_2  and  C2_3 
REMARK    2  A    between atoms: C6_9  and  N3_10 
REMARK    3  A    between atoms: N3_10  and  C7_11 
REMARK    4  A    between atoms: C9_13  and  O2_14 
REMARK    5  A    between atoms: C15_21  and  O4_22 
ROOT
HETATM    1  C2  UNL     1      23.618   3.648  49.217  1.00  0.00     0.103 A 
HETATM    2  C3  UNL     1      22.949   2.657  49.912  1.00  0.00     0.072 A 
HETATM    3  C4  UNL     1      23.500   2.072  51.031  1.00  0.00     0.075 A 
HETATM    4  N1  UNL     1      22.859   1.103  51.722  1.00  0.00    -0.241 NA
HETATM    5  C5  UNL     1      23.431   0.550  52.820  1.00  0.00     0.236 A 
HETATM    6  N2  UNL     1      24.662   0.957  53.250  1.00  0.00    -0.224 NA
HETATM    7  C6  UNL     1      25.310   1.904  52.591  1.00  0.00     0.141 A 
HETATM    8  C13 UNL     1      24.743   2.479  51.473  1.00  0.00     0.042 A 
HETATM    9  C14 UNL     1      25.414   3.467  50.783  1.00  0.00     0.057 A 
HETATM   10  C15 UNL     1      24.865   4.054  49.661  1.00  0.00     0.102 A 
ENDROOT
BRANCH   7  11
HETATM   11  N3  UNL     1      26.583   2.282  53.087  1.00  0.00    -0.342 N 
HETATM   12  H6  UNL     1      26.992   3.219  53.297  1.00  0.00     0.167 HD
BRANCH  11  13
HETATM   13  C7  UNL     1      27.532   1.264  53.378  1.00  0.00     0.033 C 
HETATM   14  C8  UNL     1      27.667   0.123  52.700  1.00  0.00     0.034 C 
HETATM   15  C9  UNL     1      28.650  -0.954  52.984  1.00  0.00     0.169 C 
HETATM   16  C11 UNL     1      29.504  -0.566  54.164  1.00  0.00     0.204 C 
HETATM   17  O3  UNL     1      28.702   0.153  55.062  1.00  0.00    -0.382 OA
HETATM   18  C12 UNL     1      28.476   1.443  54.529  1.00  0.00     0.224 C 
BRANCH  15  19
HETATM   19  O2  UNL     1      28.040  -2.182  53.143  1.00  0.00    -0.385 OA
HETATM   20  C10 UNL     1      26.829  -2.327  52.520  1.00  0.00     0.202 C 
ENDBRANCH  15  19
ENDBRANCH  11  13
ENDBRANCH   7  11
BRANCH  10  21
HETATM   21  O4  UNL     1      25.564   5.057  48.974  1.00  0.00    -0.353 OA
HETATM   22  C16 UNL     1      25.739   6.300  49.637  1.00  0.00     0.210 C 
ENDBRANCH  10  21
BRANCH   1  23
HETATM   23  O1  UNL     1      23.126   4.273  48.093  1.00  0.00    -0.353 OA
HETATM   24  C1  UNL     1      21.846   4.161  47.558  1.00  0.00     0.210 C 
ENDBRANCH   1  23
TORSDOF 5
ENDMDL
