MODEL 1
REMARK VINA RESULT:      -7.5      0.000      0.000
REMARK  3 active torsions:
REMARK  status: ('A' for Active; 'I' for Inactive)
REMARK    1  A    between atoms: C2_2  and  C3_3 
REMARK    2  A    between atoms: C12_14  and  C13_15 
REMARK    3  A    between atoms: C13_15  and  O2_16 
ROOT
HETATM    1  C3  UNL     1      24.994   1.905  53.000  1.00  0.00     0.057 C 
HETATM    2  C4  UNL     1      24.749   2.851  51.943  1.00  0.00    -0.050 C 
HETATM    3  C5  UNL     1      24.179   4.080  51.749  1.00  0.00     0.019 C 
HETATM    4  C6  UNL     1      23.656   5.339  51.260  1.00  0.00     0.276 C 
HETATM    5  N1  UNL     1      24.331   6.467  51.810  1.00  0.00     0.122 N 
HETATM    6  C7  UNL     1      24.723   7.395  50.742  1.00  0.00     0.368 C 
HETATM    7  C8  UNL     1      23.447   7.826  50.088  1.00  0.00     0.055 C 
HETATM    8  C9  UNL     1      22.166   7.749  50.443  1.00  0.00     0.135 C 
HETATM    9  O1  UNL     1      21.665   6.701  51.228  1.00  0.00    -0.355 OA
HETATM   10  C10 UNL     1      22.140   5.422  51.466  1.00  0.00     0.167 C 
HETATM   11  C11 UNL     1      21.483   4.465  50.468  1.00  0.00     0.069 C 
HETATM   12  C12 UNL     1      22.421   4.139  49.303  1.00  0.00     0.148 C 
HETATM   13  O3  UNL     1      23.482   3.383  49.793  1.00  0.00    -0.373 OA
HETATM   14  C15 UNL     1      24.862   3.678  49.693  1.00  0.00     0.071 C 
HETATM   15  C16 UNL     1      26.070   4.268  49.405  1.00  0.00     0.101 C 
HETATM   16  C17 UNL     1      27.269   5.047  49.005  1.00  0.00     0.117 C 
HETATM   17  N2  UNL     1      26.938   6.255  48.555  1.00  0.00    -0.255 NA
HETATM   18  C18 UNL     1      25.519   6.584  48.555  1.00  0.00     0.229 C 
HETATM   19  N3  UNL     1      25.635   6.910  49.792  1.00  0.00    -0.243 NA
HETATM   20  C19 UNL     1      25.255   2.496  50.514  1.00  0.00     0.075 C 
HETATM   21  H6  UNL     1      23.725   7.021  52.455  1.00  0.00     0.320 HD
ENDROOT
BRANCH   1  22
HETATM   22  C2  UNL     1      24.103   0.951  53.217  1.00  0.00    -0.154 C 
HETATM   23  C1  UNL     1      23.233  -0.044  53.121  1.00  0.00     0.096 C 
ENDBRANCH   1  22
BRANCH  12  24
HETATM   24  C13 UNL     1      21.678   3.158  48.350  1.00  0.00     0.199 C 
BRANCH  24  25
HETATM   25  O2  UNL     1      22.186   1.888  48.483  1.00  0.00    -0.393 OA
HETATM   26  C14 UNL     1      21.154   1.073  48.964  1.00  0.00     0.201 C 
ENDBRANCH  24  25
ENDBRANCH  12  24
TORSDOF 3
ENDMDL
MODEL 2
REMARK VINA RESULT:      -7.0      2.603      5.476
REMARK  3 active torsions:
REMARK  status: ('A' for Active; 'I' for Inactive)
REMARK    1  A    between atoms: C2_2  and  C3_3 
REMARK    2  A    between atoms: C12_14  and  C13_15 
REMARK    3  A    between atoms: C13_15  and  O2_16 
ROOT
HETATM    1  C3  UNL     1      26.553   3.238  49.390  1.00  0.00     0.057 C 
HETATM    2  C4  UNL     1      25.177   3.254  49.812  1.00  0.00    -0.050 C 
HETATM    3  C5  UNL     1      23.925   3.032  49.307  1.00  0.00     0.019 C 
HETATM    4  C6  UNL     1      22.509   2.865  49.049  1.00  0.00     0.276 C 
HETATM    5  N1  UNL     1      22.162   1.521  48.727  1.00  0.00     0.122 N 
HETATM    6  C7  UNL     1      21.017   1.085  49.535  1.00  0.00     0.368 C 
HETATM    7  C8  UNL     1      19.892   2.007  49.178  1.00  0.00     0.055 C 
HETATM    8  C9  UNL     1      19.692   2.860  48.176  1.00  0.00     0.135 C 
HETATM    9  O1  UNL     1      20.744   3.548  47.553  1.00  0.00    -0.355 OA
HETATM   10  C10 UNL     1      22.026   3.852  47.981  1.00  0.00     0.167 C 
HETATM   11  C11 UNL     1      22.009   5.247  48.612  1.00  0.00     0.069 C 
HETATM   12  C12 UNL     1      21.973   5.170  50.140  1.00  0.00     0.148 C 
HETATM   13  O3  UNL     1      23.187   4.653  50.583  1.00  0.00    -0.373 OA
HETATM   14  C15 UNL     1      23.387   3.509  51.390  1.00  0.00     0.071 C 
HETATM   15  C16 UNL     1      23.199   2.388  52.165  1.00  0.00     0.101 C 
HETATM   16  C17 UNL     1      22.804   1.206  52.970  1.00  0.00     0.117 C 
HETATM   17  N2  UNL     1      21.515   0.914  52.808  1.00  0.00    -0.255 NA
HETATM   18  C18 UNL     1      20.766   1.763  51.891  1.00  0.00     0.229 C 
HETATM   19  N3  UNL     1      21.208   1.041  50.925  1.00  0.00    -0.243 NA
HETATM   20  C19 UNL     1      24.873   3.606  51.298  1.00  0.00     0.075 C 
HETATM   21  H6  UNL     1      21.863   1.411  47.733  1.00  0.00     0.320 HD
ENDROOT
BRANCH   1  22
HETATM   22  C2  UNL     1      27.096   4.362  48.951  1.00  0.00    -0.154 C 
HETATM   23  C1  UNL     1      27.909   5.339  48.577  1.00  0.00     0.096 C 
ENDBRANCH   1  22
BRANCH  12  24
HETATM   24  C13 UNL     1      21.969   6.625  50.693  1.00  0.00     0.199 C 
BRANCH  24  25
HETATM   25  O2  UNL     1      23.240   6.999  51.060  1.00  0.00    -0.393 OA
HETATM   26  C14 UNL     1      23.574   8.135  50.314  1.00  0.00     0.201 C 
ENDBRANCH  24  25
ENDBRANCH  12  24
TORSDOF 3
ENDMDL
MODEL 3
REMARK VINA RESULT:      -6.7      3.071      5.717
REMARK  3 active torsions:
REMARK  status: ('A' for Active; 'I' for Inactive)
REMARK    1  A    between atoms: C2_2  and  C3_3 
REMARK    2  A    between atoms: C12_14  and  C13_15 
REMARK    3  A    between atoms: C13_15  and  O2_16 
ROOT
HETATM    1  C3  UNL     1      22.620   2.171  47.503  1.00  0.00     0.057 C 
HETATM    2  C4  UNL     1      22.799   2.178  48.931  1.00  0.00    -0.050 C 
HETATM    3  C5  UNL     1      22.211   1.681  50.062  1.00  0.00     0.019 C 
HETATM    4  C6  UNL     1      21.810   1.296  51.400  1.00  0.00     0.276 C 
HETATM    5  N1  UNL     1      21.897  -0.109  51.619  1.00  0.00     0.122 N 
HETATM    6  C7  UNL     1      22.620  -0.385  52.866  1.00  0.00     0.368 C 
HETATM    7  C8  UNL     1      21.815   0.258  53.954  1.00  0.00     0.055 C 
HETATM    8  C9  UNL     1      20.571   0.727  54.015  1.00  0.00     0.135 C 
HETATM    9  O1  UNL     1      19.924   1.289  52.904  1.00  0.00    -0.355 OA
HETATM   10  C10 UNL     1      20.419   1.843  51.735  1.00  0.00     0.167 C 
HETATM   11  C11 UNL     1      20.548   3.355  51.930  1.00  0.00     0.069 C 
HETATM   12  C12 UNL     1      21.993   3.759  52.232  1.00  0.00     0.148 C 
HETATM   13  O3  UNL     1      22.759   3.536  51.091  1.00  0.00    -0.373 OA
HETATM   14  C15 UNL     1      23.917   2.731  50.982  1.00  0.00     0.071 C 
HETATM   15  C16 UNL     1      24.978   1.897  51.249  1.00  0.00     0.101 C 
HETATM   16  C17 UNL     1      26.056   0.993  51.723  1.00  0.00     0.117 C 
HETATM   17  N2  UNL     1      25.804   0.533  52.947  1.00  0.00    -0.255 NA
HETATM   18  C18 UNL     1      24.558   0.969  53.563  1.00  0.00     0.229 C 
HETATM   19  N3  UNL     1      23.959   0.031  52.922  1.00  0.00    -0.243 NA
HETATM   20  C19 UNL     1      24.024   2.946  49.509  1.00  0.00     0.075 C 
HETATM   21  H6  UNL     1      20.961  -0.556  51.732  1.00  0.00     0.320 HD
ENDROOT
BRANCH   1  22
HETATM   22  C2  UNL     1      21.924   3.151  46.946  1.00  0.00    -0.154 C 
HETATM   23  C1  UNL     1      21.512   4.264  46.359  1.00  0.00     0.096 C 
ENDBRANCH   1  22
BRANCH  12  24
HETATM   24  C13 UNL     1      22.032   5.306  52.403  1.00  0.00     0.199 C 
BRANCH  24  25
HETATM   25  O2  UNL     1      22.521   5.900  51.265  1.00  0.00    -0.393 OA
HETATM   26  C14 UNL     1      21.595   6.873  50.870  1.00  0.00     0.201 C 
ENDBRANCH  24  25
ENDBRANCH  12  24
TORSDOF 3
ENDMDL
MODEL 4
REMARK VINA RESULT:      -6.7      4.948      7.217
REMARK  3 active torsions:
REMARK  status: ('A' for Active; 'I' for Inactive)
REMARK    1  A    between atoms: C2_2  and  C3_3 
REMARK    2  A    between atoms: C12_14  and  C13_15 
REMARK    3  A    between atoms: C13_15  and  O2_16 
ROOT
HETATM    1  C3  UNL     1      25.339   7.335  50.527  1.00  0.00     0.057 C 
HETATM    2  C4  UNL     1      26.424   7.697  49.653  1.00  0.00    -0.050 C 
HETATM    3  C5  UNL     1      27.413   8.635  49.545  1.00  0.00     0.019 C 
HETATM    4  C6  UNL     1      28.531   9.482  49.182  1.00  0.00     0.276 C 
HETATM    5  N1  UNL     1      29.603   9.412  50.118  1.00  0.00     0.122 N 
HETATM    6  C7  UNL     1      30.874   9.189  49.418  1.00  0.00     0.368 C 
HETATM    7  C8  UNL     1      31.054  10.370  48.515  1.00  0.00     0.055 C 
HETATM    8  C9  UNL     1      30.482  11.570  48.454  1.00  0.00     0.135 C 
HETATM    9  O1  UNL     1      29.149  11.788  48.834  1.00  0.00    -0.355 OA
HETATM   10  C10 UNL     1      28.072  10.925  48.944  1.00  0.00     0.167 C 
HETATM   11  C11 UNL     1      27.290  10.952  47.629  1.00  0.00     0.069 C 
HETATM   12  C12 UNL     1      27.625   9.743  46.752  1.00  0.00     0.148 C 
HETATM   13  O3  UNL     1      27.131   8.600  47.373  1.00  0.00    -0.373 OA
HETATM   14  C15 UNL     1      27.858   7.445  47.745  1.00  0.00     0.071 C 
HETATM   15  C16 UNL     1      28.853   6.518  47.948  1.00  0.00     0.101 C 
HETATM   16  C17 UNL     1      30.048   5.648  48.082  1.00  0.00     0.117 C 
HETATM   17  N2  UNL     1      31.169   6.310  47.802  1.00  0.00    -0.255 NA
HETATM   18  C18 UNL     1      31.022   7.716  47.448  1.00  0.00     0.229 C 
HETATM   19  N3  UNL     1      30.995   7.988  48.703  1.00  0.00    -0.243 NA
HETATM   20  C19 UNL     1      26.674   6.812  48.396  1.00  0.00     0.075 C 
HETATM   21  H6  UNL     1      29.728  10.301  50.651  1.00  0.00     0.320 HD
ENDROOT
BRANCH   1  22
HETATM   22  C2  UNL     1      24.134   7.823  50.278  1.00  0.00    -0.154 C 
HETATM   23  C1  UNL     1      22.834   8.028  50.128  1.00  0.00     0.096 C 
ENDBRANCH   1  22
BRANCH  12  24
HETATM   24  C13 UNL     1      26.782   9.848  45.449  1.00  0.00     0.199 C 
BRANCH  24  25
HETATM   25  O2  UNL     1      27.053   8.787  44.618  1.00  0.00    -0.393 OA
HETATM   26  C14 UNL     1      25.976   8.663  43.732  1.00  0.00     0.201 C 
ENDBRANCH  24  25
ENDBRANCH  12  24
TORSDOF 3
ENDMDL
MODEL 5
REMARK VINA RESULT:      -6.5      3.209      5.624
REMARK  3 active torsions:
REMARK  status: ('A' for Active; 'I' for Inactive)
REMARK    1  A    between atoms: C2_2  and  C3_3 
REMARK    2  A    between atoms: C12_14  and  C13_15 
REMARK    3  A    between atoms: C13_15  and  O2_16 
ROOT
HETATM    1  C3  UNL     1      21.533  -0.398  52.656  1.00  0.00     0.057 C 
HETATM    2  C4  UNL     1      21.287   0.845  51.973  1.00  0.00    -0.050 C 
HETATM    3  C5  UNL     1      21.328   1.372  50.711  1.00  0.00     0.019 C 
HETATM    4  C6  UNL     1      21.281   2.180  49.509  1.00  0.00     0.276 C 
HETATM    5  N1  UNL     1      20.296   1.733  48.581  1.00  0.00     0.122 N 
HETATM    6  C7  UNL     1      19.469   2.860  48.136  1.00  0.00     0.368 C 
HETATM    7  C8  UNL     1      20.410   3.817  47.469  1.00  0.00     0.055 C 
HETATM    8  C9  UNL     1      21.655   3.706  47.013  1.00  0.00     0.135 C 
HETATM    9  O1  UNL     1      22.597   2.849  47.601  1.00  0.00    -0.355 OA
HETATM   10  C10 UNL     1      22.668   2.288  48.866  1.00  0.00     0.167 C 
HETATM   11  C11 UNL     1      23.523   3.195  49.753  1.00  0.00     0.069 C 
HETATM   12  C12 UNL     1      22.654   4.077  50.655  1.00  0.00     0.148 C 
HETATM   13  O3  UNL     1      22.017   3.260  51.584  1.00  0.00    -0.373 OA
HETATM   14  C15 UNL     1      20.626   3.147  51.813  1.00  0.00     0.071 C 
HETATM   15  C16 UNL     1      19.260   3.304  51.761  1.00  0.00     0.101 C 
HETATM   16  C17 UNL     1      17.821   3.605  51.562  1.00  0.00     0.117 C 
HETATM   17  N2  UNL     1      17.620   4.329  50.463  1.00  0.00    -0.255 NA
HETATM   18  C18 UNL     1      18.803   4.663  49.679  1.00  0.00     0.229 C 
HETATM   19  N3  UNL     1      18.708   3.510  49.120  1.00  0.00    -0.243 NA
HETATM   20  C19 UNL     1      20.798   2.058  52.818  1.00  0.00     0.075 C 
HETATM   21  H6  UNL     1      20.716   1.332  47.714  1.00  0.00     0.320 HD
ENDROOT
BRANCH   1  22
HETATM   22  C2  UNL     1      22.736  -0.615  53.164  1.00  0.00    -0.154 C 
HETATM   23  C1  UNL     1      23.964  -0.518  53.652  1.00  0.00     0.096 C 
ENDBRANCH   1  22
BRANCH  12  24
HETATM   24  C13 UNL     1      23.602   4.953  51.524  1.00  0.00     0.199 C 
BRANCH  24  25
HETATM   25  O2  UNL     1      24.565   5.539  50.738  1.00  0.00    -0.393 OA
HETATM   26  C14 UNL     1      24.434   6.926  50.879  1.00  0.00     0.201 C 
ENDBRANCH  24  25
ENDBRANCH  12  24
TORSDOF 3
ENDMDL
MODEL 6
REMARK VINA RESULT:      -6.1     23.452     25.926
REMARK  3 active torsions:
REMARK  status: ('A' for Active; 'I' for Inactive)
REMARK    1  A    between atoms: C2_2  and  C3_3 
REMARK    2  A    between atoms: C12_14  and  C13_15 
REMARK    3  A    between atoms: C13_15  and  O2_16 
ROOT
HETATM    1  C3  UNL     1      39.076  -5.121  66.600  1.00  0.00     0.057 C 
HETATM    2  C4  UNL     1      39.379  -3.981  67.423  1.00  0.00    -0.050 C 
HETATM    3  C5  UNL     1      40.399  -3.098  67.656  1.00  0.00     0.019 C 
HETATM    4  C6  UNL     1      41.290  -2.047  68.101  1.00  0.00     0.276 C 
HETATM    5  N1  UNL     1      41.587  -1.104  67.075  1.00  0.00     0.122 N 
HETATM    6  C7  UNL     1      41.392   0.264  67.570  1.00  0.00     0.368 C 
HETATM    7  C8  UNL     1      42.350   0.424  68.710  1.00  0.00     0.055 C 
HETATM    8  C9  UNL     1      43.412  -0.268  69.116  1.00  0.00     0.135 C 
HETATM    9  O1  UNL     1      43.520  -1.654  68.934  1.00  0.00    -0.355 OA
HETATM   10  C10 UNL     1      42.561  -2.632  68.725  1.00  0.00     0.167 C 
HETATM   11  C11 UNL     1      42.179  -3.235  70.079  1.00  0.00     0.069 C 
HETATM   12  C12 UNL     1      40.862  -2.654  70.600  1.00  0.00     0.148 C 
HETATM   13  O3  UNL     1      39.832  -3.091  69.772  1.00  0.00    -0.373 OA
HETATM   14  C15 UNL     1      38.906  -2.292  69.062  1.00  0.00     0.071 C 
HETATM   15  C16 UNL     1      38.199  -1.232  68.543  1.00  0.00     0.101 C 
HETATM   16  C17 UNL     1      37.559   0.026  68.085  1.00  0.00     0.117 C 
HETATM   17  N2  UNL     1      38.292   1.091  68.405  1.00  0.00    -0.255 NA
HETATM   18  C18 UNL     1      39.546   0.832  69.101  1.00  0.00     0.229 C 
HETATM   19  N3  UNL     1      40.089   0.613  67.958  1.00  0.00    -0.243 NA
HETATM   20  C19 UNL     1      38.276  -3.471  68.398  1.00  0.00     0.075 C 
HETATM   21  H6  UNL     1      42.581  -1.151  66.763  1.00  0.00     0.320 HD
ENDROOT
BRANCH   1  22
HETATM   22  C2  UNL     1      39.321  -6.332  67.077  1.00  0.00    -0.154 C 
HETATM   23  C1  UNL     1      39.763  -7.386  67.745  1.00  0.00     0.096 C 
ENDBRANCH   1  22
BRANCH  12  24
HETATM   24  C13 UNL     1      40.548  -3.328  71.966  1.00  0.00     0.199 C 
BRANCH  24  25
HETATM   25  O2  UNL     1      39.640  -4.347  71.799  1.00  0.00    -0.393 OA
HETATM   26  C14 UNL     1      40.084  -5.433  72.563  1.00  0.00     0.201 C 
ENDBRANCH  24  25
ENDBRANCH  12  24
TORSDOF 3
ENDMDL
MODEL 7
REMARK VINA RESULT:      -6.1      4.966      8.324
REMARK  3 active torsions:
REMARK  status: ('A' for Active; 'I' for Inactive)
REMARK    1  A    between atoms: C2_2  and  C3_3 
REMARK    2  A    between atoms: C12_14  and  C13_15 
REMARK    3  A    between atoms: C13_15  and  O2_16 
ROOT
HETATM    1  C3  UNL     1      27.188   9.055  44.064  1.00  0.00     0.057 C 
HETATM    2  C4  UNL     1      27.754   9.103  45.387  1.00  0.00    -0.050 C 
HETATM    3  C5  UNL     1      28.655   8.430  46.165  1.00  0.00     0.019 C 
HETATM    4  C6  UNL     1      29.538   7.920  47.194  1.00  0.00     0.276 C 
HETATM    5  N1  UNL     1      30.915   8.029  46.844  1.00  0.00     0.122 N 
HETATM    6  C7  UNL     1      31.671   8.643  47.942  1.00  0.00     0.368 C 
HETATM    7  C8  UNL     1      31.509   7.722  49.113  1.00  0.00     0.055 C 
HETATM    8  C9  UNL     1      31.092   6.465  49.236  1.00  0.00     0.135 C 
HETATM    9  O1  UNL     1      30.128   5.906  48.384  1.00  0.00    -0.355 OA
HETATM   10  C10 UNL     1      29.158   6.488  47.584  1.00  0.00     0.167 C 
HETATM   11  C11 UNL     1      27.850   6.553  48.377  1.00  0.00     0.069 C 
HETATM   12  C12 UNL     1      27.613   7.952  48.951  1.00  0.00     0.148 C 
HETATM   13  O3  UNL     1      27.370   8.826  47.894  1.00  0.00    -0.373 OA
HETATM   14  C15 UNL     1      28.075  10.012  47.585  1.00  0.00     0.071 C 
HETATM   15  C16 UNL     1      28.955  11.069  47.599  1.00  0.00     0.101 C 
HETATM   16  C17 UNL     1      29.982  12.125  47.775  1.00  0.00     0.117 C 
HETATM   17  N2  UNL     1      30.890  11.777  48.685  1.00  0.00    -0.255 NA
HETATM   18  C18 UNL     1      30.725  10.467  49.301  1.00  0.00     0.229 C 
HETATM   19  N3  UNL     1      31.325   9.958  48.286  1.00  0.00    -0.243 NA
HETATM   20  C19 UNL     1      27.291  10.247  46.337  1.00  0.00     0.075 C 
HETATM   21  H6  UNL     1      31.361   7.100  46.680  1.00  0.00     0.320 HD
ENDROOT
BRANCH   1  22
HETATM   22  C2  UNL     1      26.062   8.384  43.880  1.00  0.00    -0.154 C 
HETATM   23  C1  UNL     1      24.816   7.935  43.884  1.00  0.00     0.096 C 
ENDBRANCH   1  22
BRANCH  12  24
HETATM   24  C13 UNL     1      26.264   7.929  49.727  1.00  0.00     0.199 C 
BRANCH  24  25
HETATM   25  O2  UNL     1      25.911   6.636  50.033  1.00  0.00    -0.393 OA
HETATM   26  C14 UNL     1      24.699   6.686  50.731  1.00  0.00     0.201 C 
ENDBRANCH  24  25
ENDBRANCH  12  24
TORSDOF 3
ENDMDL
MODEL 8
REMARK VINA RESULT:      -6.0      2.438      5.554
REMARK  3 active torsions:
REMARK  status: ('A' for Active; 'I' for Inactive)
REMARK    1  A    between atoms: C2_2  and  C3_3 
REMARK    2  A    between atoms: C12_14  and  C13_15 
REMARK    3  A    between atoms: C13_15  and  O2_16 
ROOT
HETATM    1  C3  UNL     1      26.485   5.761  48.715  1.00  0.00     0.057 C 
HETATM    2  C4  UNL     1      25.205   5.317  49.200  1.00  0.00    -0.050 C 
HETATM    3  C5  UNL     1      24.124   4.587  48.786  1.00  0.00     0.019 C 
HETATM    4  C6  UNL     1      22.873   3.877  48.618  1.00  0.00     0.276 C 
HETATM    5  N1  UNL     1      23.052   2.472  48.466  1.00  0.00     0.122 N 
HETATM    6  C7  UNL     1      22.156   1.745  49.373  1.00  0.00     0.368 C 
HETATM    7  C8  UNL     1      20.766   2.134  48.972  1.00  0.00     0.055 C 
HETATM    8  C9  UNL     1      20.258   2.722  47.892  1.00  0.00     0.135 C 
HETATM    9  O1  UNL     1      20.973   3.670  47.145  1.00  0.00    -0.355 OA
HETATM   10  C10 UNL     1      22.050   4.477  47.473  1.00  0.00     0.167 C 
HETATM   11  C11 UNL     1      21.516   5.832  47.944  1.00  0.00     0.069 C 
HETATM   12  C12 UNL     1      21.518   5.934  49.471  1.00  0.00     0.148 C 
HETATM   13  O3  UNL     1      22.839   5.962  49.908  1.00  0.00    -0.373 OA
HETATM   14  C15 UNL     1      23.456   5.082  50.827  1.00  0.00     0.071 C 
HETATM   15  C16 UNL     1      23.704   4.074  51.730  1.00  0.00     0.101 C 
HETATM   16  C17 UNL     1      23.783   2.937  52.681  1.00  0.00     0.117 C 
HETATM   17  N2  UNL     1      22.696   2.171  52.616  1.00  0.00    -0.255 NA
HETATM   18  C18 UNL     1      21.680   2.563  51.649  1.00  0.00     0.229 C 
HETATM   19  N3  UNL     1      22.355   1.945  50.748  1.00  0.00    -0.243 NA
HETATM   20  C19 UNL     1      24.798   5.710  50.651  1.00  0.00     0.075 C 
HETATM   21  H6  UNL     1      22.811   2.139  47.507  1.00  0.00     0.320 HD
ENDROOT
BRANCH   1  22
HETATM   22  C2  UNL     1      26.566   6.944  48.127  1.00  0.00    -0.154 C 
HETATM   23  C1  UNL     1      26.776   7.960  47.303  1.00  0.00     0.096 C 
ENDBRANCH   1  22
BRANCH  12  24
HETATM   24  C13 UNL     1      20.973   7.340  49.858  1.00  0.00     0.199 C 
BRANCH  24  25
HETATM   25  O2  UNL     1      21.987   8.267  49.838  1.00  0.00    -0.393 OA
HETATM   26  C14 UNL     1      21.524   9.380  49.127  1.00  0.00     0.201 C 
ENDBRANCH  24  25
ENDBRANCH  12  24
TORSDOF 3
ENDMDL
MODEL 9
REMARK VINA RESULT:      -5.8      6.249      9.034
REMARK  3 active torsions:
REMARK  status: ('A' for Active; 'I' for Inactive)
REMARK    1  A    between atoms: C2_2  and  C3_3 
REMARK    2  A    between atoms: C12_14  and  C13_15 
REMARK    3  A    between atoms: C13_15  and  O2_16 
ROOT
HETATM    1  C3  UNL     1      32.909   7.902  48.934  1.00  0.00     0.057 C 
HETATM    2  C4  UNL     1      31.745   8.621  48.484  1.00  0.00    -0.050 C 
HETATM    3  C5  UNL     1      30.385   8.487  48.439  1.00  0.00     0.019 C 
HETATM    4  C6  UNL     1      28.953   8.612  48.261  1.00  0.00     0.276 C 
HETATM    5  N1  UNL     1      28.247   8.687  49.496  1.00  0.00     0.122 N 
HETATM    6  C7  UNL     1      27.311   9.817  49.478  1.00  0.00     0.368 C 
HETATM    7  C8  UNL     1      26.358   9.539  48.356  1.00  0.00     0.055 C 
HETATM    8  C9  UNL     1      26.072   8.449  47.648  1.00  0.00     0.135 C 
HETATM    9  O1  UNL     1      27.028   7.460  47.373  1.00  0.00    -0.355 OA
HETATM   10  C10 UNL     1      28.412   7.497  47.359  1.00  0.00     0.167 C 
HETATM   11  C11 UNL     1      28.876   7.788  45.930  1.00  0.00     0.069 C 
HETATM   12  C12 UNL     1      29.258   9.260  45.754  1.00  0.00     0.148 C 
HETATM   13  O3  UNL     1      30.406   9.508  46.501  1.00  0.00    -0.373 OA
HETATM   14  C15 UNL     1      30.574  10.479  47.516  1.00  0.00     0.071 C 
HETATM   15  C16 UNL     1      30.375  11.505  48.411  1.00  0.00     0.101 C 
HETATM   16  C17 UNL     1      29.978  12.622  49.303  1.00  0.00     0.117 C 
HETATM   17  N2  UNL     1      28.664  12.835  49.262  1.00  0.00    -0.255 NA
HETATM   18  C18 UNL     1      27.888  11.956  48.398  1.00  0.00     0.229 C 
HETATM   19  N3  UNL     1      27.872  11.097  49.353  1.00  0.00    -0.243 NA
HETATM   20  C19 UNL     1      31.958  10.021  47.836  1.00  0.00     0.075 C 
HETATM   21  H6  UNL     1      27.662   7.841  49.676  1.00  0.00     0.320 HD
ENDROOT
BRANCH   1  22
HETATM   22  C2  UNL     1      33.535   7.110  48.078  1.00  0.00    -0.154 C 
HETATM   23  C1  UNL     1      34.201   6.135  47.477  1.00  0.00     0.096 C 
ENDBRANCH   1  22
BRANCH  12  24
HETATM   24  C13 UNL     1      29.725   9.461  44.284  1.00  0.00     0.199 C 
BRANCH  24  25
HETATM   25  O2  UNL     1      31.021   9.026  44.131  1.00  0.00    -0.393 OA
HETATM   26  C14 UNL     1      31.566   9.713  43.040  1.00  0.00     0.201 C 
ENDBRANCH  24  25
ENDBRANCH  12  24
TORSDOF 3
ENDMDL
