MODEL 1
REMARK VINA RESULT:      -7.6      0.000      0.000
REMARK  6 active torsions:
REMARK  status: ('A' for Active; 'I' for Inactive)
REMARK    1  A    between atoms: O1_2  and  C2_3 
REMARK    2  A    between atoms: C5_6  and  C6_7 
REMARK    3  A    between atoms: C8_9  and  C16_22 
REMARK    4  A    between atoms: C9_12  and  N3_13 
REMARK    5  A    between atoms: C10_14  and  C11_15 
REMARK    6  A    between atoms: C16_22  and  S2_23 
ROOT
HETATM    1  C6  UNL     1      22.786   2.656  51.740  1.00  0.00     0.476 A 
HETATM    2  C7  UNL     1      24.287   2.741  51.997  1.00  0.00     0.363 A 
HETATM    3  C8  UNL     1      24.284   1.693  52.603  1.00  0.00     0.269 A 
HETATM    4  N1  UNL     1      23.246   2.264  52.082  1.00  0.00     0.159 N 
HETATM    5  N2  UNL     1      22.178   1.436  52.367  1.00  0.00     0.213 N 
HETATM    6  C9  UNL     1      21.915  -0.221  53.260  1.00  0.00     0.367 A 
HETATM    7  S2  UNL     1      21.332   0.444  52.789  1.00  0.00     0.106 SA
ENDROOT
BRANCH   1   8
HETATM    8  C5  UNL     1      22.383   2.882  50.338  1.00  0.00     0.004 A 
HETATM    9  C4  UNL     1      21.515   3.929  50.111  1.00  0.00     0.014 A 
HETATM   10  C3  UNL     1      20.981   4.277  48.907  1.00  0.00     0.037 A 
HETATM   11  C2  UNL     1      21.306   3.550  47.776  1.00  0.00     0.068 A 
HETATM   12  C18 UNL     1      22.179   2.488  47.975  1.00  0.00     0.037 A 
HETATM   13  C17 UNL     1      22.713   2.157  49.240  1.00  0.00     0.014 A 
BRANCH  11  14
HETATM   14  O1  UNL     1      20.958   3.630  46.445  1.00  0.00    -0.356 OA
HETATM   15  C1  UNL     1      21.863   3.834  45.395  1.00  0.00     0.210 C 
ENDBRANCH  11  14
ENDBRANCH   1   8
BRANCH   3  16
HETATM   16  C16 UNL     1      23.559   0.576  53.122  1.00  0.00     0.172 A 
HETATM   17  C10 UNL     1      24.179  -0.591  53.837  1.00  0.00     0.041 A 
HETATM   18  N3  UNL     1      22.909  -0.801  53.752  1.00  0.00    -0.205 NA
BRANCH  17  19
HETATM   19  C11 UNL     1      25.621  -0.453  53.932  1.00  0.00    -0.015 A 
HETATM   20  C12 UNL     1      25.826  -1.161  52.861  1.00  0.00     0.020 A 
HETATM   21  C13 UNL     1      27.280  -1.240  52.633  1.00  0.00     0.055 A 
HETATM   22  S1  UNL     1      28.347  -0.518  53.630  1.00  0.00    -0.078 SA
HETATM   23 CL1  UNL     1      30.432  -0.600  53.349  1.00  0.00    -0.047 Cl
HETATM   24  C14 UNL     1      27.578   0.371  55.020  1.00  0.00     0.055 A 
HETATM   25  C15 UNL     1      26.290   0.272  54.970  1.00  0.00     0.020 A 
ENDBRANCH  17  19
ENDBRANCH   3  16
TORSDOF 6
ENDMDL
MODEL 2
REMARK VINA RESULT:      -7.6      4.657      6.090
REMARK  6 active torsions:
REMARK  status: ('A' for Active; 'I' for Inactive)
REMARK    1  A    between atoms: O1_2  and  C2_3 
REMARK    2  A    between atoms: C5_6  and  C6_7 
REMARK    3  A    between atoms: C8_9  and  C16_22 
REMARK    4  A    between atoms: C9_12  and  N3_13 
REMARK    5  A    between atoms: C10_14  and  C11_15 
REMARK    6  A    between atoms: C16_22  and  S2_23 
ROOT
HETATM    1  C6  UNL     1      25.807   3.338  49.635  1.00  0.00     0.476 A 
HETATM    2  C7  UNL     1      24.295   3.207  49.489  1.00  0.00     0.363 A 
HETATM    3  C8  UNL     1      24.190   2.711  50.588  1.00  0.00     0.269 A 
HETATM    4  N1  UNL     1      25.298   3.079  50.031  1.00  0.00     0.159 N 
HETATM    5  N2  UNL     1      26.293   2.786  50.944  1.00  0.00     0.213 N 
HETATM    6  C9  UNL     1      26.390   2.044  52.690  1.00  0.00     0.367 A 
HETATM    7  S2  UNL     1      27.046   2.393  52.019  1.00  0.00     0.106 SA
ENDROOT
BRANCH   1   8
HETATM    8  C5  UNL     1      26.349   4.670  49.300  1.00  0.00     0.004 A 
HETATM    9  C4  UNL     1      27.568   4.691  48.658  1.00  0.00     0.014 A 
HETATM   10  C3  UNL     1      28.266   5.808  48.306  1.00  0.00     0.037 A 
HETATM   11  C2  UNL     1      27.751   7.058  48.595  1.00  0.00     0.068 A 
HETATM   12  C18 UNL     1      26.522   7.067  49.243  1.00  0.00     0.037 A 
HETATM   13  C17 UNL     1      25.828   5.888  49.592  1.00  0.00     0.014 A 
BRANCH  11  14
HETATM   14  O1  UNL     1      28.181   8.350  48.383  1.00  0.00    -0.356 OA
HETATM   15  C1  UNL     1      28.578   9.235  49.394  1.00  0.00     0.210 C 
ENDBRANCH  11  14
ENDBRANCH   1   8
BRANCH   3  16
HETATM   16  C16 UNL     1      24.807   2.245  51.790  1.00  0.00     0.172 A 
HETATM   17  C10 UNL     1      24.083   1.570  52.920  1.00  0.00     0.041 A 
HETATM   18  N3  UNL     1      25.326   1.678  53.247  1.00  0.00    -0.205 NA
BRANCH  17  19
HETATM   19  C11 UNL     1      22.662   1.454  52.648  1.00  0.00    -0.015 A 
HETATM   20  C12 UNL     1      22.694   0.155  52.679  1.00  0.00     0.020 A 
HETATM   21  C13 UNL     1      21.331  -0.346  52.425  1.00  0.00     0.055 A 
HETATM   22  S1  UNL     1      20.080   0.664  52.163  1.00  0.00    -0.078 SA
HETATM   23 CL1  UNL     1      18.115   0.000  51.797  1.00  0.00    -0.047 Cl
HETATM   24  C14 UNL     1      20.527   2.427  52.214  1.00  0.00     0.055 A 
HETATM   25  C15 UNL     1      21.789   2.572  52.454  1.00  0.00     0.020 A 
ENDBRANCH  17  19
ENDBRANCH   3  16
TORSDOF 6
ENDMDL
MODEL 3
REMARK VINA RESULT:      -7.6      5.286      8.035
REMARK  6 active torsions:
REMARK  status: ('A' for Active; 'I' for Inactive)
REMARK    1  A    between atoms: O1_2  and  C2_3 
REMARK    2  A    between atoms: C5_6  and  C6_7 
REMARK    3  A    between atoms: C8_9  and  C16_22 
REMARK    4  A    between atoms: C9_12  and  N3_13 
REMARK    5  A    between atoms: C10_14  and  C11_15 
REMARK    6  A    between atoms: C16_22  and  S2_23 
ROOT
HETATM    1  C6  UNL     1      25.628   2.635  50.738  1.00  0.00     0.476 A 
HETATM    2  C7  UNL     1      26.373   3.432  49.673  1.00  0.00     0.363 A 
HETATM    3  C8  UNL     1      25.767   4.443  49.948  1.00  0.00     0.269 A 
HETATM    4  N1  UNL     1      25.599   3.289  50.509  1.00  0.00     0.159 N 
HETATM    5  N2  UNL     1      24.609   3.471  51.455  1.00  0.00     0.213 N 
HETATM    6  C9  UNL     1      23.542   4.915  52.077  1.00  0.00     0.367 A 
HETATM    7  S2  UNL     1      23.630   3.940  52.290  1.00  0.00     0.106 SA
ENDROOT
BRANCH   1   8
HETATM    8  C5  UNL     1      26.492   1.835  51.630  1.00  0.00     0.004 A 
HETATM    9  C4  UNL     1      26.245   0.479  51.666  1.00  0.00     0.014 A 
HETATM   10  C3  UNL     1      26.888  -0.428  52.455  1.00  0.00     0.037 A 
HETATM   11  C2  UNL     1      27.886  -0.006  53.314  1.00  0.00     0.068 A 
HETATM   12  C18 UNL     1      28.156   1.357  53.298  1.00  0.00     0.037 A 
HETATM   13  C17 UNL     1      27.468   2.268  52.466  1.00  0.00     0.014 A 
BRANCH  11  14
HETATM   14  O1  UNL     1      28.712  -0.638  54.217  1.00  0.00    -0.356 OA
HETATM   15  C1  UNL     1      30.000  -1.107  53.927  1.00  0.00     0.210 C 
ENDBRANCH  11  14
ENDBRANCH   1   8
BRANCH   3  16
HETATM   16  C16 UNL     1      24.772   5.104  50.733  1.00  0.00     0.172 A 
HETATM   17  C10 UNL     1      24.363   6.540  50.565  1.00  0.00     0.041 A 
HETATM   18  N3  UNL     1      23.690   6.043  51.547  1.00  0.00    -0.205 NA
BRANCH  17  19
HETATM   19  C11 UNL     1      25.113   7.188  49.505  1.00  0.00    -0.015 A 
HETATM   20  C12 UNL     1      25.960   7.717  50.337  1.00  0.00     0.020 A 
HETATM   21  C13 UNL     1      26.938   8.503  49.563  1.00  0.00     0.055 A 
HETATM   22  S1  UNL     1      26.860   8.611  47.939  1.00  0.00    -0.078 SA
HETATM   23 CL1  UNL     1      28.230   9.718  46.785  1.00  0.00    -0.047 Cl
HETATM   24  C14 UNL     1      25.476   7.688  47.200  1.00  0.00     0.055 A 
HETATM   25  C15 UNL     1      24.782   7.094  48.115  1.00  0.00     0.020 A 
ENDBRANCH  17  19
ENDBRANCH   3  16
TORSDOF 6
ENDMDL
MODEL 4
REMARK VINA RESULT:      -7.4      1.135      1.269
REMARK  6 active torsions:
REMARK  status: ('A' for Active; 'I' for Inactive)
REMARK    1  A    between atoms: O1_2  and  C2_3 
REMARK    2  A    between atoms: C5_6  and  C6_7 
REMARK    3  A    between atoms: C8_9  and  C16_22 
REMARK    4  A    between atoms: C9_12  and  N3_13 
REMARK    5  A    between atoms: C10_14  and  C11_15 
REMARK    6  A    between atoms: C16_22  and  S2_23 
ROOT
HETATM    1  C6  UNL     1      23.375   3.320  50.606  1.00  0.00     0.476 A 
HETATM    2  C7  UNL     1      24.863   3.062  50.814  1.00  0.00     0.363 A 
HETATM    3  C8  UNL     1      24.640   2.182  51.615  1.00  0.00     0.269 A 
HETATM    4  N1  UNL     1      23.744   2.894  51.010  1.00  0.00     0.159 N 
HETATM    5  N2  UNL     1      22.525   2.436  51.472  1.00  0.00     0.213 N 
HETATM    6  C9  UNL     1      21.919   1.099  52.678  1.00  0.00     0.367 A 
HETATM    7  S2  UNL     1      21.490   1.792  52.096  1.00  0.00     0.106 SA
ENDROOT
BRANCH   1   8
HETATM    8  C5  UNL     1      22.947   3.378  49.194  1.00  0.00     0.004 A 
HETATM    9  C4  UNL     1      22.785   4.637  48.654  1.00  0.00     0.014 A 
HETATM   10  C3  UNL     1      22.350   4.913  47.393  1.00  0.00     0.037 A 
HETATM   11  C2  UNL     1      22.029   3.878  46.534  1.00  0.00     0.068 A 
HETATM   12  C18 UNL     1      22.182   2.598  47.052  1.00  0.00     0.037 A 
HETATM   13  C17 UNL     1      22.636   2.350  48.366  1.00  0.00     0.014 A 
BRANCH  11  14
HETATM   14  O1  UNL     1      21.577   3.809  45.234  1.00  0.00    -0.356 OA
HETATM   15  C1  UNL     1      21.169   4.910  44.471  1.00  0.00     0.210 C 
ENDBRANCH  11  14
ENDBRANCH   1   8
BRANCH   3  16
HETATM   16  C16 UNL     1      23.696   1.405  52.356  1.00  0.00     0.172 A 
HETATM   17  C10 UNL     1      24.057   0.378  53.391  1.00  0.00     0.041 A 
HETATM   18  N3  UNL     1      22.772   0.399  53.277  1.00  0.00    -0.205 NA
BRANCH  17  19
HETATM   19  C11 UNL     1      25.495   0.258  53.545  1.00  0.00    -0.015 A 
HETATM   20  C12 UNL     1      25.535  -0.878  52.915  1.00  0.00     0.020 A 
HETATM   21  C13 UNL     1      26.936  -1.334  52.876  1.00  0.00     0.055 A 
HETATM   22  S1  UNL     1      28.141  -0.468  53.548  1.00  0.00    -0.078 SA
HETATM   23 CL1  UNL     1      30.158  -1.074  53.520  1.00  0.00    -0.047 Cl
HETATM   24  C14 UNL     1      27.592   1.079  54.334  1.00  0.00     0.055 A 
HETATM   25  C15 UNL     1      26.313   1.222  54.217  1.00  0.00     0.020 A 
ENDBRANCH  17  19
ENDBRANCH   3  16
TORSDOF 6
ENDMDL
MODEL 5
REMARK VINA RESULT:      -7.2      1.931      2.247
REMARK  6 active torsions:
REMARK  status: ('A' for Active; 'I' for Inactive)
REMARK    1  A    between atoms: O1_2  and  C2_3 
REMARK    2  A    between atoms: C5_6  and  C6_7 
REMARK    3  A    between atoms: C8_9  and  C16_22 
REMARK    4  A    between atoms: C9_12  and  N3_13 
REMARK    5  A    between atoms: C10_14  and  C11_15 
REMARK    6  A    between atoms: C16_22  and  S2_23 
ROOT
HETATM    1  C6  UNL     1      21.911   1.999  52.511  1.00  0.00     0.476 A 
HETATM    2  C7  UNL     1      23.357   1.960  52.028  1.00  0.00     0.363 A 
HETATM    3  C8  UNL     1      23.609   1.007  52.730  1.00  0.00     0.269 A 
HETATM    4  N1  UNL     1      22.466   1.609  52.661  1.00  0.00     0.159 N 
HETATM    5  N2  UNL     1      21.635   0.941  53.540  1.00  0.00     0.213 N 
HETATM    6  C9  UNL     1      21.777  -0.548  54.712  1.00  0.00     0.367 A 
HETATM    7  S2  UNL     1      21.060   0.106  54.461  1.00  0.00     0.106 SA
ENDROOT
BRANCH   1   8
HETATM    8  C5  UNL     1      20.900   2.079  51.437  1.00  0.00     0.004 A 
HETATM    9  C4  UNL     1      20.072   3.181  51.457  1.00  0.00     0.014 A 
HETATM   10  C3  UNL     1      19.046   3.423  50.595  1.00  0.00     0.037 A 
HETATM   11  C2  UNL     1      18.765   2.515  49.589  1.00  0.00     0.068 A 
HETATM   12  C18 UNL     1      19.584   1.394  49.546  1.00  0.00     0.037 A 
HETATM   13  C17 UNL     1      20.640   1.177  50.458  1.00  0.00     0.014 A 
BRANCH  11  14
HETATM   14  O1  UNL     1      17.831   2.455  48.578  1.00  0.00    -0.356 OA
HETATM   15  C1  UNL     1      17.852   3.250  47.424  1.00  0.00     0.210 C 
ENDBRANCH  11  14
ENDBRANCH   1   8
BRANCH   3  16
HETATM   16  C16 UNL     1      23.183   0.049  53.701  1.00  0.00     0.172 A 
HETATM   17  C10 UNL     1      24.090  -0.922  54.403  1.00  0.00     0.041 A 
HETATM   18  N3  UNL     1      22.883  -1.136  54.806  1.00  0.00    -0.205 NA
BRANCH  17  19
HETATM   19  C11 UNL     1      25.466  -0.778  53.965  1.00  0.00    -0.015 A 
HETATM   20  C12 UNL     1      25.822  -0.180  55.063  1.00  0.00     0.020 A 
HETATM   21  C13 UNL     1      27.259   0.140  54.968  1.00  0.00     0.055 A 
HETATM   22  S1  UNL     1      28.140  -0.246  53.653  1.00  0.00    -0.078 SA
HETATM   23 CL1  UNL     1      30.192   0.186  53.467  1.00  0.00    -0.047 Cl
HETATM   24  C14 UNL     1      27.192  -1.087  52.347  1.00  0.00     0.055 A 
HETATM   25  C15 UNL     1      25.958  -1.235  52.700  1.00  0.00     0.020 A 
ENDBRANCH  17  19
ENDBRANCH   3  16
TORSDOF 6
ENDMDL
MODEL 6
REMARK VINA RESULT:      -7.2      4.406      7.752
REMARK  6 active torsions:
REMARK  status: ('A' for Active; 'I' for Inactive)
REMARK    1  A    between atoms: O1_2  and  C2_3 
REMARK    2  A    between atoms: C5_6  and  C6_7 
REMARK    3  A    between atoms: C8_9  and  C16_22 
REMARK    4  A    between atoms: C9_12  and  N3_13 
REMARK    5  A    between atoms: C10_14  and  C11_15 
REMARK    6  A    between atoms: C16_22  and  S2_23 
ROOT
HETATM    1  C6  UNL     1      24.137   1.918  52.937  1.00  0.00     0.476 A 
HETATM    2  C7  UNL     1      22.778   1.236  53.049  1.00  0.00     0.363 A 
HETATM    3  C8  UNL     1      22.387   1.757  52.028  1.00  0.00     0.269 A 
HETATM    4  N1  UNL     1      23.551   1.933  52.565  1.00  0.00     0.159 N 
HETATM    5  N2  UNL     1      24.217   2.817  51.738  1.00  0.00     0.213 N 
HETATM    6  C9  UNL     1      23.846   3.739  50.119  1.00  0.00     0.367 A 
HETATM    7  S2  UNL     1      24.617   3.685  50.756  1.00  0.00     0.106 SA
ENDROOT
BRANCH   1   8
HETATM    8  C5  UNL     1      25.297   1.018  53.099  1.00  0.00     0.004 A 
HETATM    9  C4  UNL     1      26.043   1.182  54.247  1.00  0.00     0.014 A 
HETATM   10  C3  UNL     1      27.176   0.494  54.567  1.00  0.00     0.037 A 
HETATM   11  C2  UNL     1      27.665  -0.464  53.699  1.00  0.00     0.068 A 
HETATM   12  C18 UNL     1      26.933  -0.650  52.533  1.00  0.00     0.037 A 
HETATM   13  C17 UNL     1      25.762   0.082  52.235  1.00  0.00     0.014 A 
BRANCH  11  14
HETATM   14  O1  UNL     1      28.748  -1.316  53.715  1.00  0.00    -0.356 OA
HETATM   15  C1  UNL     1      30.087  -0.905  53.702  1.00  0.00     0.210 C 
ENDBRANCH  11  14
ENDBRANCH   1   8
BRANCH   3  16
HETATM   16  C16 UNL     1      22.628   2.635  50.926  1.00  0.00     0.172 A 
HETATM   17  C10 UNL     1      21.577   3.111  49.964  1.00  0.00     0.041 A 
HETATM   18  N3  UNL     1      22.712   3.603  49.595  1.00  0.00    -0.205 NA
BRANCH  17  19
HETATM   19  C11 UNL     1      20.273   2.560  50.283  1.00  0.00    -0.015 A 
HETATM   20  C12 UNL     1      19.910   3.622  50.936  1.00  0.00     0.020 A 
HETATM   21  C13 UNL     1      18.541   3.408  51.441  1.00  0.00     0.055 A 
HETATM   22  S1  UNL     1      17.729   2.024  51.159  1.00  0.00    -0.078 SA
HETATM   23 CL1  UNL     1      15.774   1.667  51.856  1.00  0.00    -0.047 Cl
HETATM   24  C14 UNL     1      18.662   0.803  50.184  1.00  0.00     0.055 A 
HETATM   25  C15 UNL     1      19.832   1.259  49.879  1.00  0.00     0.020 A 
ENDBRANCH  17  19
ENDBRANCH   3  16
TORSDOF 6
ENDMDL
MODEL 7
REMARK VINA RESULT:      -7.2      4.546      7.365
REMARK  6 active torsions:
REMARK  status: ('A' for Active; 'I' for Inactive)
REMARK    1  A    between atoms: O1_2  and  C2_3 
REMARK    2  A    between atoms: C5_6  and  C6_7 
REMARK    3  A    between atoms: C8_9  and  C16_22 
REMARK    4  A    between atoms: C9_12  and  N3_13 
REMARK    5  A    between atoms: C10_14  and  C11_15 
REMARK    6  A    between atoms: C16_22  and  S2_23 
ROOT
HETATM    1  C6  UNL     1      24.098   0.109  52.408  1.00  0.00     0.476 A 
HETATM    2  C7  UNL     1      23.486   1.208  51.547  1.00  0.00     0.363 A 
HETATM    3  C8  UNL     1      22.475   1.223  52.212  1.00  0.00     0.269 A 
HETATM    4  N1  UNL     1      23.490   0.443  52.402  1.00  0.00     0.159 N 
HETATM    5  N2  UNL     1      23.165  -0.337  53.495  1.00  0.00     0.213 N 
HETATM    6  C9  UNL     1      21.696  -0.496  54.691  1.00  0.00     0.367 A 
HETATM    7  S2  UNL     1      22.581  -0.950  54.573  1.00  0.00     0.106 SA
ENDROOT
BRANCH   1   8
HETATM    8  C5  UNL     1      25.477   0.375  52.865  1.00  0.00     0.004 A 
HETATM    9  C4  UNL     1      26.410  -0.605  52.599  1.00  0.00     0.014 A 
HETATM   10  C3  UNL     1      27.719  -0.583  52.976  1.00  0.00     0.037 A 
HETATM   11  C2  UNL     1      28.211   0.494  53.690  1.00  0.00     0.068 A 
HETATM   12  C18 UNL     1      27.292   1.497  53.973  1.00  0.00     0.037 A 
HETATM   13  C17 UNL     1      25.941   1.440  53.565  1.00  0.00     0.014 A 
BRANCH  11  14
HETATM   14  O1  UNL     1      29.443   0.826  54.208  1.00  0.00    -0.356 OA
HETATM   15  C1  UNL     1      29.757   2.058  54.797  1.00  0.00     0.210 C 
ENDBRANCH  11  14
ENDBRANCH   1   8
BRANCH   3  16
HETATM   16  C16 UNL     1      21.715   0.701  53.304  1.00  0.00     0.172 A 
HETATM   17  C10 UNL     1      20.220   0.783  53.424  1.00  0.00     0.041 A 
HETATM   18  N3  UNL     1      20.676   0.201  54.482  1.00  0.00    -0.205 NA
BRANCH  17  19
HETATM   19  C11 UNL     1      19.630   1.471  52.290  1.00  0.00    -0.015 A 
HETATM   20  C12 UNL     1      19.236   0.363  51.738  1.00  0.00     0.020 A 
HETATM   21  C13 UNL     1      18.550   0.696  50.476  1.00  0.00     0.055 A 
HETATM   22  S1  UNL     1      18.380   2.236  49.971  1.00  0.00    -0.078 SA
HETATM   23 CL1  UNL     1      17.409   2.766  48.179  1.00  0.00    -0.047 Cl
HETATM   24  C14 UNL     1      19.109   3.468  51.094  1.00  0.00     0.055 A 
HETATM   25  C15 UNL     1      19.645   2.892  52.119  1.00  0.00     0.020 A 
ENDBRANCH  17  19
ENDBRANCH   3  16
TORSDOF 6
ENDMDL
