MODEL 1
REMARK VINA RESULT:      -9.4      0.000      0.000
REMARK  0 active torsions:
REMARK  status: ('A' for Active; 'I' for Inactive)
ROOT
HETATM    1  C1  UNL     1      21.440   7.342  50.802  1.00  0.00     0.048 C 
HETATM    2  C2  UNL     1      22.875   6.923  50.599  1.00  0.00    -0.058 A 
HETATM    3  C3  UNL     1      24.048   7.560  50.733  1.00  0.00    -0.015 A 
HETATM    4  C4  UNL     1      25.163   6.640  50.393  1.00  0.00     0.067 A 
HETATM    5  C5  UNL     1      24.481   5.403  50.041  1.00  0.00    -0.040 A 
HETATM    6  C6  UNL     1      23.163   5.561  50.163  1.00  0.00    -0.040 A 
HETATM    7  C7  UNL     1      22.216   4.451  49.884  1.00  0.00    -0.012 C 
HETATM    8  C8  UNL     1      22.604   3.590  50.827  1.00  0.00     0.101 C 
HETATM    9  C9  UNL     1      22.375   2.252  51.437  1.00  0.00     0.173 C 
HETATM   10  N1  UNL     1      22.512   1.272  50.398  1.00  0.00    -0.267 NA
HETATM   11  C10 UNL     1      21.465   1.127  49.600  1.00  0.00     0.094 C 
HETATM   12  C11 UNL     1      20.046   0.931  50.063  1.00  0.00     0.060 C 
HETATM   13  C12 UNL     1      20.233   0.797  51.573  1.00  0.00     0.074 C 
HETATM   14  C13 UNL     1      20.938   2.091  51.910  1.00  0.00     0.091 C 
HETATM   15  N2  UNL     1      20.360   3.077  52.557  1.00  0.00    -0.138 NA
HETATM   16  O1  UNL     1      19.168   3.740  52.206  1.00  0.00    -0.256 OA
HETATM   17  C14 UNL     1      18.034   3.547  51.406  1.00  0.00     0.206 C 
HETATM   18  C15 UNL     1      18.003   2.308  50.587  1.00  0.00     0.061 C 
HETATM   19  C16 UNL     1      19.178   2.097  49.658  1.00  0.00     0.132 C 
HETATM   20  O2  UNL     1      19.929   3.153  49.431  1.00  0.00    -0.385 OA
HETATM   21  C17 UNL     1      20.504   3.569  48.330  1.00  0.00     0.169 C 
HETATM   22  C18 UNL     1      21.344   4.824  48.689  1.00  0.00     0.036 C 
HETATM   23  N3  UNL     1      23.255   2.061  52.542  1.00  0.00    -0.367 N 
HETATM   24  C19 UNL     1      24.537   1.512  52.877  1.00  0.00     0.085 C 
HETATM   25  C20 UNL     1      25.720   1.734  52.346  1.00  0.00     0.018 C 
HETATM   26  C21 UNL     1      26.314   2.531  51.289  1.00  0.00     0.027 C 
HETATM   27  C22 UNL     1      25.730   3.381  50.441  1.00  0.00     0.055 A 
HETATM   28 CL1  UNL     1      26.893   4.125  49.311  1.00  0.00    -0.083 Cl
HETATM   29  O3  UNL     1      25.042   4.219  49.634  1.00  0.00     0.000 OA
HETATM   30  H21 UNL     1      22.818   2.480  53.423  1.00  0.00     0.161 HD
ENDROOT
TORSDOF 0
ENDMDL
MODEL 2
REMARK VINA RESULT:      -8.5      2.510      4.618
REMARK  0 active torsions:
REMARK  status: ('A' for Active; 'I' for Inactive)
ROOT
HETATM    1  C1  UNL     1      26.418   2.677  50.410  1.00  0.00     0.048 C 
HETATM    2  C2  UNL     1      26.491   3.982  49.657  1.00  0.00    -0.058 A 
HETATM    3  C3  UNL     1      27.462   4.588  48.958  1.00  0.00    -0.015 A 
HETATM    4  C4  UNL     1      26.967   5.882  48.424  1.00  0.00     0.067 A 
HETATM    5  C5  UNL     1      25.596   5.943  48.913  1.00  0.00    -0.040 A 
HETATM    6  C6  UNL     1      25.318   4.848  49.621  1.00  0.00    -0.040 A 
HETATM    7  C7  UNL     1      23.980   4.633  50.229  1.00  0.00    -0.012 C 
HETATM    8  C8  UNL     1      23.240   4.591  49.119  1.00  0.00     0.101 C 
HETATM    9  C9  UNL     1      21.868   4.431  48.563  1.00  0.00     0.173 C 
HETATM   10  N1  UNL     1      21.040   5.444  49.151  1.00  0.00    -0.267 NA
HETATM   11  C10 UNL     1      20.610   5.196  50.379  1.00  0.00     0.094 C 
HETATM   12  C11 UNL     1      19.946   3.920  50.821  1.00  0.00     0.060 C 
HETATM   13  C12 UNL     1      19.799   3.177  49.495  1.00  0.00     0.074 C 
HETATM   14  C13 UNL     1      21.231   3.124  49.013  1.00  0.00     0.091 C 
HETATM   15  N2  UNL     1      21.944   2.022  48.997  1.00  0.00    -0.138 NA
HETATM   16  O1  UNL     1      22.208   1.165  50.082  1.00  0.00    -0.256 OA
HETATM   17  C14 UNL     1      21.706   0.867  51.356  1.00  0.00     0.206 C 
HETATM   18  C15 UNL     1      20.566   1.696  51.829  1.00  0.00     0.061 C 
HETATM   19  C16 UNL     1      20.792   3.191  51.836  1.00  0.00     0.132 C 
HETATM   20  O2  UNL     1      22.044   3.585  51.736  1.00  0.00    -0.385 OA
HETATM   21  C17 UNL     1      22.679   4.563  52.333  1.00  0.00     0.169 C 
HETATM   22  C18 UNL     1      24.117   4.609  51.748  1.00  0.00     0.036 C 
HETATM   23  N3  UNL     1      21.911   4.464  47.138  1.00  0.00    -0.367 N 
HETATM   24  C19 UNL     1      21.784   5.365  46.030  1.00  0.00     0.085 C 
HETATM   25  C20 UNL     1      22.401   6.501  45.785  1.00  0.00     0.018 C 
HETATM   26  C21 UNL     1      23.401   7.357  46.395  1.00  0.00     0.027 C 
HETATM   27  C22 UNL     1      24.063   7.200  47.543  1.00  0.00     0.055 A 
HETATM   28 CL1  UNL     1      25.198   8.537  47.866  1.00  0.00    -0.083 Cl
HETATM   29  O3  UNL     1      24.678   6.943  48.720  1.00  0.00     0.000 OA
HETATM   30  H21 UNL     1      22.121   3.484  46.765  1.00  0.00     0.161 HD
ENDROOT
TORSDOF 0
ENDMDL
MODEL 3
REMARK VINA RESULT:      -8.5      2.526      5.429
REMARK  0 active torsions:
REMARK  status: ('A' for Active; 'I' for Inactive)
ROOT
HETATM    1  C1  UNL     1      18.999   2.138  48.868  1.00  0.00     0.048 C 
HETATM    2  C2  UNL     1      19.168   1.383  50.163  1.00  0.00    -0.058 A 
HETATM    3  C3  UNL     1      18.620   0.259  50.651  1.00  0.00    -0.015 A 
HETATM    4  C4  UNL     1      19.165  -0.021  52.003  1.00  0.00     0.067 A 
HETATM    5  C5  UNL     1      20.084   1.086  52.230  1.00  0.00    -0.040 A 
HETATM    6  C6  UNL     1      20.090   1.894  51.169  1.00  0.00    -0.040 A 
HETATM    7  C7  UNL     1      20.953   3.102  51.116  1.00  0.00    -0.012 C 
HETATM    8  C8  UNL     1      22.152   2.518  51.181  1.00  0.00     0.101 C 
HETATM    9  C9  UNL     1      23.624   2.736  51.200  1.00  0.00     0.173 C 
HETATM   10  N1  UNL     1      23.919   3.605  52.303  1.00  0.00    -0.267 NA
HETATM   11  C10 UNL     1      23.696   4.894  52.095  1.00  0.00     0.094 C 
HETATM   12  C11 UNL     1      24.187   5.677  50.907  1.00  0.00     0.060 C 
HETATM   13  C12 UNL     1      25.067   4.645  50.204  1.00  0.00     0.074 C 
HETATM   14  C13 UNL     1      24.091   3.513  49.979  1.00  0.00     0.091 C 
HETATM   15  N2  UNL     1      23.616   3.199  48.796  1.00  0.00    -0.138 NA
HETATM   16  O1  UNL     1      22.940   4.048  47.900  1.00  0.00    -0.256 OA
HETATM   17  C14 UNL     1      22.761   5.416  47.652  1.00  0.00     0.206 C 
HETATM   18  C15 UNL     1      23.402   6.352  48.611  1.00  0.00     0.061 C 
HETATM   19  C16 UNL     1      23.034   6.166  50.066  1.00  0.00     0.132 C 
HETATM   20  O2  UNL     1      21.969   5.431  50.301  1.00  0.00    -0.385 OA
HETATM   21  C17 UNL     1      21.012   5.575  51.184  1.00  0.00     0.169 C 
HETATM   22  C18 UNL     1      20.072   4.346  51.057  1.00  0.00     0.036 C 
HETATM   23  N3  UNL     1      24.303   1.482  51.245  1.00  0.00    -0.367 N 
HETATM   24  C19 UNL     1      24.868   0.542  52.169  1.00  0.00     0.085 C 
HETATM   25  C20 UNL     1      24.334  -0.040  53.221  1.00  0.00     0.018 C 
HETATM   26  C21 UNL     1      23.072  -0.061  53.938  1.00  0.00     0.027 C 
HETATM   27  C22 UNL     1      21.944   0.607  53.685  1.00  0.00     0.055 A 
HETATM   28 CL1  UNL     1      20.657   0.245  54.866  1.00  0.00    -0.083 Cl
HETATM   29  O3  UNL     1      20.854   1.327  53.339  1.00  0.00     0.000 OA
HETATM   30  H21 UNL     1      24.424   1.107  50.252  1.00  0.00     0.161 HD
ENDROOT
TORSDOF 0
ENDMDL
MODEL 4
REMARK VINA RESULT:      -8.3      3.183      6.589
REMARK  0 active torsions:
REMARK  status: ('A' for Active; 'I' for Inactive)
ROOT
HETATM    1  C1  UNL     1      22.576   0.653  52.994  1.00  0.00     0.048 C 
HETATM    2  C2  UNL     1      21.171   0.104  53.026  1.00  0.00    -0.058 A 
HETATM    3  C3  UNL     1      20.510  -0.685  53.887  1.00  0.00    -0.015 A 
HETATM    4  C4  UNL     1      19.124  -0.905  53.406  1.00  0.00     0.067 A 
HETATM    5  C5  UNL     1      19.077  -0.152  52.160  1.00  0.00    -0.040 A 
HETATM    6  C6  UNL     1      20.254   0.434  51.941  1.00  0.00    -0.040 A 
HETATM    7  C7  UNL     1      20.490   1.285  50.746  1.00  0.00    -0.012 C 
HETATM    8  C8  UNL     1      19.601   2.251  50.987  1.00  0.00     0.101 C 
HETATM    9  C9  UNL     1      19.014   3.529  50.498  1.00  0.00     0.173 C 
HETATM   10  N1  UNL     1      18.493   3.291  49.183  1.00  0.00    -0.267 NA
HETATM   11  C10 UNL     1      19.384   3.286  48.203  1.00  0.00     0.094 C 
HETATM   12  C11 UNL     1      20.420   4.352  47.969  1.00  0.00     0.060 C 
HETATM   13  C12 UNL     1      20.023   5.397  49.011  1.00  0.00     0.074 C 
HETATM   14  C13 UNL     1      20.082   4.591  50.288  1.00  0.00     0.091 C 
HETATM   15  N2  UNL     1      21.019   4.749  51.194  1.00  0.00    -0.138 NA
HETATM   16  O1  UNL     1      22.411   4.666  51.000  1.00  0.00    -0.256 OA
HETATM   17  C14 UNL     1      23.351   4.724  49.961  1.00  0.00     0.206 C 
HETATM   18  C15 UNL     1      22.809   4.861  48.584  1.00  0.00     0.061 C 
HETATM   19  C16 UNL     1      21.814   3.806  48.155  1.00  0.00     0.132 C 
HETATM   20  O2  UNL     1      21.770   2.720  48.896  1.00  0.00    -0.385 OA
HETATM   21  C17 UNL     1      21.631   1.463  48.558  1.00  0.00     0.169 C 
HETATM   22  C18 UNL     1      21.554   0.633  49.868  1.00  0.00     0.036 C 
HETATM   23  N3  UNL     1      18.050   4.012  51.432  1.00  0.00    -0.367 N 
HETATM   24  C19 UNL     1      16.644   3.980  51.715  1.00  0.00     0.085 C 
HETATM   25  C20 UNL     1      15.829   2.956  51.845  1.00  0.00     0.018 C 
HETATM   26  C21 UNL     1      15.872   1.507  51.786  1.00  0.00     0.027 C 
HETATM   27  C22 UNL     1      16.909   0.700  51.545  1.00  0.00     0.055 A 
HETATM   28 CL1  UNL     1      16.454  -1.024  51.575  1.00  0.00    -0.083 Cl
HETATM   29  O3  UNL     1      18.022  -0.023  51.293  1.00  0.00     0.000 OA
HETATM   30  H21 UNL     1      18.542   4.587  52.187  1.00  0.00     0.161 HD
ENDROOT
TORSDOF 0
ENDMDL
MODEL 5
REMARK VINA RESULT:      -8.3      9.353     12.461
REMARK  0 active torsions:
REMARK  status: ('A' for Active; 'I' for Inactive)
ROOT
HETATM    1  C1  UNL     1      34.694   9.475  44.563  1.00  0.00     0.048 C 
HETATM    2  C2  UNL     1      33.698  10.221  45.417  1.00  0.00    -0.058 A 
HETATM    3  C3  UNL     1      33.126  11.430  45.320  1.00  0.00    -0.015 A 
HETATM    4  C4  UNL     1      32.207  11.646  46.466  1.00  0.00     0.067 A 
HETATM    5  C5  UNL     1      32.332  10.415  47.233  1.00  0.00    -0.040 A 
HETATM    6  C6  UNL     1      33.188   9.590  46.629  1.00  0.00    -0.040 A 
HETATM    7  C7  UNL     1      33.497   8.246  47.182  1.00  0.00    -0.012 C 
HETATM    8  C8  UNL     1      32.285   7.693  47.103  1.00  0.00     0.101 C 
HETATM    9  C9  UNL     1      31.475   6.470  47.355  1.00  0.00     0.173 C 
HETATM   10  N1  UNL     1      31.601   6.144  48.747  1.00  0.00    -0.267 NA
HETATM   11  C10 UNL     1      32.717   5.519  49.093  1.00  0.00     0.094 C 
HETATM   12  C11 UNL     1      33.273   4.300  48.409  1.00  0.00     0.060 C 
HETATM   13  C12 UNL     1      32.158   3.970  47.419  1.00  0.00     0.074 C 
HETATM   14  C13 UNL     1      32.052   5.259  46.637  1.00  0.00     0.091 C 
HETATM   15  N2  UNL     1      32.458   5.382  45.395  1.00  0.00    -0.138 NA
HETATM   16  O1  UNL     1      33.743   5.105  44.890  1.00  0.00    -0.256 OA
HETATM   17  C14 UNL     1      34.896   4.388  45.238  1.00  0.00     0.206 C 
HETATM   18  C15 UNL     1      34.884   3.715  46.563  1.00  0.00     0.061 C 
HETATM   19  C16 UNL     1      34.598   4.602  47.754  1.00  0.00     0.132 C 
HETATM   20  O2  UNL     1      34.707   5.896  47.548  1.00  0.00    -0.385 OA
HETATM   21  C17 UNL     1      35.194   6.843  48.311  1.00  0.00     0.169 C 
HETATM   22  C18 UNL     1      34.969   8.194  47.580  1.00  0.00     0.036 C 
HETATM   23  N3  UNL     1      30.132   6.675  46.921  1.00  0.00    -0.367 N 
HETATM   24  C19 UNL     1      28.847   7.096  47.401  1.00  0.00     0.085 C 
HETATM   25  C20 UNL     1      28.499   8.189  48.045  1.00  0.00     0.018 C 
HETATM   26  C21 UNL     1      29.112   9.400  48.559  1.00  0.00     0.027 C 
HETATM   27  C22 UNL     1      30.388   9.788  48.511  1.00  0.00     0.055 A 
HETATM   28 CL1  UNL     1      30.651  11.370  49.293  1.00  0.00    -0.083 Cl
HETATM   29  O3  UNL     1      31.703  10.086  48.406  1.00  0.00     0.000 OA
HETATM   30  H21 UNL     1      30.055   6.449  45.879  1.00  0.00     0.161 HD
ENDROOT
TORSDOF 0
ENDMDL
MODEL 6
REMARK VINA RESULT:      -8.0      4.239      6.696
REMARK  0 active torsions:
REMARK  status: ('A' for Active; 'I' for Inactive)
ROOT
HETATM    1  C1  UNL     1      26.442   4.027  49.460  1.00  0.00     0.048 C 
HETATM    2  C2  UNL     1      27.294   5.085  48.804  1.00  0.00    -0.058 A 
HETATM    3  C3  UNL     1      28.541   5.086  48.308  1.00  0.00    -0.015 A 
HETATM    4  C4  UNL     1      28.870   6.432  47.776  1.00  0.00     0.067 A 
HETATM    5  C5  UNL     1      27.661   7.201  48.036  1.00  0.00    -0.040 A 
HETATM    6  C6  UNL     1      26.750   6.426  48.626  1.00  0.00    -0.040 A 
HETATM    7  C7  UNL     1      25.407   6.945  48.993  1.00  0.00    -0.012 C 
HETATM    8  C8  UNL     1      24.949   7.247  47.776  1.00  0.00     0.101 C 
HETATM    9  C9  UNL     1      23.803   7.788  46.995  1.00  0.00     0.173 C 
HETATM   10  N1  UNL     1      23.519   9.102  47.497  1.00  0.00    -0.267 NA
HETATM   11  C10 UNL     1      22.821   9.152  48.621  1.00  0.00     0.094 C 
HETATM   12  C11 UNL     1      21.537   8.409  48.876  1.00  0.00     0.060 C 
HETATM   13  C12 UNL     1      21.261   7.798  47.503  1.00  0.00     0.074 C 
HETATM   14  C13 UNL     1      22.525   7.006  47.261  1.00  0.00     0.091 C 
HETATM   15  N2  UNL     1      22.570   5.695  47.298  1.00  0.00    -0.138 NA
HETATM   16  O1  UNL     1      22.175   4.861  48.362  1.00  0.00    -0.256 OA
HETATM   17  C14 UNL     1      21.383   4.907  49.517  1.00  0.00     0.206 C 
HETATM   18  C15 UNL     1      20.761   6.216  49.844  1.00  0.00     0.061 C 
HETATM   19  C16 UNL     1      21.710   7.387  49.973  1.00  0.00     0.132 C 
HETATM   20  O2  UNL     1      22.984   7.084  50.101  1.00  0.00    -0.385 OA
HETATM   21  C17 UNL     1      23.916   7.621  50.848  1.00  0.00     0.169 C 
HETATM   22  C18 UNL     1      25.253   6.908  50.510  1.00  0.00     0.036 C 
HETATM   23  N3  UNL     1      24.097   7.745  45.601  1.00  0.00    -0.367 N 
HETATM   24  C19 UNL     1      24.636   8.546  44.539  1.00  0.00     0.085 C 
HETATM   25  C20 UNL     1      25.775   9.199  44.464  1.00  0.00     0.018 C 
HETATM   26  C21 UNL     1      26.952   9.447  45.276  1.00  0.00     0.027 C 
HETATM   27  C22 UNL     1      27.236   9.014  46.507  1.00  0.00     0.055 A 
HETATM   28 CL1  UNL     1      28.819   9.597  47.087  1.00  0.00    -0.083 Cl
HETATM   29  O3  UNL     1      27.425   8.522  47.752  1.00  0.00     0.000 OA
HETATM   30  H21 UNL     1      23.840   6.783  45.212  1.00  0.00     0.161 HD
ENDROOT
TORSDOF 0
ENDMDL
MODEL 7
REMARK VINA RESULT:      -8.0      2.701      5.446
REMARK  0 active torsions:
REMARK  status: ('A' for Active; 'I' for Inactive)
ROOT
HETATM    1  C1  UNL     1      19.923   3.387  47.999  1.00  0.00     0.048 C 
HETATM    2  C2  UNL     1      20.697   2.532  48.972  1.00  0.00    -0.058 A 
HETATM    3  C3  UNL     1      20.743   1.211  49.201  1.00  0.00    -0.015 A 
HETATM    4  C4  UNL     1      21.699   0.924  50.300  1.00  0.00     0.067 A 
HETATM    5  C5  UNL     1      22.186   2.244  50.675  1.00  0.00    -0.040 A 
HETATM    6  C6  UNL     1      21.613   3.173  49.909  1.00  0.00    -0.040 A 
HETATM    7  C7  UNL     1      21.937   4.615  50.058  1.00  0.00    -0.012 C 
HETATM    8  C8  UNL     1      23.234   4.581  49.745  1.00  0.00     0.101 C 
HETATM    9  C9  UNL     1      24.477   5.382  49.572  1.00  0.00     0.173 C 
HETATM   10  N1  UNL     1      24.730   6.061  50.811  1.00  0.00    -0.267 NA
HETATM   11  C10 UNL     1      24.013   7.154  51.026  1.00  0.00     0.094 C 
HETATM   12  C11 UNL     1      23.847   8.286  50.048  1.00  0.00     0.060 C 
HETATM   13  C12 UNL     1      24.811   7.873  48.937  1.00  0.00     0.074 C 
HETATM   14  C13 UNL     1      24.282   6.506  48.566  1.00  0.00     0.091 C 
HETATM   15  N2  UNL     1      23.648   6.262  47.443  1.00  0.00    -0.138 NA
HETATM   16  O1  UNL     1      22.496   6.911  46.960  1.00  0.00    -0.256 OA
HETATM   17  C14 UNL     1      21.779   8.100  47.152  1.00  0.00     0.206 C 
HETATM   18  C15 UNL     1      22.278   9.010  48.215  1.00  0.00     0.061 C 
HETATM   19  C16 UNL     1      22.413   8.407  49.595  1.00  0.00     0.132 C 
HETATM   20  O2  UNL     1      21.789   7.265  49.788  1.00  0.00    -0.385 OA
HETATM   21  C17 UNL     1      21.124   6.822  50.825  1.00  0.00     0.169 C 
HETATM   22  C18 UNL     1      20.689   5.365  50.513  1.00  0.00     0.036 C 
HETATM   23  N3  UNL     1      25.543   4.542  49.136  1.00  0.00    -0.367 N 
HETATM   24  C19 UNL     1      26.637   3.761  49.638  1.00  0.00     0.085 C 
HETATM   25  C20 UNL     1      26.654   2.816  50.553  1.00  0.00     0.018 C 
HETATM   26  C21 UNL     1      25.731   2.132  51.439  1.00  0.00     0.027 C 
HETATM   27  C22 UNL     1      24.415   2.306  51.587  1.00  0.00     0.055 A 
HETATM   28 CL1  UNL     1      23.717   1.218  52.817  1.00  0.00    -0.083 Cl
HETATM   29  O3  UNL     1      23.089   2.561  51.657  1.00  0.00     0.000 OA
HETATM   30  H21 UNL     1      25.515   4.454  48.071  1.00  0.00     0.161 HD
ENDROOT
TORSDOF 0
ENDMDL
MODEL 8
REMARK VINA RESULT:      -7.8      6.728     10.342
REMARK  0 active torsions:
REMARK  status: ('A' for Active; 'I' for Inactive)
ROOT
HETATM    1  C1  UNL     1      27.643   9.692  43.258  1.00  0.00     0.048 C 
HETATM    2  C2  UNL     1      26.535   9.051  44.057  1.00  0.00    -0.058 A 
HETATM    3  C3  UNL     1      25.379   8.462  43.718  1.00  0.00    -0.015 A 
HETATM    4  C4  UNL     1      24.671   8.003  44.940  1.00  0.00     0.067 A 
HETATM    5  C5  UNL     1      25.562   8.411  46.017  1.00  0.00    -0.040 A 
HETATM    6  C6  UNL     1      26.639   9.012  45.511  1.00  0.00    -0.040 A 
HETATM    7  C7  UNL     1      27.730   9.518  46.383  1.00  0.00    -0.012 C 
HETATM    8  C8  UNL     1      28.131   8.365  46.923  1.00  0.00     0.101 C 
HETATM    9  C9  UNL     1      29.087   7.716  47.862  1.00  0.00     0.173 C 
HETATM   10  N1  UNL     1      28.917   8.331  49.147  1.00  0.00    -0.267 NA
HETATM   11  C10 UNL     1      29.506   9.507  49.305  1.00  0.00     0.094 C 
HETATM   12  C11 UNL     1      30.944   9.806  48.975  1.00  0.00     0.060 C 
HETATM   13  C12 UNL     1      31.467   8.418  48.609  1.00  0.00     0.074 C 
HETATM   14  C13 UNL     1      30.530   8.022  47.492  1.00  0.00     0.091 C 
HETATM   15  N2  UNL     1      30.898   7.962  46.233  1.00  0.00    -0.138 NA
HETATM   16  O1  UNL     1      31.481   8.990  45.468  1.00  0.00    -0.256 OA
HETATM   17  C14 UNL     1      32.159  10.203  45.649  1.00  0.00     0.206 C 
HETATM   18  C15 UNL     1      32.320  10.670  47.050  1.00  0.00     0.061 C 
HETATM   19  C16 UNL     1      31.046  10.809  47.853  1.00  0.00     0.132 C 
HETATM   20  O2  UNL     1      29.927  10.817  47.161  1.00  0.00    -0.385 OA
HETATM   21  C17 UNL     1      28.836  11.527  47.312  1.00  0.00     0.169 C 
HETATM   22  C18 UNL     1      27.811  11.036  46.255  1.00  0.00     0.036 C 
HETATM   23  N3  UNL     1      28.892   6.304  47.858  1.00  0.00    -0.367 N 
HETATM   24  C19 UNL     1      28.184   5.264  48.548  1.00  0.00     0.085 C 
HETATM   25  C20 UNL     1      26.902   5.148  48.821  1.00  0.00     0.018 C 
HETATM   26  C21 UNL     1      25.668   5.883  48.617  1.00  0.00     0.027 C 
HETATM   27  C22 UNL     1      25.472   7.054  48.006  1.00  0.00     0.055 A 
HETATM   28 CL1  UNL     1      23.758   7.550  48.015  1.00  0.00    -0.083 Cl
HETATM   29  O3  UNL     1      25.384   8.242  47.366  1.00  0.00     0.000 OA
HETATM   30  H21 UNL     1      29.458   5.868  47.063  1.00  0.00     0.161 HD
ENDROOT
TORSDOF 0
ENDMDL
MODEL 9
REMARK VINA RESULT:      -7.5      2.321      4.299
REMARK  0 active torsions:
REMARK  status: ('A' for Active; 'I' for Inactive)
ROOT
HETATM    1  C1  UNL     1      18.426   4.329  48.867  1.00  0.00     0.048 C 
HETATM    2  C2  UNL     1      19.317   5.267  48.089  1.00  0.00    -0.058 A 
HETATM    3  C3  UNL     1      19.072   6.293  47.261  1.00  0.00    -0.015 A 
HETATM    4  C4  UNL     1      20.353   6.864  46.774  1.00  0.00     0.067 A 
HETATM    5  C5  UNL     1      21.358   6.031  47.420  1.00  0.00    -0.040 A 
HETATM    6  C6  UNL     1      20.764   5.112  48.181  1.00  0.00    -0.040 A 
HETATM    7  C7  UNL     1      21.549   4.132  48.975  1.00  0.00    -0.012 C 
HETATM    8  C8  UNL     1      22.190   4.973  49.789  1.00  0.00     0.101 C 
HETATM    9  C9  UNL     1      23.162   5.096  50.911  1.00  0.00     0.173 C 
HETATM   10  N1  UNL     1      24.383   4.467  50.497  1.00  0.00    -0.267 NA
HETATM   11  C10 UNL     1      24.406   3.145  50.575  1.00  0.00     0.094 C 
HETATM   12  C11 UNL     1      24.007   2.343  51.784  1.00  0.00     0.060 C 
HETATM   13  C12 UNL     1      23.767   3.445  52.815  1.00  0.00     0.074 C 
HETATM   14  C13 UNL     1      22.721   4.289  52.123  1.00  0.00     0.091 C 
HETATM   15  N2  UNL     1      21.465   4.330  52.501  1.00  0.00    -0.138 NA
HETATM   16  O1  UNL     1      20.585   3.240  52.644  1.00  0.00    -0.256 OA
HETATM   17  C14 UNL     1      20.624   1.847  52.789  1.00  0.00     0.206 C 
HETATM   18  C15 UNL     1      21.966   1.212  52.736  1.00  0.00     0.061 C 
HETATM   19  C16 UNL     1      22.788   1.501  51.499  1.00  0.00     0.132 C 
HETATM   20  O2  UNL     1      22.130   2.003  50.475  1.00  0.00    -0.385 OA
HETATM   21  C17 UNL     1      22.242   1.766  49.192  1.00  0.00     0.169 C 
HETATM   22  C18 UNL     1      21.269   2.725  48.455  1.00  0.00     0.036 C 
HETATM   23  N3  UNL     1      23.305   6.464  51.286  1.00  0.00    -0.367 N 
HETATM   24  C19 UNL     1      24.115   7.621  51.034  1.00  0.00     0.085 C 
HETATM   25  C20 UNL     1      24.435   8.201  49.897  1.00  0.00     0.018 C 
HETATM   26  C21 UNL     1      24.194   8.033  48.476  1.00  0.00     0.027 C 
HETATM   27  C22 UNL     1      23.475   7.102  47.844  1.00  0.00     0.055 A 
HETATM   28 CL1  UNL     1      23.483   7.319  46.073  1.00  0.00    -0.083 Cl
HETATM   29  O3  UNL     1      22.723   6.116  47.305  1.00  0.00     0.000 OA
HETATM   30  H21 UNL     1      22.541   6.723  51.988  1.00  0.00     0.161 HD
ENDROOT
TORSDOF 0
ENDMDL
