MODEL 1
REMARK VINA RESULT:      -8.0      0.000      0.000
REMARK  5 active torsions:
REMARK  status: ('A' for Active; 'I' for Inactive)
REMARK    1  A    between atoms: O1_2  and  C2_3 
REMARK    2  A    between atoms: C8_9  and  C9_10 
REMARK       I    between atoms: C9_10  and  N1_12 
REMARK    3  A    between atoms: N1_12  and  C10_13 
REMARK    4  A    between atoms: C16_19  and  S1_20 
REMARK    5  A    between atoms: S1_20  and  S2_21 
ROOT
HETATM    1  S2  UNL     1      24.519   3.645  49.544  1.00  0.00     0.029 SA
HETATM    2  C17 UNL     1      26.237   3.984  49.407  1.00  0.00     0.145 C 
HETATM    3  N2  UNL     1      27.390   4.197  49.311  1.00  0.00    -0.183 NA
ENDROOT
BRANCH   1   4
HETATM    4  S1  UNL     1      23.847   4.055  51.493  1.00  0.00    -0.023 SA
BRANCH   4   5
HETATM    5  C16 UNL     1      22.911   2.666  52.110  1.00  0.00     0.100 A 
HETATM    6  C8  UNL     1      23.432   1.490  52.696  1.00  0.00     0.082 A 
HETATM    7  C7  UNL     1      22.353   0.728  53.020  1.00  0.00     0.043 A 
HETATM    8  C2  UNL     1      22.276  -0.503  53.626  1.00  0.00     0.081 A 
HETATM    9  C6  UNL     1      21.185   1.336  52.679  1.00  0.00     0.049 A 
HETATM   10  C3  UNL     1      21.039  -1.063  53.856  1.00  0.00     0.038 A 
HETATM   11  C4  UNL     1      19.849  -0.465  53.518  1.00  0.00     0.005 A 
HETATM   12  C5  UNL     1      19.952   0.769  52.914  1.00  0.00     0.031 A 
HETATM   13  N3  UNL     1      21.579   2.503  52.134  1.00  0.00    -0.344 N 
HETATM   14  C18 UNL     1      20.593   3.472  51.636  1.00  0.00     0.157 C 
BRANCH   6  15
HETATM   15  C9  UNL     1      24.863   1.330  52.739  1.00  0.00     0.260 C 
HETATM   16  O2  UNL     1      25.501   1.467  53.854  1.00  0.00    -0.267 OA
HETATM   17  N1  UNL     1      25.938   1.047  51.873  1.00  0.00    -0.323 N 
HETATM   18  H7  UNL     1      25.674   0.927  50.895  1.00  0.00     0.169 HD
BRANCH  17  19
HETATM   19  C10 UNL     1      27.138   1.041  52.672  1.00  0.00     0.035 A 
HETATM   20  C11 UNL     1      27.770   2.223  52.987  1.00  0.00     0.029 A 
HETATM   21  C12 UNL     1      28.912   2.179  53.749  1.00  0.00     0.002 A 
HETATM   22  C13 UNL     1      29.431   1.000  54.198  1.00  0.00     0.000 A 
HETATM   23  C14 UNL     1      28.757  -0.166  53.854  1.00  0.00     0.002 A 
HETATM   24  C15 UNL     1      27.619  -0.193  53.099  1.00  0.00     0.029 A 
ENDBRANCH  17  19
ENDBRANCH   6  15
BRANCH   8  25
HETATM   25  O1  UNL     1      23.411  -1.179  54.007  1.00  0.00    -0.355 OA
HETATM   26  C1  UNL     1      23.759  -1.260  55.371  1.00  0.00     0.210 C 
ENDBRANCH   8  25
ENDBRANCH   4   5
ENDBRANCH   1   4
TORSDOF 5
ENDMDL
MODEL 2
REMARK VINA RESULT:      -7.8      1.223      1.460
REMARK  5 active torsions:
REMARK  status: ('A' for Active; 'I' for Inactive)
REMARK    1  A    between atoms: O1_2  and  C2_3 
REMARK    2  A    between atoms: C8_9  and  C9_10 
REMARK       I    between atoms: C9_10  and  N1_12 
REMARK    3  A    between atoms: N1_12  and  C10_13 
REMARK    4  A    between atoms: C16_19  and  S1_20 
REMARK    5  A    between atoms: S1_20  and  S2_21 
ROOT
HETATM    1  S2  UNL     1      23.704   3.822  49.270  1.00  0.00     0.029 SA
HETATM    2  C17 UNL     1      22.718   2.476  48.721  1.00  0.00     0.145 C 
HETATM    3  N2  UNL     1      22.049   1.585  48.345  1.00  0.00    -0.183 NA
ENDROOT
BRANCH   1   4
HETATM    4  S1  UNL     1      23.687   3.931  51.369  1.00  0.00    -0.023 SA
BRANCH   4   5
HETATM    5  C16 UNL     1      22.759   2.558  52.033  1.00  0.00     0.100 A 
HETATM    6  C8  UNL     1      23.286   1.419  52.683  1.00  0.00     0.082 A 
HETATM    7  C7  UNL     1      22.211   0.656  53.023  1.00  0.00     0.043 A 
HETATM    8  C2  UNL     1      22.140  -0.546  53.684  1.00  0.00     0.081 A 
HETATM    9  C6  UNL     1      21.042   1.230  52.632  1.00  0.00     0.049 A 
HETATM   10  C3  UNL     1      20.907  -1.113  53.918  1.00  0.00     0.038 A 
HETATM   11  C4  UNL     1      19.715  -0.549  53.530  1.00  0.00     0.005 A 
HETATM   12  C5  UNL     1      19.813   0.656  52.870  1.00  0.00     0.031 A 
HETATM   13  N3  UNL     1      21.429   2.376  52.041  1.00  0.00    -0.344 N 
HETATM   14  C18 UNL     1      20.439   3.307  51.479  1.00  0.00     0.157 C 
BRANCH   6  15
HETATM   15  C9  UNL     1      24.717   1.283  52.760  1.00  0.00     0.260 C 
HETATM   16  O2  UNL     1      25.343   1.583  53.849  1.00  0.00    -0.267 OA
HETATM   17  N1  UNL     1      25.803   0.892  51.952  1.00  0.00    -0.323 N 
HETATM   18  H7  UNL     1      25.550   0.632  50.998  1.00  0.00     0.169 HD
BRANCH  17  19
HETATM   19  C10 UNL     1      26.996   1.012  52.753  1.00  0.00     0.035 A 
HETATM   20  C11 UNL     1      27.634   2.226  52.872  1.00  0.00     0.029 A 
HETATM   21  C12 UNL     1      28.769   2.303  53.643  1.00  0.00     0.002 A 
HETATM   22  C13 UNL     1      29.273   1.213  54.289  1.00  0.00     0.000 A 
HETATM   23  C14 UNL     1      28.594   0.010  54.138  1.00  0.00     0.002 A 
HETATM   24  C15 UNL     1      27.463  -0.136  53.386  1.00  0.00     0.029 A 
ENDBRANCH  17  19
ENDBRANCH   6  15
BRANCH   8  25
HETATM   25  O1  UNL     1      23.277  -1.186  54.117  1.00  0.00    -0.355 OA
HETATM   26  C1  UNL     1      23.488  -1.393  55.496  1.00  0.00     0.210 C 
ENDBRANCH   8  25
ENDBRANCH   4   5
ENDBRANCH   1   4
TORSDOF 5
ENDMDL
MODEL 3
REMARK VINA RESULT:      -7.7      2.788      5.244
REMARK  5 active torsions:
REMARK  status: ('A' for Active; 'I' for Inactive)
REMARK    1  A    between atoms: O1_2  and  C2_3 
REMARK    2  A    between atoms: C8_9  and  C9_10 
REMARK       I    between atoms: C9_10  and  N1_12 
REMARK    3  A    between atoms: N1_12  and  C10_13 
REMARK    4  A    between atoms: C16_19  and  S1_20 
REMARK    5  A    between atoms: S1_20  and  S2_21 
ROOT
HETATM    1  S2  UNL     1      27.948   2.122  53.398  1.00  0.00     0.029 SA
HETATM    2  C17 UNL     1      29.031   0.753  53.592  1.00  0.00     0.145 C 
HETATM    3  N2  UNL     1      29.769  -0.155  53.720  1.00  0.00    -0.183 NA
ENDROOT
BRANCH   1   4
HETATM    4  S1  UNL     1      26.600   1.768  51.825  1.00  0.00    -0.023 SA
BRANCH   4   5
HETATM    5  C16 UNL     1      25.035   1.219  52.488  1.00  0.00     0.100 A 
HETATM    6  C8  UNL     1      23.786   1.866  52.348  1.00  0.00     0.082 A 
HETATM    7  C7  UNL     1      22.888   1.082  53.004  1.00  0.00     0.043 A 
HETATM    8  C2  UNL     1      21.532   1.223  53.173  1.00  0.00     0.081 A 
HETATM    9  C6  UNL     1      23.480  -0.013  53.551  1.00  0.00     0.049 A 
HETATM   10  C3  UNL     1      20.839   0.268  53.881  1.00  0.00     0.038 A 
HETATM   11  C4  UNL     1      21.419  -0.845  54.442  1.00  0.00     0.005 A 
HETATM   12  C5  UNL     1      22.779  -0.965  54.258  1.00  0.00     0.031 A 
HETATM   13  N3  UNL     1      24.775   0.118  53.209  1.00  0.00    -0.344 N 
HETATM   14  C18 UNL     1      25.767  -0.889  53.613  1.00  0.00     0.157 C 
BRANCH   6  15
HETATM   15  C9  UNL     1      23.753   3.141  51.678  1.00  0.00     0.260 C 
HETATM   16  O2  UNL     1      23.867   4.235  52.354  1.00  0.00    -0.267 OA
HETATM   17  N1  UNL     1      23.615   3.667  50.379  1.00  0.00    -0.323 N 
HETATM   18  H7  UNL     1      23.474   2.966  49.650  1.00  0.00     0.169 HD
BRANCH  17  19
HETATM   19  C10 UNL     1      23.693   5.103  50.490  1.00  0.00     0.035 A 
HETATM   20  C11 UNL     1      22.552   5.848  50.682  1.00  0.00     0.029 A 
HETATM   21  C12 UNL     1      22.664   7.213  50.783  1.00  0.00     0.002 A 
HETATM   22  C13 UNL     1      23.871   7.843  50.696  1.00  0.00     0.000 A 
HETATM   23  C14 UNL     1      24.994   7.048  50.501  1.00  0.00     0.002 A 
HETATM   24  C15 UNL     1      24.953   5.686  50.392  1.00  0.00     0.029 A 
ENDBRANCH  17  19
ENDBRANCH   6  15
BRANCH   8  25
HETATM   25  O1  UNL     1      20.859   2.300  52.643  1.00  0.00    -0.355 OA
HETATM   26  C1  UNL     1      20.106   2.149  51.461  1.00  0.00     0.210 C 
ENDBRANCH   8  25
ENDBRANCH   4   5
ENDBRANCH   1   4
TORSDOF 5
ENDMDL
MODEL 4
REMARK VINA RESULT:      -7.6      1.848      2.268
REMARK  5 active torsions:
REMARK  status: ('A' for Active; 'I' for Inactive)
REMARK    1  A    between atoms: O1_2  and  C2_3 
REMARK    2  A    between atoms: C8_9  and  C9_10 
REMARK       I    between atoms: C9_10  and  N1_12 
REMARK    3  A    between atoms: N1_12  and  C10_13 
REMARK    4  A    between atoms: C16_19  and  S1_20 
REMARK    5  A    between atoms: S1_20  and  S2_21 
ROOT
HETATM    1  S2  UNL     1      24.593   5.516  50.346  1.00  0.00     0.029 SA
HETATM    2  C17 UNL     1      22.970   5.756  50.975  1.00  0.00     0.145 C 
HETATM    3  N2  UNL     1      21.889   5.922  51.410  1.00  0.00    -0.183 NA
ENDROOT
BRANCH   1   4
HETATM    4  S1  UNL     1      24.882   3.501  49.822  1.00  0.00    -0.023 SA
BRANCH   4   5
HETATM    5  C16 UNL     1      23.536   2.516  50.460  1.00  0.00     0.100 A 
HETATM    6  C8  UNL     1      23.525   1.786  51.671  1.00  0.00     0.082 A 
HETATM    7  C7  UNL     1      22.296   1.207  51.742  1.00  0.00     0.043 A 
HETATM    8  C2  UNL     1      21.739   0.404  52.708  1.00  0.00     0.081 A 
HETATM    9  C6  UNL     1      21.530   1.516  50.662  1.00  0.00     0.049 A 
HETATM   10  C3  UNL     1      20.450  -0.050  52.545  1.00  0.00     0.038 A 
HETATM   11  C4  UNL     1      19.661   0.250  51.460  1.00  0.00     0.005 A 
HETATM   12  C5  UNL     1      20.240   1.057  50.507  1.00  0.00     0.031 A 
HETATM   13  N3  UNL     1      22.325   2.309  49.920  1.00  0.00    -0.344 N 
HETATM   14  C18 UNL     1      21.853   2.872  48.647  1.00  0.00     0.157 C 
BRANCH   6  15
HETATM   15  C9  UNL     1      24.735   1.746  52.451  1.00  0.00     0.260 C 
HETATM   16  O2  UNL     1      25.578   0.780  52.298  1.00  0.00    -0.267 OA
HETATM   17  N1  UNL     1      25.391   2.489  53.452  1.00  0.00    -0.323 N 
HETATM   18  H7  UNL     1      24.881   3.314  53.771  1.00  0.00     0.169 HD
BRANCH  17  19
HETATM   19  C10 UNL     1      26.626   1.807  53.749  1.00  0.00     0.035 A 
HETATM   20  C11 UNL     1      27.805   2.217  53.167  1.00  0.00     0.029 A 
HETATM   21  C12 UNL     1      28.962   1.543  53.472  1.00  0.00     0.002 A 
HETATM   22  C13 UNL     1      28.970   0.484  54.332  1.00  0.00     0.000 A 
HETATM   23  C14 UNL     1      27.756   0.107  54.894  1.00  0.00     0.002 A 
HETATM   24  C15 UNL     1      26.570   0.733  54.632  1.00  0.00     0.029 A 
ENDBRANCH  17  19
ENDBRANCH   6  15
BRANCH   8  25
HETATM   25  O1  UNL     1      22.448   0.053  53.834  1.00  0.00    -0.355 OA
HETATM   26  C1  UNL     1      21.938  -0.928  54.710  1.00  0.00     0.210 C 
ENDBRANCH   8  25
ENDBRANCH   4   5
ENDBRANCH   1   4
TORSDOF 5
ENDMDL
MODEL 5
REMARK VINA RESULT:      -7.3      2.510      4.789
REMARK  5 active torsions:
REMARK  status: ('A' for Active; 'I' for Inactive)
REMARK    1  A    between atoms: O1_2  and  C2_3 
REMARK    2  A    between atoms: C8_9  and  C9_10 
REMARK       I    between atoms: C9_10  and  N1_12 
REMARK    3  A    between atoms: N1_12  and  C10_13 
REMARK    4  A    between atoms: C16_19  and  S1_20 
REMARK    5  A    between atoms: S1_20  and  S2_21 
ROOT
HETATM    1  S2  UNL     1      27.373  -0.980  52.703  1.00  0.00     0.029 SA
HETATM    2  C17 UNL     1      29.006  -0.948  53.348  1.00  0.00     0.145 C 
HETATM    3  N2  UNL     1      30.097  -0.940  53.789  1.00  0.00    -0.183 NA
ENDROOT
BRANCH   1   4
HETATM    4  S1  UNL     1      26.371   0.808  53.166  1.00  0.00    -0.023 SA
BRANCH   4   5
HETATM    5  C16 UNL     1      24.608   0.525  53.168  1.00  0.00     0.100 A 
HETATM    6  C8  UNL     1      23.664   1.074  52.270  1.00  0.00     0.082 A 
HETATM    7  C7  UNL     1      22.458   0.572  52.649  1.00  0.00     0.043 A 
HETATM    8  C2  UNL     1      21.204   0.758  52.118  1.00  0.00     0.081 A 
HETATM    9  C6  UNL     1      22.570  -0.253  53.724  1.00  0.00     0.049 A 
HETATM   10  C3  UNL     1      20.129   0.115  52.689  1.00  0.00     0.038 A 
HETATM   11  C4  UNL     1      20.222  -0.721  53.776  1.00  0.00     0.005 A 
HETATM   12  C5  UNL     1      21.489  -0.893  54.289  1.00  0.00     0.031 A 
HETATM   13  N3  UNL     1      23.888  -0.247  53.997  1.00  0.00    -0.344 N 
HETATM   14  C18 UNL     1      24.431  -1.039  55.110  1.00  0.00     0.157 C 
BRANCH   6  15
HETATM   15  C9  UNL     1      24.130   2.025  51.294  1.00  0.00     0.260 C 
HETATM   16  O2  UNL     1      24.874   3.017  51.654  1.00  0.00    -0.267 OA
HETATM   17  N1  UNL     1      24.033   2.279  49.912  1.00  0.00    -0.323 N 
HETATM   18  H7  UNL     1      23.445   1.620  49.399  1.00  0.00     0.169 HD
BRANCH  17  19
HETATM   19  C10 UNL     1      24.810   3.463  49.640  1.00  0.00     0.035 A 
HETATM   20  C11 UNL     1      24.199   4.694  49.563  1.00  0.00     0.029 A 
HETATM   21  C12 UNL     1      24.970   5.800  49.302  1.00  0.00     0.002 A 
HETATM   22  C13 UNL     1      26.319   5.708  49.118  1.00  0.00     0.000 A 
HETATM   23  C14 UNL     1      26.890   4.443  49.205  1.00  0.00     0.002 A 
HETATM   24  C15 UNL     1      26.181   3.304  49.460  1.00  0.00     0.029 A 
ENDBRANCH  17  19
ENDBRANCH   6  15
BRANCH   8  25
HETATM   25  O1  UNL     1      21.009   1.572  51.026  1.00  0.00    -0.355 OA
HETATM   26  C1  UNL     1      20.353   2.811  51.178  1.00  0.00     0.210 C 
ENDBRANCH   8  25
ENDBRANCH   4   5
ENDBRANCH   1   4
TORSDOF 5
ENDMDL
MODEL 6
REMARK VINA RESULT:      -7.2      1.770      6.076
REMARK  5 active torsions:
REMARK  status: ('A' for Active; 'I' for Inactive)
REMARK    1  A    between atoms: O1_2  and  C2_3 
REMARK    2  A    between atoms: C8_9  and  C9_10 
REMARK       I    between atoms: C9_10  and  N1_12 
REMARK    3  A    between atoms: N1_12  and  C10_13 
REMARK    4  A    between atoms: C16_19  and  S1_20 
REMARK    5  A    between atoms: S1_20  and  S2_21 
ROOT
HETATM    1  S2  UNL     1      22.461   4.747  50.838  1.00  0.00     0.029 SA
HETATM    2  C17 UNL     1      23.183   4.910  52.431  1.00  0.00     0.145 C 
HETATM    3  N2  UNL     1      23.673   5.033  53.493  1.00  0.00    -0.183 NA
ENDROOT
BRANCH   1   4
HETATM    4  S1  UNL     1      23.054   2.937  49.950  1.00  0.00    -0.023 SA
BRANCH   4   5
HETATM    5  C16 UNL     1      24.013   1.983  51.115  1.00  0.00     0.100 A 
HETATM    6  C8  UNL     1      23.515   1.054  52.057  1.00  0.00     0.082 A 
HETATM    7  C7  UNL     1      24.605   0.571  52.712  1.00  0.00     0.043 A 
HETATM    8  C2  UNL     1      24.706  -0.366  53.713  1.00  0.00     0.081 A 
HETATM    9  C6  UNL     1      25.757   1.129  52.254  1.00  0.00     0.049 A 
HETATM   10  C3  UNL     1      25.949  -0.694  54.205  1.00  0.00     0.038 A 
HETATM   11  C4  UNL     1      27.124  -0.140  53.756  1.00  0.00     0.005 A 
HETATM   12  C5  UNL     1      26.997   0.795  52.752  1.00  0.00     0.031 A 
HETATM   13  N3  UNL     1      25.344   1.973  51.291  1.00  0.00    -0.344 N 
HETATM   14  C18 UNL     1      26.309   2.780  50.529  1.00  0.00     0.157 C 
BRANCH   6  15
HETATM   15  C9  UNL     1      22.087   0.900  52.169  1.00  0.00     0.260 C 
HETATM   16  O2  UNL     1      21.485  -0.060  51.549  1.00  0.00    -0.267 OA
HETATM   17  N1  UNL     1      20.987   1.517  52.796  1.00  0.00    -0.323 N 
HETATM   18  H7  UNL     1      21.220   2.350  53.337  1.00  0.00     0.169 HD
BRANCH  17  19
HETATM   19  C10 UNL     1      19.813   0.760  52.438  1.00  0.00     0.035 A 
HETATM   20  C11 UNL     1      19.103   1.074  51.301  1.00  0.00     0.029 A 
HETATM   21  C12 UNL     1      17.989   0.332  50.992  1.00  0.00     0.002 A 
HETATM   22  C13 UNL     1      17.573  -0.701  51.780  1.00  0.00     0.000 A 
HETATM   23  C14 UNL     1      18.322  -0.978  52.917  1.00  0.00     0.002 A 
HETATM   24  C15 UNL     1      19.438  -0.280  53.283  1.00  0.00     0.029 A 
ENDBRANCH  17  19
ENDBRANCH   6  15
BRANCH   8  25
HETATM   25  O1  UNL     1      23.587  -0.981  54.225  1.00  0.00    -0.355 OA
HETATM   26  C1  UNL     1      23.549  -1.358  55.583  1.00  0.00     0.210 C 
ENDBRANCH   8  25
ENDBRANCH   4   5
ENDBRANCH   1   4
TORSDOF 5
ENDMDL
MODEL 7
REMARK VINA RESULT:      -7.2      2.309      4.631
REMARK  5 active torsions:
REMARK  status: ('A' for Active; 'I' for Inactive)
REMARK    1  A    between atoms: O1_2  and  C2_3 
REMARK    2  A    between atoms: C8_9  and  C9_10 
REMARK       I    between atoms: C9_10  and  N1_12 
REMARK    3  A    between atoms: N1_12  and  C10_13 
REMARK    4  A    between atoms: C16_19  and  S1_20 
REMARK    5  A    between atoms: S1_20  and  S2_21 
ROOT
HETATM    1  S2  UNL     1      20.359   2.576  49.411  1.00  0.00     0.029 SA
HETATM    2  C17 UNL     1      21.484   2.540  48.063  1.00  0.00     0.145 C 
HETATM    3  N2  UNL     1      22.237   2.501  47.160  1.00  0.00    -0.183 NA
ENDROOT
BRANCH   1   4
HETATM    4  S1  UNL     1      21.254   3.477  51.086  1.00  0.00    -0.023 SA
BRANCH   4   5
HETATM    5  C16 UNL     1      22.307   2.296  51.911  1.00  0.00     0.100 A 
HETATM    6  C8  UNL     1      23.706   2.158  51.755  1.00  0.00     0.082 A 
HETATM    7  C7  UNL     1      24.073   1.145  52.585  1.00  0.00     0.043 A 
HETATM    8  C2  UNL     1      25.308   0.602  52.843  1.00  0.00     0.081 A 
HETATM    9  C6  UNL     1      23.007   0.629  53.253  1.00  0.00     0.049 A 
HETATM   10  C3  UNL     1      25.415  -0.427  53.751  1.00  0.00     0.038 A 
HETATM   11  C4  UNL     1      24.350  -0.962  54.435  1.00  0.00     0.005 A 
HETATM   12  C5  UNL     1      23.122  -0.401  54.161  1.00  0.00     0.031 A 
HETATM   13  N3  UNL     1      21.966   1.360  52.811  1.00  0.00    -0.344 N 
HETATM   14  C18 UNL     1      20.605   1.113  53.309  1.00  0.00     0.157 C 
BRANCH   6  15
HETATM   15  C9  UNL     1      24.364   2.986  50.777  1.00  0.00     0.260 C 
HETATM   16  O2  UNL     1      25.038   4.023  51.148  1.00  0.00    -0.267 OA
HETATM   17  N1  UNL     1      24.541   3.064  49.382  1.00  0.00    -0.323 N 
HETATM   18  H7  UNL     1      24.055   2.340  48.851  1.00  0.00     0.169 HD
BRANCH  17  19
HETATM   19  C10 UNL     1      25.371   4.214  49.121  1.00  0.00     0.035 A 
HETATM   20  C11 UNL     1      26.741   4.086  49.074  1.00  0.00     0.029 A 
HETATM   21  C12 UNL     1      27.501   5.203  48.824  1.00  0.00     0.002 A 
HETATM   22  C13 UNL     1      26.933   6.427  48.622  1.00  0.00     0.000 A 
HETATM   23  C14 UNL     1      25.547   6.505  48.679  1.00  0.00     0.002 A 
HETATM   24  C15 UNL     1      24.733   5.435  48.924  1.00  0.00     0.029 A 
ENDBRANCH  17  19
ENDBRANCH   6  15
BRANCH   8  25
HETATM   25  O1  UNL     1      26.436   1.074  52.213  1.00  0.00    -0.355 OA
HETATM   26  C1  UNL     1      27.499   1.604  52.973  1.00  0.00     0.210 C 
ENDBRANCH   8  25
ENDBRANCH   4   5
ENDBRANCH   1   4
TORSDOF 5
ENDMDL
MODEL 8
REMARK VINA RESULT:      -7.2      2.837      6.061
REMARK  5 active torsions:
REMARK  status: ('A' for Active; 'I' for Inactive)
REMARK    1  A    between atoms: O1_2  and  C2_3 
REMARK    2  A    between atoms: C8_9  and  C9_10 
REMARK       I    between atoms: C9_10  and  N1_12 
REMARK    3  A    between atoms: N1_12  and  C10_13 
REMARK    4  A    between atoms: C16_19  and  S1_20 
REMARK    5  A    between atoms: S1_20  and  S2_21 
ROOT
HETATM    1  S2  UNL     1      19.925   0.757  51.161  1.00  0.00     0.029 SA
HETATM    2  C17 UNL     1      20.852   0.962  49.683  1.00  0.00     0.145 C 
HETATM    3  N2  UNL     1      21.475   1.084  48.692  1.00  0.00    -0.183 NA
ENDROOT
BRANCH   1   4
HETATM    4  S1  UNL     1      20.910   1.675  52.774  1.00  0.00    -0.023 SA
BRANCH   4   5
HETATM    5  C16 UNL     1      22.647   1.264  52.729  1.00  0.00     0.100 A 
HETATM    6  C8  UNL     1      23.686   2.049  52.180  1.00  0.00     0.082 A 
HETATM    7  C7  UNL     1      24.831   1.342  52.384  1.00  0.00     0.043 A 
HETATM    8  C2  UNL     1      26.134   1.640  52.066  1.00  0.00     0.081 A 
HETATM    9  C6  UNL     1      24.591   0.165  53.020  1.00  0.00     0.049 A 
HETATM   10  C3  UNL     1      27.128   0.746  52.398  1.00  0.00     0.038 A 
HETATM   11  C4  UNL     1      26.905  -0.449  53.039  1.00  0.00     0.005 A 
HETATM   12  C5  UNL     1      25.591  -0.723  53.348  1.00  0.00     0.031 A 
HETATM   13  N3  UNL     1      23.257   0.167  53.206  1.00  0.00    -0.344 N 
HETATM   14  C18 UNL     1      22.588  -0.954  53.882  1.00  0.00     0.157 C 
BRANCH   6  15
HETATM   15  C9  UNL     1      23.330   3.273  51.509  1.00  0.00     0.260 C 
HETATM   16  O2  UNL     1      23.457   4.408  52.111  1.00  0.00    -0.267 OA
HETATM   17  N1  UNL     1      22.821   3.708  50.269  1.00  0.00    -0.323 N 
HETATM   18  H7  UNL     1      22.604   2.957  49.613  1.00  0.00     0.169 HD
BRANCH  17  19
HETATM   19  C10 UNL     1      22.736   5.146  50.325  1.00  0.00     0.035 A 
HETATM   20  C11 UNL     1      21.592   5.758  50.785  1.00  0.00     0.029 A 
HETATM   21  C12 UNL     1      21.546   7.130  50.823  1.00  0.00     0.002 A 
HETATM   22  C13 UNL     1      22.600   7.895  50.418  1.00  0.00     0.000 A 
HETATM   23  C14 UNL     1      23.733   7.232  49.962  1.00  0.00     0.002 A 
HETATM   24  C15 UNL     1      23.844   5.872  49.897  1.00  0.00     0.029 A 
ENDBRANCH  17  19
ENDBRANCH   6  15
BRANCH   8  25
HETATM   25  O1  UNL     1      26.460   2.814  51.429  1.00  0.00    -0.355 OA
HETATM   26  C1  UNL     1      26.530   2.856  50.021  1.00  0.00     0.210 C 
ENDBRANCH   8  25
ENDBRANCH   4   5
ENDBRANCH   1   4
TORSDOF 5
ENDMDL
MODEL 9
REMARK VINA RESULT:      -7.1      2.673      4.990
REMARK  5 active torsions:
REMARK  status: ('A' for Active; 'I' for Inactive)
REMARK    1  A    between atoms: O1_2  and  C2_3 
REMARK    2  A    between atoms: C8_9  and  C9_10 
REMARK       I    between atoms: C9_10  and  N1_12 
REMARK    3  A    between atoms: N1_12  and  C10_13 
REMARK    4  A    between atoms: C16_19  and  S1_20 
REMARK    5  A    between atoms: S1_20  and  S2_21 
ROOT
HETATM    1  S2  UNL     1      19.175   4.069  50.560  1.00  0.00     0.029 SA
HETATM    2  C17 UNL     1      17.701   3.977  51.510  1.00  0.00     0.145 C 
HETATM    3  N2  UNL     1      16.721   3.922  52.159  1.00  0.00    -0.183 NA
ENDROOT
BRANCH   1   4
HETATM    4  S1  UNL     1      19.700   2.164  49.842  1.00  0.00    -0.023 SA
BRANCH   4   5
HETATM    5  C16 UNL     1      20.529   1.245  51.129  1.00  0.00     0.100 A 
HETATM    6  C8  UNL     1      21.900   1.317  51.468  1.00  0.00     0.082 A 
HETATM    7  C7  UNL     1      22.069   0.454  52.507  1.00  0.00     0.043 A 
HETATM    8  C2  UNL     1      23.191   0.140  53.235  1.00  0.00     0.081 A 
HETATM    9  C6  UNL     1      20.905  -0.159  52.848  1.00  0.00     0.049 A 
HETATM   10  C3  UNL     1      23.093  -0.771  54.262  1.00  0.00     0.038 A 
HETATM   11  C4  UNL     1      21.926  -1.403  54.621  1.00  0.00     0.005 A 
HETATM   12  C5  UNL     1      20.815  -1.070  53.877  1.00  0.00     0.031 A 
HETATM   13  N3  UNL     1      20.007   0.354  51.986  1.00  0.00    -0.344 N 
HETATM   14  C18 UNL     1      18.596  -0.058  52.032  1.00  0.00     0.157 C 
BRANCH   6  15
HETATM   15  C9  UNL     1      22.757   2.144  50.658  1.00  0.00     0.260 C 
HETATM   16  O2  UNL     1      23.266   3.227  51.145  1.00  0.00    -0.267 OA
HETATM   17  N1  UNL     1      23.290   2.185  49.355  1.00  0.00    -0.323 N 
HETATM   18  H7  UNL     1      22.990   1.419  48.750  1.00  0.00     0.169 HD
BRANCH  17  19
HETATM   19  C10 UNL     1      24.112   3.367  49.268  1.00  0.00     0.035 A 
HETATM   20  C11 UNL     1      23.568   4.563  48.857  1.00  0.00     0.029 A 
HETATM   21  C12 UNL     1      24.381   5.668  48.785  1.00  0.00     0.002 A 
HETATM   22  C13 UNL     1      25.705   5.607  49.108  1.00  0.00     0.000 A 
HETATM   23  C14 UNL     1      26.207   4.377  49.516  1.00  0.00     0.002 A 
HETATM   24  C15 UNL     1      25.455   3.241  49.609  1.00  0.00     0.029 A 
ENDBRANCH  17  19
ENDBRANCH   6  15
BRANCH   8  25
HETATM   25  O1  UNL     1      24.405   0.724  52.956  1.00  0.00    -0.355 OA
HETATM   26  C1  UNL     1      25.592   0.162  53.469  1.00  0.00     0.210 C 
ENDBRANCH   8  25
ENDBRANCH   4   5
ENDBRANCH   1   4
TORSDOF 5
ENDMDL
