MODEL 1
REMARK VINA RESULT:      -7.2      0.000      0.000
REMARK  5 active torsions:
REMARK  status: ('A' for Active; 'I' for Inactive)
REMARK    1  A    between atoms: C3_3  and  C4_4 
REMARK       I    between atoms: C4_4  and  N1_6 
REMARK    2  A    between atoms: C14_16  and  C15_17 
REMARK    3  A    between atoms: C15_17  and  O2_18 
REMARK    4  A    between atoms: C19_23  and  N3_24 
REMARK    5  A    between atoms: C20_25  and  S1_26 
ROOT
HETATM    1  C1  UNL     1      21.884   4.325  45.346  1.00  0.00     0.112 C 
HETATM    2  C2  UNL     1      21.667   3.526  46.591  1.00  0.00    -0.101 C 
HETATM    3  C3  UNL     1      21.494   2.870  47.571  1.00  0.00    -0.006 C 
ENDROOT
BRANCH   3   4
HETATM    4  C4  UNL     1      21.273   2.024  48.785  1.00  0.00     0.298 C 
HETATM    5  O1  UNL     1      21.905   0.953  48.984  1.00  0.00    -0.258 OA
HETATM    6  N1  UNL     1      20.274   2.439  49.782  1.00  0.00    -0.340 N 
HETATM    7  C5  UNL     1      19.481   3.667  49.917  1.00  0.00     0.127 C 
HETATM    8  C21 UNL     1      19.947   1.497  50.768  1.00  0.00     0.146 C 
HETATM    9  C6  UNL     1      20.115   4.516  50.863  1.00  0.00     0.025 C 
HETATM   10  C7  UNL     1      21.247   5.367  50.983  1.00  0.00     0.041 C 
HETATM   11  C8  UNL     1      22.490   4.704  50.535  1.00  0.00    -0.051 A 
HETATM   12  C9  UNL     1      22.795   5.275  49.266  1.00  0.00     0.007 A 
HETATM   13  C13 UNL     1      23.299   3.771  51.156  1.00  0.00    -0.041 A 
HETATM   14  C10 UNL     1      23.940   4.874  48.642  1.00  0.00     0.001 A 
HETATM   15  C11 UNL     1      24.870   3.965  49.096  1.00  0.00     0.001 A 
HETATM   16  C12 UNL     1      24.436   3.477  50.373  1.00  0.00     0.008 A 
HETATM   17  C14 UNL     1      23.070   3.173  52.437  1.00  0.00     0.076 C 
HETATM   18  C16 UNL     1      22.974   1.724  52.647  1.00  0.00    -0.007 A 
HETATM   19  C17 UNL     1      21.807   1.003  52.465  1.00  0.00    -0.019 A 
HETATM   20  C19 UNL     1      24.120   0.843  53.106  1.00  0.00     0.369 A 
HETATM   21  C18 UNL     1      22.289  -0.314  52.809  1.00  0.00     0.122 A 
HETATM   22  C20 UNL     1      20.465   1.293  52.097  1.00  0.00     0.097 C 
HETATM   23  N2  UNL     1      23.499  -0.447  53.151  1.00  0.00    -0.262 NA
BRANCH  17  24
HETATM   24  C15 UNL     1      24.137   3.709  53.432  1.00  0.00     0.178 C 
BRANCH  24  25
HETATM   25  O2  UNL     1      23.902   5.107  53.575  1.00  0.00    -0.400 OA
HETATM   26  H17 UNL     1      23.993   5.357  54.535  1.00  0.00     0.209 HD
ENDBRANCH  24  25
ENDBRANCH  17  24
BRANCH  22  27
HETATM   27  S1  UNL     1      19.390  -0.133  52.748  1.00  0.00    -0.171 SA
HETATM   28  H23 UNL     1      19.915  -0.504  54.000  1.00  0.00     0.102 HD
ENDBRANCH  22  27
BRANCH  20  29
HETATM   29  N3  UNL     1      25.279   0.869  52.300  1.00  0.00     0.107 N 
HETATM   30  H20 UNL     1      26.155   1.131  52.735  1.00  0.00     0.316 HD
HETATM   31  H21 UNL     1      25.388   0.012  51.716  1.00  0.00     0.316 HD
ENDBRANCH  20  29
ENDBRANCH   3   4
TORSDOF 5
ENDMDL
MODEL 2
REMARK VINA RESULT:      -6.9      2.812      5.323
REMARK  5 active torsions:
REMARK  status: ('A' for Active; 'I' for Inactive)
REMARK    1  A    between atoms: C3_3  and  C4_4 
REMARK       I    between atoms: C4_4  and  N1_6 
REMARK    2  A    between atoms: C14_16  and  C15_17 
REMARK    3  A    between atoms: C15_17  and  O2_18 
REMARK    4  A    between atoms: C19_23  and  N3_24 
REMARK    5  A    between atoms: C20_25  and  S1_26 
ROOT
HETATM    1  C1  UNL     1      20.825  -0.486  54.310  1.00  0.00     0.112 C 
HETATM    2  C2  UNL     1      20.653   0.770  53.517  1.00  0.00    -0.101 C 
HETATM    3  C3  UNL     1      20.526   1.783  52.901  1.00  0.00    -0.006 C 
ENDROOT
BRANCH   3   4
HETATM    4  C4  UNL     1      20.379   3.068  52.149  1.00  0.00     0.298 C 
HETATM    5  O1  UNL     1      20.470   4.192  52.710  1.00  0.00    -0.258 OA
HETATM    6  N1  UNL     1      20.103   3.031  50.704  1.00  0.00    -0.340 N 
HETATM    7  C5  UNL     1      20.069   1.921  49.745  1.00  0.00     0.127 C 
HETATM    8  C21 UNL     1      19.746   4.248  50.106  1.00  0.00     0.146 C 
HETATM    9  C6  UNL     1      21.307   1.882  49.051  1.00  0.00     0.025 C 
HETATM   10  C7  UNL     1      22.665   1.517  49.256  1.00  0.00     0.041 C 
HETATM   11  C8  UNL     1      23.218   2.104  50.495  1.00  0.00    -0.051 A 
HETATM   12  C9  UNL     1      23.288   1.033  51.431  1.00  0.00     0.007 A 
HETATM   13  C13 UNL     1      23.665   3.382  50.776  1.00  0.00    -0.041 A 
HETATM   14  C10 UNL     1      23.820   1.292  52.660  1.00  0.00     0.001 A 
HETATM   15  C11 UNL     1      24.317   2.488  53.126  1.00  0.00     0.001 A 
HETATM   16  C12 UNL     1      24.184   3.466  52.086  1.00  0.00     0.008 A 
HETATM   17  C14 UNL     1      23.648   4.499  49.880  1.00  0.00     0.076 C 
HETATM   18  C16 UNL     1      22.975   5.768  50.182  1.00  0.00    -0.007 A 
HETATM   19  C17 UNL     1      21.627   5.987  49.959  1.00  0.00    -0.019 A 
HETATM   20  C19 UNL     1      23.664   6.994  50.748  1.00  0.00     0.369 A 
HETATM   21  C18 UNL     1      21.533   7.352  50.417  1.00  0.00     0.122 A 
HETATM   22  C20 UNL     1      20.538   5.243  49.429  1.00  0.00     0.097 C 
HETATM   23  N2  UNL     1      22.578   7.924  50.842  1.00  0.00    -0.262 NA
BRANCH  17  24
HETATM   24  C15 UNL     1      25.113   4.842  49.489  1.00  0.00     0.178 C 
BRANCH  24  25
HETATM   25  O2  UNL     1      25.759   3.607  49.188  1.00  0.00    -0.400 OA
HETATM   26  H17 UNL     1      25.249   3.138  48.472  1.00  0.00     0.209 HD
ENDBRANCH  24  25
ENDBRANCH  17  24
BRANCH  22  27
HETATM   27  S1  UNL     1      19.230   6.502  48.864  1.00  0.00    -0.171 SA
HETATM   28  H23 UNL     1      19.848   7.766  48.869  1.00  0.00     0.102 HD
ENDBRANCH  22  27
BRANCH  20  29
HETATM   29  N3  UNL     1      24.341   6.811  51.974  1.00  0.00     0.107 N 
HETATM   30  H20 UNL     1      24.192   5.943  52.473  1.00  0.00     0.316 HD
HETATM   31  H21 UNL     1      25.354   7.049  51.920  1.00  0.00     0.316 HD
ENDBRANCH  20  29
ENDBRANCH   3   4
TORSDOF 5
ENDMDL
MODEL 3
REMARK VINA RESULT:      -6.9      8.435     10.946
REMARK  5 active torsions:
REMARK  status: ('A' for Active; 'I' for Inactive)
REMARK    1  A    between atoms: C3_3  and  C4_4 
REMARK       I    between atoms: C4_4  and  N1_6 
REMARK    2  A    between atoms: C14_16  and  C15_17 
REMARK    3  A    between atoms: C15_17  and  O2_18 
REMARK    4  A    between atoms: C19_23  and  N3_24 
REMARK    5  A    between atoms: C20_25  and  S1_26 
ROOT
HETATM    1  C1  UNL     1      33.394   5.494  45.881  1.00  0.00     0.112 C 
HETATM    2  C2  UNL     1      32.323   6.532  45.770  1.00  0.00    -0.101 C 
HETATM    3  C3  UNL     1      31.484   7.374  45.673  1.00  0.00    -0.006 C 
ENDROOT
BRANCH   3   4
HETATM    4  C4  UNL     1      30.452   8.448  45.541  1.00  0.00     0.298 C 
HETATM    5  O1  UNL     1      29.370   8.271  44.920  1.00  0.00    -0.258 OA
HETATM    6  N1  UNL     1      30.702   9.768  46.141  1.00  0.00    -0.340 N 
HETATM    7  C5  UNL     1      31.772  10.253  47.021  1.00  0.00     0.127 C 
HETATM    8  C21 UNL     1      29.814  10.793  45.787  1.00  0.00     0.146 C 
HETATM    9  C6  UNL     1      31.302  10.235  48.361  1.00  0.00     0.025 C 
HETATM   10  C7  UNL     1      31.011   9.317  49.406  1.00  0.00     0.041 C 
HETATM   11  C8  UNL     1      30.158   8.200  48.944  1.00  0.00    -0.051 A 
HETATM   12  C9  UNL     1      31.023   7.073  48.842  1.00  0.00     0.007 A 
HETATM   13  C13 UNL     1      28.800   8.134  48.696  1.00  0.00    -0.041 A 
HETATM   14  C10 UNL     1      30.474   5.877  48.481  1.00  0.00     0.001 A 
HETATM   15  C11 UNL     1      29.153   5.610  48.198  1.00  0.00     0.001 A 
HETATM   16  C12 UNL     1      28.408   6.826  48.340  1.00  0.00     0.008 A 
HETATM   17  C14 UNL     1      27.869   9.217  48.801  1.00  0.00     0.076 C 
HETATM   18  C16 UNL     1      27.015   9.659  47.691  1.00  0.00    -0.007 A 
HETATM   19  C17 UNL     1      27.433  10.543  46.713  1.00  0.00    -0.019 A 
HETATM   20  C19 UNL     1      25.576   9.227  47.488  1.00  0.00     0.369 A 
HETATM   21  C18 UNL     1      26.225  10.611  45.926  1.00  0.00     0.122 A 
HETATM   22  C20 UNL     1      28.617  11.277  46.427  1.00  0.00     0.097 C 
HETATM   23  N2  UNL     1      25.223   9.935  46.294  1.00  0.00    -0.262 NA
BRANCH  17  24
HETATM   24  C15 UNL     1      26.937   8.954  50.016  1.00  0.00     0.178 C 
BRANCH  24  25
HETATM   25  O2  UNL     1      27.521   9.617  51.134  1.00  0.00    -0.400 OA
HETATM   26  H17 UNL     1      28.144   8.992  51.597  1.00  0.00     0.209 HD
ENDBRANCH  24  25
ENDBRANCH  17  24
BRANCH  22  27
HETATM   27  S1  UNL     1      28.112  12.735  45.317  1.00  0.00    -0.171 SA
HETATM   28  H23 UNL     1      28.460  13.913  46.004  1.00  0.00     0.102 HD
ENDBRANCH  22  27
BRANCH  20  29
HETATM   29  N3  UNL     1      25.358   7.835  47.388  1.00  0.00     0.107 N 
HETATM   30  H20 UNL     1      24.413   7.514  47.213  1.00  0.00     0.316 HD
HETATM   31  H21 UNL     1      26.041   7.359  46.762  1.00  0.00     0.316 HD
ENDBRANCH  20  29
ENDBRANCH   3   4
TORSDOF 5
ENDMDL
MODEL 4
REMARK VINA RESULT:      -6.7      3.220      5.308
REMARK  5 active torsions:
REMARK  status: ('A' for Active; 'I' for Inactive)
REMARK    1  A    between atoms: C3_3  and  C4_4 
REMARK       I    between atoms: C4_4  and  N1_6 
REMARK    2  A    between atoms: C14_16  and  C15_17 
REMARK    3  A    between atoms: C15_17  and  O2_18 
REMARK    4  A    between atoms: C19_23  and  N3_24 
REMARK    5  A    between atoms: C20_25  and  S1_26 
ROOT
HETATM    1  C1  UNL     1      17.917   0.560  50.561  1.00  0.00     0.112 C 
HETATM    2  C2  UNL     1      18.611   1.840  50.222  1.00  0.00    -0.101 C 
HETATM    3  C3  UNL     1      19.146   2.873  49.959  1.00  0.00    -0.006 C 
ENDROOT
BRANCH   3   4
HETATM    4  C4  UNL     1      19.795   4.182  49.637  1.00  0.00     0.298 C 
HETATM    5  O1  UNL     1      19.905   5.107  50.485  1.00  0.00    -0.258 OA
HETATM    6  N1  UNL     1      20.314   4.415  48.280  1.00  0.00    -0.340 N 
HETATM    7  C5  UNL     1      20.461   3.523  47.124  1.00  0.00     0.127 C 
HETATM    8  C21 UNL     1      20.694   5.730  47.975  1.00  0.00     0.146 C 
HETATM    9  C6  UNL     1      21.804   3.066  47.071  1.00  0.00     0.025 C 
HETATM   10  C7  UNL     1      22.681   2.166  47.735  1.00  0.00     0.041 C 
HETATM   11  C8  UNL     1      22.652   2.344  49.203  1.00  0.00    -0.051 A 
HETATM   12  C9  UNL     1      21.908   1.241  49.710  1.00  0.00     0.007 A 
HETATM   13  C13 UNL     1      23.238   3.296  50.016  1.00  0.00    -0.041 A 
HETATM   14  C10 UNL     1      21.771   1.129  51.063  1.00  0.00     0.001 A 
HETATM   15  C11 UNL     1      22.279   1.968  52.031  1.00  0.00     0.001 A 
HETATM   16  C12 UNL     1      22.998   3.023  51.379  1.00  0.00     0.008 A 
HETATM   17  C14 UNL     1      24.017   4.416  49.579  1.00  0.00     0.076 C 
HETATM   18  C16 UNL     1      23.691   5.807  49.913  1.00  0.00    -0.007 A 
HETATM   19  C17 UNL     1      22.789   6.572  49.195  1.00  0.00    -0.019 A 
HETATM   20  C19 UNL     1      24.309   6.585  51.059  1.00  0.00     0.369 A 
HETATM   21  C18 UNL     1      22.875   7.802  49.945  1.00  0.00     0.122 A 
HETATM   22  C20 UNL     1      21.973   6.390  48.045  1.00  0.00     0.097 C 
HETATM   23  N2  UNL     1      23.660   7.856  50.934  1.00  0.00    -0.262 NA
BRANCH  17  24
HETATM   24  C15 UNL     1      25.497   4.182  49.995  1.00  0.00     0.178 C 
BRANCH  24  25
HETATM   25  O2  UNL     1      26.306   4.663  48.925  1.00  0.00    -0.400 OA
HETATM   26  H17 UNL     1      26.281   5.659  48.919  1.00  0.00     0.209 HD
ENDBRANCH  24  25
ENDBRANCH  17  24
BRANCH  22  27
HETATM   27  S1  UNL     1      21.584   8.121  47.361  1.00  0.00    -0.171 SA
HETATM   28  H23 UNL     1      22.807   8.813  47.278  1.00  0.00     0.102 HD
ENDBRANCH  22  27
BRANCH  20  29
HETATM   29  N3  UNL     1      24.161   6.015  52.342  1.00  0.00     0.107 N 
HETATM   30  H20 UNL     1      24.940   5.489  52.722  1.00  0.00     0.316 HD
HETATM   31  H21 UNL     1      23.778   6.683  53.044  1.00  0.00     0.316 HD
ENDBRANCH  20  29
ENDBRANCH   3   4
TORSDOF 5
ENDMDL
MODEL 5
REMARK VINA RESULT:      -6.3      2.680      5.898
REMARK  5 active torsions:
REMARK  status: ('A' for Active; 'I' for Inactive)
REMARK    1  A    between atoms: C3_3  and  C4_4 
REMARK       I    between atoms: C4_4  and  N1_6 
REMARK    2  A    between atoms: C14_16  and  C15_17 
REMARK    3  A    between atoms: C15_17  and  O2_18 
REMARK    4  A    between atoms: C19_23  and  N3_24 
REMARK    5  A    between atoms: C20_25  and  S1_26 
ROOT
HETATM    1  C1  UNL     1      24.904   2.567  53.122  1.00  0.00     0.112 C 
HETATM    2  C2  UNL     1      23.627   3.027  52.496  1.00  0.00    -0.101 C 
HETATM    3  C3  UNL     1      22.620   3.409  51.983  1.00  0.00    -0.006 C 
ENDROOT
BRANCH   3   4
HETATM    4  C4  UNL     1      21.372   3.906  51.324  1.00  0.00     0.298 C 
HETATM    5  O1  UNL     1      21.038   5.121  51.344  1.00  0.00    -0.258 OA
HETATM    6  N1  UNL     1      20.488   2.951  50.638  1.00  0.00    -0.340 N 
HETATM    7  C5  UNL     1      20.647   1.526  50.325  1.00  0.00     0.127 C 
HETATM    8  C21 UNL     1      19.230   3.433  50.249  1.00  0.00     0.146 C 
HETATM    9  C6  UNL     1      21.076   1.402  48.978  1.00  0.00     0.025 C 
HETATM   10  C7  UNL     1      22.235   1.592  48.177  1.00  0.00     0.041 C 
HETATM   11  C8  UNL     1      22.852   2.917  48.398  1.00  0.00    -0.051 A 
HETATM   12  C9  UNL     1      24.017   2.673  49.180  1.00  0.00     0.007 A 
HETATM   13  C13 UNL     1      22.500   4.174  47.942  1.00  0.00    -0.041 A 
HETATM   14  C10 UNL     1      24.816   3.735  49.489  1.00  0.00     0.001 A 
HETATM   15  C11 UNL     1      24.638   5.053  49.128  1.00  0.00     0.001 A 
HETATM   16  C12 UNL     1      23.436   5.148  48.351  1.00  0.00     0.008 A 
HETATM   17  C14 UNL     1      21.360   4.490  47.136  1.00  0.00     0.076 C 
HETATM   18  C16 UNL     1      20.336   5.465  47.531  1.00  0.00    -0.007 A 
HETATM   19  C17 UNL     1      19.263   5.156  48.347  1.00  0.00    -0.019 A 
HETATM   20  C19 UNL     1      20.309   6.914  47.082  1.00  0.00     0.369 A 
HETATM   21  C18 UNL     1      18.616   6.445  48.384  1.00  0.00     0.122 A 
HETATM   22  C20 UNL     1      18.772   3.994  49.004  1.00  0.00     0.097 C 
HETATM   23  N2  UNL     1      19.130   7.401  47.735  1.00  0.00    -0.262 NA
BRANCH  17  24
HETATM   24  C15 UNL     1      21.853   4.896  45.718  1.00  0.00     0.178 C 
BRANCH  24  25
HETATM   25  O2  UNL     1      21.991   3.690  44.970  1.00  0.00    -0.400 OA
HETATM   26  H17 UNL     1      22.912   3.331  45.096  1.00  0.00     0.209 HD
ENDBRANCH  24  25
ENDBRANCH  17  24
BRANCH  22  27
HETATM   27  S1  UNL     1      16.923   4.285  49.335  1.00  0.00    -0.171 SA
HETATM   28  H23 UNL     1      16.765   4.372  50.731  1.00  0.00     0.102 HD
ENDBRANCH  22  27
BRANCH  20  29
HETATM   29  N3  UNL     1      21.460   7.675  47.384  1.00  0.00     0.107 N 
HETATM   30  H20 UNL     1      21.967   8.095  46.614  1.00  0.00     0.316 HD
HETATM   31  H21 UNL     1      21.305   8.359  48.154  1.00  0.00     0.316 HD
ENDBRANCH  20  29
ENDBRANCH   3   4
TORSDOF 5
ENDMDL
MODEL 6
REMARK VINA RESULT:      -6.2      1.850      2.328
REMARK  5 active torsions:
REMARK  status: ('A' for Active; 'I' for Inactive)
REMARK    1  A    between atoms: C3_3  and  C4_4 
REMARK       I    between atoms: C4_4  and  N1_6 
REMARK    2  A    between atoms: C14_16  and  C15_17 
REMARK    3  A    between atoms: C15_17  and  O2_18 
REMARK    4  A    between atoms: C19_23  and  N3_24 
REMARK    5  A    between atoms: C20_25  and  S1_26 
ROOT
HETATM    1  C1  UNL     1      23.073   6.928  45.200  1.00  0.00     0.112 C 
HETATM    2  C2  UNL     1      22.403   6.095  46.246  1.00  0.00    -0.101 C 
HETATM    3  C3  UNL     1      21.850   5.445  47.078  1.00  0.00    -0.006 C 
ENDROOT
BRANCH   3   4
HETATM    4  C4  UNL     1      21.134   4.646  48.121  1.00  0.00     0.298 C 
HETATM    5  O1  UNL     1      21.213   3.390  48.181  1.00  0.00    -0.258 OA
HETATM    6  N1  UNL     1      20.293   5.340  49.110  1.00  0.00    -0.340 N 
HETATM    7  C5  UNL     1      20.096   6.765  49.395  1.00  0.00     0.127 C 
HETATM    8  C21 UNL     1      19.470   4.530  49.906  1.00  0.00     0.146 C 
HETATM    9  C6  UNL     1      20.907   7.124  50.503  1.00  0.00     0.025 C 
HETATM   10  C7  UNL     1      22.269   7.362  50.830  1.00  0.00     0.041 C 
HETATM   11  C8  UNL     1      23.153   6.275  50.357  1.00  0.00    -0.051 A 
HETATM   12  C9  UNL     1      23.832   6.798  49.220  1.00  0.00     0.007 A 
HETATM   13  C13 UNL     1      23.396   5.013  50.865  1.00  0.00    -0.041 A 
HETATM   14  C10 UNL     1      24.762   6.008  48.610  1.00  0.00     0.001 A 
HETATM   15  C11 UNL     1      25.144   4.733  48.965  1.00  0.00     0.001 A 
HETATM   16  C12 UNL     1      24.385   4.340  50.116  1.00  0.00     0.008 A 
HETATM   17  C14 UNL     1      22.770   4.431  52.015  1.00  0.00     0.076 C 
HETATM   18  C16 UNL     1      22.034   3.161  51.979  1.00  0.00    -0.007 A 
HETATM   19  C17 UNL     1      20.705   3.061  51.611  1.00  0.00    -0.019 A 
HETATM   20  C19 UNL     1      22.622   1.815  52.357  1.00  0.00     0.369 A 
HETATM   21  C18 UNL     1      20.525   1.637  51.763  1.00  0.00     0.122 A 
HETATM   22  C20 UNL     1      19.677   3.960  51.213  1.00  0.00     0.097 C 
HETATM   23  N2  UNL     1      21.505   0.940  52.152  1.00  0.00    -0.262 NA
BRANCH  17  24
HETATM   24  C15 UNL     1      23.828   4.312  53.148  1.00  0.00     0.178 C 
BRANCH  24  25
HETATM   25  O2  UNL     1      23.889   5.584  53.789  1.00  0.00    -0.400 OA
HETATM   26  H17 UNL     1      23.812   5.457  54.774  1.00  0.00     0.209 HD
ENDBRANCH  24  25
ENDBRANCH  17  24
BRANCH  22  27
HETATM   27  S1  UNL     1      18.020   3.093  51.555  1.00  0.00    -0.171 SA
HETATM   28  H23 UNL     1      17.026   4.091  51.546  1.00  0.00     0.102 HD
ENDBRANCH  22  27
BRANCH  20  29
HETATM   29  N3  UNL     1      23.771   1.419  51.638  1.00  0.00     0.107 N 
HETATM   30  H20 UNL     1      23.685   0.640  50.996  1.00  0.00     0.316 HD
HETATM   31  H21 UNL     1      24.272   2.220  51.198  1.00  0.00     0.316 HD
ENDBRANCH  20  29
ENDBRANCH   3   4
TORSDOF 5
ENDMDL
MODEL 7
REMARK VINA RESULT:      -6.2      2.727      5.047
REMARK  5 active torsions:
REMARK  status: ('A' for Active; 'I' for Inactive)
REMARK    1  A    between atoms: C3_3  and  C4_4 
REMARK       I    between atoms: C4_4  and  N1_6 
REMARK    2  A    between atoms: C14_16  and  C15_17 
REMARK    3  A    between atoms: C15_17  and  O2_18 
REMARK    4  A    between atoms: C19_23  and  N3_24 
REMARK    5  A    between atoms: C20_25  and  S1_26 
ROOT
HETATM    1  C1  UNL     1      19.340   9.032  49.918  1.00  0.00     0.112 C 
HETATM    2  C2  UNL     1      20.565   8.184  50.038  1.00  0.00    -0.101 C 
HETATM    3  C3  UNL     1      21.544   7.508  50.112  1.00  0.00    -0.006 C 
ENDROOT
BRANCH   3   4
HETATM    4  C4  UNL     1      22.773   6.657  50.176  1.00  0.00     0.298 C 
HETATM    5  O1  UNL     1      23.280   6.284  51.267  1.00  0.00    -0.258 OA
HETATM    6  N1  UNL     1      23.433   6.246  48.925  1.00  0.00    -0.340 N 
HETATM    7  C5  UNL     1      23.038   6.394  47.520  1.00  0.00     0.127 C 
HETATM    8  C21 UNL     1      24.698   5.655  49.052  1.00  0.00     0.146 C 
HETATM    9  C6  UNL     1      22.454   5.177  47.082  1.00  0.00     0.025 C 
HETATM   10  C7  UNL     1      21.256   4.425  47.223  1.00  0.00     0.041 C 
HETATM   11  C8  UNL     1      20.863   4.266  48.639  1.00  0.00    -0.051 A 
HETATM   12  C9  UNL     1      19.765   5.152  48.835  1.00  0.00     0.007 A 
HETATM   13  C13 UNL     1      21.341   3.428  49.628  1.00  0.00    -0.041 A 
HETATM   14  C10 UNL     1      19.165   5.166  50.061  1.00  0.00     0.001 A 
HETATM   15  C11 UNL     1      19.491   4.410  51.165  1.00  0.00     0.001 A 
HETATM   16  C12 UNL     1      20.604   3.573  50.823  1.00  0.00     0.008 A 
HETATM   17  C14 UNL     1      22.422   2.498  49.497  1.00  0.00     0.076 C 
HETATM   18  C16 UNL     1      23.612   2.515  50.357  1.00  0.00    -0.007 A 
HETATM   19  C17 UNL     1      24.710   3.323  50.122  1.00  0.00    -0.019 A 
HETATM   20  C19 UNL     1      23.799   1.644  51.584  1.00  0.00     0.369 A 
HETATM   21  C18 UNL     1      25.536   2.925  51.237  1.00  0.00     0.122 A 
HETATM   22  C20 UNL     1      25.096   4.273  49.139  1.00  0.00     0.097 C 
HETATM   23  N2  UNL     1      25.099   2.046  52.034  1.00  0.00    -0.262 NA
BRANCH  17  24
HETATM   24  C15 UNL     1      21.844   1.056  49.547  1.00  0.00     0.178 C 
BRANCH  24  25
HETATM   25  O2  UNL     1      21.326   0.774  48.249  1.00  0.00    -0.400 OA
HETATM   26  H17 UNL     1      21.862   0.042  47.836  1.00  0.00     0.209 HD
ENDBRANCH  24  25
ENDBRANCH  17  24
BRANCH  22  27
HETATM   27  S1  UNL     1      26.993   4.391  49.195  1.00  0.00    -0.171 SA
HETATM   28  H23 UNL     1      27.494   3.283  48.487  1.00  0.00     0.102 HD
ENDBRANCH  22  27
BRANCH  20  29
HETATM   29  N3  UNL     1      22.809   1.765  52.584  1.00  0.00     0.107 N 
HETATM   30  H20 UNL     1      22.778   1.059  53.310  1.00  0.00     0.316 HD
HETATM   31  H21 UNL     1      22.750   2.724  52.985  1.00  0.00     0.316 HD
ENDBRANCH  20  29
ENDBRANCH   3   4
TORSDOF 5
ENDMDL
MODEL 8
REMARK VINA RESULT:      -6.2      9.414     11.967
REMARK  5 active torsions:
REMARK  status: ('A' for Active; 'I' for Inactive)
REMARK    1  A    between atoms: C3_3  and  C4_4 
REMARK       I    between atoms: C4_4  and  N1_6 
REMARK    2  A    between atoms: C14_16  and  C15_17 
REMARK    3  A    between atoms: C15_17  and  O2_18 
REMARK    4  A    between atoms: C19_23  and  N3_24 
REMARK    5  A    between atoms: C20_25  and  S1_26 
ROOT
HETATM    1  C1  UNL     1      26.604   6.721  48.782  1.00  0.00     0.112 C 
HETATM    2  C2  UNL     1      27.958   6.205  48.415  1.00  0.00    -0.101 C 
HETATM    3  C3  UNL     1      29.038   5.781  48.142  1.00  0.00    -0.006 C 
ENDROOT
BRANCH   3   4
HETATM    4  C4  UNL     1      30.396   5.239  47.825  1.00  0.00     0.298 C 
HETATM    5  O1  UNL     1      30.607   4.482  46.840  1.00  0.00    -0.258 OA
HETATM    6  N1  UNL     1      31.532   5.582  48.695  1.00  0.00    -0.340 N 
HETATM    7  C5  UNL     1      31.653   6.520  49.817  1.00  0.00     0.127 C 
HETATM    8  C21 UNL     1      32.717   4.863  48.487  1.00  0.00     0.146 C 
HETATM    9  C6  UNL     1      32.237   7.724  49.342  1.00  0.00     0.025 C 
HETATM   10  C7  UNL     1      31.906   8.868  48.567  1.00  0.00     0.041 C 
HETATM   11  C8  UNL     1      31.271   8.505  47.282  1.00  0.00    -0.051 A 
HETATM   12  C9  UNL     1      29.888   8.804  47.439  1.00  0.00     0.007 A 
HETATM   13  C13 UNL     1      31.811   8.032  46.101  1.00  0.00    -0.041 A 
HETATM   14  C10 UNL     1      29.065   8.609  46.367  1.00  0.00     0.001 A 
HETATM   15  C11 UNL     1      29.411   8.152  45.115  1.00  0.00     0.001 A 
HETATM   16  C12 UNL     1      30.822   7.895  45.104  1.00  0.00     0.008 A 
HETATM   17  C14 UNL     1      33.192   7.733  45.864  1.00  0.00     0.076 C 
HETATM   18  C16 UNL     1      33.669   6.418  45.418  1.00  0.00    -0.007 A 
HETATM   19  C17 UNL     1      33.928   5.369  46.281  1.00  0.00    -0.019 A 
HETATM   20  C19 UNL     1      33.958   6.052  43.975  1.00  0.00     0.369 A 
HETATM   21  C18 UNL     1      34.358   4.378  45.324  1.00  0.00     0.122 A 
HETATM   22  C20 UNL     1      33.879   5.156  47.686  1.00  0.00     0.097 C 
HETATM   23  N2  UNL     1      34.389   4.690  44.100  1.00  0.00    -0.262 NA
BRANCH  17  24
HETATM   24  C15 UNL     1      33.764   8.786  44.873  1.00  0.00     0.178 C 
BRANCH  24  25
HETATM   25  O2  UNL     1      35.138   8.961  45.206  1.00  0.00    -0.400 OA
HETATM   26  H17 UNL     1      35.204   9.463  46.064  1.00  0.00     0.209 HD
ENDBRANCH  24  25
ENDBRANCH  17  24
BRANCH  22  27
HETATM   27  S1  UNL     1      35.027   3.690  48.066  1.00  0.00    -0.171 SA
HETATM   28  H23 UNL     1      35.338   3.082  46.835  1.00  0.00     0.102 HD
ENDBRANCH  22  27
BRANCH  20  29
HETATM   29  N3  UNL     1      32.885   6.209  43.071  1.00  0.00     0.107 N 
HETATM   30  H20 UNL     1      32.135   5.529  43.100  1.00  0.00     0.316 HD
HETATM   31  H21 UNL     1      32.513   7.182  43.047  1.00  0.00     0.316 HD
ENDBRANCH  20  29
ENDBRANCH   3   4
TORSDOF 5
ENDMDL
MODEL 9
REMARK VINA RESULT:      -6.0      3.070      6.064
REMARK  5 active torsions:
REMARK  status: ('A' for Active; 'I' for Inactive)
REMARK    1  A    between atoms: C3_3  and  C4_4 
REMARK       I    between atoms: C4_4  and  N1_6 
REMARK    2  A    between atoms: C14_16  and  C15_17 
REMARK    3  A    between atoms: C15_17  and  O2_18 
REMARK    4  A    between atoms: C19_23  and  N3_24 
REMARK    5  A    between atoms: C20_25  and  S1_26 
ROOT
HETATM    1  C1  UNL     1      24.683  -0.251  52.908  1.00  0.00     0.112 C 
HETATM    2  C2  UNL     1      24.624   1.021  52.125  1.00  0.00    -0.101 C 
HETATM    3  C3  UNL     1      24.559   2.028  51.490  1.00  0.00    -0.006 C 
ENDROOT
BRANCH   3   4
HETATM    4  C4  UNL     1      24.455   3.280  50.679  1.00  0.00     0.298 C 
HETATM    5  O1  UNL     1      24.784   3.326  49.464  1.00  0.00    -0.258 OA
HETATM    6  N1  UNL     1      23.965   4.514  51.315  1.00  0.00    -0.340 N 
HETATM    7  C5  UNL     1      23.389   4.766  52.641  1.00  0.00     0.127 C 
HETATM    8  C21 UNL     1      24.111   5.697  50.577  1.00  0.00     0.146 C 
HETATM    9  C6  UNL     1      21.974   4.803  52.522  1.00  0.00     0.025 C 
HETATM   10  C7  UNL     1      20.869   3.930  52.331  1.00  0.00     0.041 C 
HETATM   11  C8  UNL     1      21.080   3.006  51.196  1.00  0.00    -0.051 A 
HETATM   12  C9  UNL     1      21.367   1.739  51.779  1.00  0.00     0.007 A 
HETATM   13  C13 UNL     1      20.982   3.204  49.831  1.00  0.00    -0.041 A 
HETATM   14  C10 UNL     1      21.554   0.677  50.943  1.00  0.00     0.001 A 
HETATM   15  C11 UNL     1      21.496   0.671  49.567  1.00  0.00     0.001 A 
HETATM   16  C12 UNL     1      21.201   2.003  49.123  1.00  0.00     0.008 A 
HETATM   17  C14 UNL     1      20.675   4.440  49.177  1.00  0.00     0.076 C 
HETATM   18  C16 UNL     1      21.548   5.063  48.174  1.00  0.00    -0.007 A 
HETATM   19  C17 UNL     1      22.619   5.877  48.496  1.00  0.00    -0.019 A 
HETATM   20  C19 UNL     1      21.378   4.915  46.674  1.00  0.00     0.369 A 
HETATM   21  C18 UNL     1      23.083   6.191  47.167  1.00  0.00     0.122 A 
HETATM   22  C20 UNL     1      23.205   6.381  49.689  1.00  0.00     0.097 C 
HETATM   23  N2  UNL     1      22.464   5.707  46.177  1.00  0.00    -0.262 NA
BRANCH  17  24
HETATM   24  C15 UNL     1      19.260   4.326  48.542  1.00  0.00     0.178 C 
BRANCH  24  25
HETATM   25  O2  UNL     1      18.584   5.549  48.822  1.00  0.00    -0.400 OA
HETATM   26  H17 UNL     1      18.882   6.243  48.172  1.00  0.00     0.209 HD
ENDBRANCH  24  25
ENDBRANCH  17  24
BRANCH  22  27
HETATM   27  S1  UNL     1      24.189   7.936  49.210  1.00  0.00    -0.171 SA
HETATM   28  H23 UNL     1      25.430   7.855  49.868  1.00  0.00     0.102 HD
ENDBRANCH  22  27
BRANCH  20  29
HETATM   29  N3  UNL     1      21.389   3.592  46.179  1.00  0.00     0.107 N 
HETATM   30  H20 UNL     1      20.616   2.986  46.425  1.00  0.00     0.316 HD
HETATM   31  H21 UNL     1      21.602   3.540  45.161  1.00  0.00     0.316 HD
ENDBRANCH  20  29
ENDBRANCH   3   4
TORSDOF 5
ENDMDL
