MODEL 1
REMARK VINA RESULT:      -8.9      0.000      0.000
REMARK  2 active torsions:
REMARK  status: ('A' for Active; 'I' for Inactive)
REMARK    1  A    between atoms: N2_16  and  C14_17 
REMARK    2  A    between atoms: C18_22  and  C19_23 
ROOT
HETATM    1  C1  UNL     1      19.728   2.163  52.482  1.00  0.00     0.082 A 
HETATM    2  C2  UNL     1      20.837   2.697  52.319  1.00  0.00     0.029 A 
HETATM    3  N1  UNL     1      22.001   3.328  52.122  1.00  0.00    -0.271 NA
HETATM    4  C3  UNL     1      23.195   3.054  52.211  1.00  0.00     0.142 A 
HETATM    5  S1  UNL     1      22.912   1.513  52.699  1.00  0.00    -0.208 SA
HETATM    6  C4  UNL     1      21.197   1.464  52.709  1.00  0.00     0.046 A 
HETATM    7  C5  UNL     1      21.445   0.155  53.120  1.00  0.00     0.008 A 
HETATM    8  C6  UNL     1      19.984   0.043  53.382  1.00  0.00     0.027 C 
HETATM    9  C7  UNL     1      22.553  -0.901  53.295  1.00  0.00     0.023 A 
HETATM   10  C8  UNL     1      23.791  -0.310  53.000  1.00  0.00     0.045 A 
HETATM   11  C9  UNL     1      24.672   0.793  52.433  1.00  0.00     0.072 A 
HETATM   12  C10 UNL     1      26.041   0.442  52.948  1.00  0.00    -0.008 C 
HETATM   13  C11 UNL     1      26.872   1.360  52.535  1.00  0.00    -0.069 C 
HETATM   14  C12 UNL     1      28.250   0.983  53.066  1.00  0.00     0.044 C 
HETATM   15  C13 UNL     1      26.633   2.588  51.689  1.00  0.00     0.154 C 
HETATM   16  N2  UNL     1      25.315   2.667  51.302  1.00  0.00    -0.362 N 
HETATM   17  C21 UNL     1      24.405   2.215  52.461  1.00  0.00     0.146 A 
ENDROOT
BRANCH  16  18
HETATM   18  C14 UNL     1      24.728   3.691  50.583  1.00  0.00     0.248 A 
HETATM   19  N3  UNL     1      24.420   4.979  51.138  1.00  0.00     0.114 N 
HETATM   20  C15 UNL     1      25.148   5.942  50.280  1.00  0.00     0.274 C 
HETATM   21  H15 UNL     1      24.991   5.028  52.035  1.00  0.00     0.319 HD
HETATM   22  C16 UNL     1      26.073   4.953  49.535  1.00  0.00     0.046 C 
HETATM   23  C17 UNL     1      24.987   3.992  49.166  1.00  0.00     0.042 A 
HETATM   24  C18 UNL     1      23.866   3.081  49.462  1.00  0.00     0.040 A 
BRANCH  24  25
HETATM   25  C19 UNL     1      22.968   2.447  48.482  1.00  0.00     0.011 C 
HETATM   26  C20 UNL     1      21.981   1.470  49.023  1.00  0.00     0.006 C 
ENDBRANCH  24  25
ENDBRANCH  16  18
TORSDOF 2
ENDMDL
MODEL 2
REMARK VINA RESULT:      -8.3      1.673      3.518
REMARK  2 active torsions:
REMARK  status: ('A' for Active; 'I' for Inactive)
REMARK    1  A    between atoms: N2_16  and  C14_17 
REMARK    2  A    between atoms: C18_22  and  C19_23 
ROOT
HETATM    1  C1  UNL     1      22.685   0.459  53.653  1.00  0.00     0.082 A 
HETATM    2  C2  UNL     1      22.651   1.496  52.970  1.00  0.00     0.029 A 
HETATM    3  N1  UNL     1      22.548   2.619  52.250  1.00  0.00    -0.271 NA
HETATM    4  C3  UNL     1      23.281   3.291  51.528  1.00  0.00     0.142 A 
HETATM    5  S1  UNL     1      24.569   2.295  51.732  1.00  0.00    -0.208 SA
HETATM    6  C4  UNL     1      23.918   1.098  52.775  1.00  0.00     0.046 A 
HETATM    7  C5  UNL     1      25.207   0.583  52.647  1.00  0.00     0.008 A 
HETATM    8  C6  UNL     1      24.841  -0.388  53.713  1.00  0.00     0.027 C 
HETATM    9  C7  UNL     1      26.529   0.730  51.871  1.00  0.00     0.023 A 
HETATM   10  C8  UNL     1      26.435   1.843  51.022  1.00  0.00     0.045 A 
HETATM   11  C9  UNL     1      25.669   2.939  50.296  1.00  0.00     0.072 A 
HETATM   12  C10 UNL     1      26.759   3.836  49.775  1.00  0.00    -0.008 C 
HETATM   13  C11 UNL     1      26.193   4.836  49.157  1.00  0.00    -0.069 C 
HETATM   14  C12 UNL     1      27.315   5.728  48.636  1.00  0.00     0.044 C 
HETATM   15  C13 UNL     1      24.734   5.149  48.931  1.00  0.00     0.154 C 
HETATM   16  N2  UNL     1      23.934   4.160  49.457  1.00  0.00    -0.362 N 
HETATM   17  C21 UNL     1      24.525   3.672  50.795  1.00  0.00     0.146 A 
ENDROOT
BRANCH  16  18
HETATM   18  C14 UNL     1      22.553   4.151  49.495  1.00  0.00     0.248 A 
HETATM   19  N3  UNL     1      21.776   4.902  50.443  1.00  0.00     0.114 N 
HETATM   20  C15 UNL     1      20.897   5.759  49.614  1.00  0.00     0.274 C 
HETATM   21  H15 UNL     1      22.456   5.621  50.836  1.00  0.00     0.319 HD
HETATM   22  C16 UNL     1      21.601   5.580  48.248  1.00  0.00     0.046 C 
HETATM   23  C17 UNL     1      21.671   4.087  48.319  1.00  0.00     0.042 A 
HETATM   24  C18 UNL     1      22.049   2.805  48.943  1.00  0.00     0.040 A 
BRANCH  24  25
HETATM   25  C19 UNL     1      21.624   1.462  48.514  1.00  0.00     0.011 C 
HETATM   26  C20 UNL     1      21.234   0.514  49.596  1.00  0.00     0.006 C 
ENDBRANCH  24  25
ENDBRANCH  16  18
TORSDOF 2
ENDMDL
MODEL 3
REMARK VINA RESULT:      -8.0      2.126      3.954
REMARK  2 active torsions:
REMARK  status: ('A' for Active; 'I' for Inactive)
REMARK    1  A    between atoms: N2_16  and  C14_17 
REMARK    2  A    between atoms: C18_22  and  C19_23 
ROOT
HETATM    1  C1  UNL     1      22.362   1.873  52.612  1.00  0.00     0.082 A 
HETATM    2  C2  UNL     1      22.559   2.919  51.971  1.00  0.00     0.029 A 
HETATM    3  N1  UNL     1      22.707   4.061  51.291  1.00  0.00    -0.271 NA
HETATM    4  C3  UNL     1      23.604   4.624  50.667  1.00  0.00     0.142 A 
HETATM    5  S1  UNL     1      24.691   3.427  50.948  1.00  0.00    -0.208 SA
HETATM    6  C4  UNL     1      23.760   2.326  51.878  1.00  0.00     0.046 A 
HETATM    7  C5  UNL     1      24.957   1.612  51.848  1.00  0.00     0.008 A 
HETATM    8  C6  UNL     1      24.339   0.686  52.835  1.00  0.00     0.027 C 
HETATM    9  C7  UNL     1      26.355   1.562  51.202  1.00  0.00     0.023 A 
HETATM   10  C8  UNL     1      26.521   2.697  50.393  1.00  0.00     0.045 A 
HETATM   11  C9  UNL     1      26.013   3.921  49.646  1.00  0.00     0.072 A 
HETATM   12  C10 UNL     1      27.277   4.642  49.264  1.00  0.00    -0.008 C 
HETATM   13  C11 UNL     1      26.940   5.736  48.637  1.00  0.00    -0.069 C 
HETATM   14  C12 UNL     1      28.235   6.447  48.258  1.00  0.00     0.044 C 
HETATM   15  C13 UNL     1      25.578   6.286  48.291  1.00  0.00     0.154 C 
HETATM   16  N2  UNL     1      24.584   5.428  48.702  1.00  0.00    -0.362 N 
HETATM   17  C21 UNL     1      24.957   4.816  50.067  1.00  0.00     0.146 A 
ENDROOT
BRANCH  16  18
HETATM   18  C14 UNL     1      23.222   5.642  48.613  1.00  0.00     0.248 A 
HETATM   19  N3  UNL     1      22.485   6.477  49.521  1.00  0.00     0.114 N 
HETATM   20  C15 UNL     1      21.838   7.492  48.657  1.00  0.00     0.274 C 
HETATM   21  H15 UNL     1      23.228   7.063  50.009  1.00  0.00     0.319 HD
HETATM   22  C16 UNL     1      22.635   7.247  47.355  1.00  0.00     0.046 C 
HETATM   23  C17 UNL     1      22.461   5.760  47.359  1.00  0.00     0.042 A 
HETATM   24  C18 UNL     1      22.567   4.414  47.952  1.00  0.00     0.040 A 
BRANCH  24  25
HETATM   25  C19 UNL     1      21.979   3.172  47.423  1.00  0.00     0.011 C 
HETATM   26  C20 UNL     1      22.302   1.919  48.161  1.00  0.00     0.006 C 
ENDBRANCH  24  25
ENDBRANCH  16  18
TORSDOF 2
ENDMDL
MODEL 4
REMARK VINA RESULT:      -7.8      1.281      1.965
REMARK  2 active torsions:
REMARK  status: ('A' for Active; 'I' for Inactive)
REMARK    1  A    between atoms: N2_16  and  C14_17 
REMARK    2  A    between atoms: C18_22  and  C19_23 
ROOT
HETATM    1  C1  UNL     1      18.499   3.602  50.808  1.00  0.00     0.082 A 
HETATM    2  C2  UNL     1      19.717   3.746  50.999  1.00  0.00     0.029 A 
HETATM    3  N1  UNL     1      21.026   3.963  51.175  1.00  0.00    -0.271 NA
HETATM    4  C3  UNL     1      21.985   3.340  51.626  1.00  0.00     0.142 A 
HETATM    5  S1  UNL     1      21.086   2.017  51.991  1.00  0.00    -0.208 SA
HETATM    6  C4  UNL     1      19.526   2.505  51.471  1.00  0.00     0.046 A 
HETATM    7  C5  UNL     1      19.202   1.227  51.928  1.00  0.00     0.008 A 
HETATM    8  C6  UNL     1      17.776   1.601  51.726  1.00  0.00     0.027 C 
HETATM    9  C7  UNL     1      19.805  -0.100  52.427  1.00  0.00     0.023 A 
HETATM   10  C8  UNL     1      21.196   0.046  52.533  1.00  0.00     0.045 A 
HETATM   11  C9  UNL     1      22.513   0.763  52.273  1.00  0.00     0.072 A 
HETATM   12  C10 UNL     1      23.479   0.053  53.183  1.00  0.00    -0.008 C 
HETATM   13  C11 UNL     1      24.645   0.623  53.053  1.00  0.00    -0.069 C 
HETATM   14  C12 UNL     1      25.605  -0.113  53.979  1.00  0.00     0.044 C 
HETATM   15  C13 UNL     1      25.077   1.781  52.185  1.00  0.00     0.154 C 
HETATM   16  N2  UNL     1      24.032   2.230  51.411  1.00  0.00    -0.362 N 
HETATM   17  C21 UNL     1      22.726   2.193  52.230  1.00  0.00     0.146 A 
ENDROOT
BRANCH  16  18
HETATM   18  C14 UNL     1      24.048   3.315  50.555  1.00  0.00     0.248 A 
HETATM   19  N3  UNL     1      24.047   4.681  50.999  1.00  0.00     0.114 N 
HETATM   20  C15 UNL     1      25.265   5.272  50.398  1.00  0.00     0.274 C 
HETATM   21  H15 UNL     1      24.328   4.629  52.025  1.00  0.00     0.319 HD
HETATM   22  C16 UNL     1      25.974   3.971  49.955  1.00  0.00     0.046 C 
HETATM   23  C17 UNL     1      24.778   3.379  49.279  1.00  0.00     0.042 A 
HETATM   24  C18 UNL     1      23.380   2.910  49.227  1.00  0.00     0.040 A 
BRANCH  24  25
HETATM   25  C19 UNL     1      22.634   2.507  48.023  1.00  0.00     0.011 C 
HETATM   26  C20 UNL     1      21.496   1.568  48.232  1.00  0.00     0.006 C 
ENDBRANCH  24  25
ENDBRANCH  16  18
TORSDOF 2
ENDMDL
MODEL 5
REMARK VINA RESULT:      -7.7      2.240      5.210
REMARK  2 active torsions:
REMARK  status: ('A' for Active; 'I' for Inactive)
REMARK    1  A    between atoms: N2_16  and  C14_17 
REMARK    2  A    between atoms: C18_22  and  C19_23 
ROOT
HETATM    1  C1  UNL     1      25.709   0.899  52.594  1.00  0.00     0.082 A 
HETATM    2  C2  UNL     1      24.682   1.089  51.922  1.00  0.00     0.029 A 
HETATM    3  N1  UNL     1      23.613   1.331  51.154  1.00  0.00    -0.271 NA
HETATM    4  C3  UNL     1      22.412   1.071  51.182  1.00  0.00     0.142 A 
HETATM    5  S1  UNL     1      22.518   0.245  52.597  1.00  0.00    -0.208 SA
HETATM    6  C4  UNL     1      24.192   0.377  52.948  1.00  0.00     0.046 A 
HETATM    7  C5  UNL     1      23.803  -0.364  54.064  1.00  0.00     0.008 A 
HETATM    8  C6  UNL     1      25.251  -0.514  54.372  1.00  0.00     0.027 C 
HETATM    9  C7  UNL     1      22.579  -0.891  54.837  1.00  0.00     0.023 A 
HETATM   10  C8  UNL     1      21.417  -0.572  54.117  1.00  0.00     0.045 A 
HETATM   11  C9  UNL     1      20.649   0.169  53.032  1.00  0.00     0.072 A 
HETATM   12  C10 UNL     1      19.321  -0.537  53.005  1.00  0.00    -0.008 C 
HETATM   13  C11 UNL     1      18.593   0.013  52.073  1.00  0.00    -0.069 C 
HETATM   14  C12 UNL     1      17.254  -0.715  52.066  1.00  0.00     0.044 C 
HETATM   15  C13 UNL     1      18.905   1.152  51.132  1.00  0.00     0.154 C 
HETATM   16  N2  UNL     1      20.158   1.664  51.380  1.00  0.00    -0.362 N 
HETATM   17  C21 UNL     1      21.132   0.515  51.712  1.00  0.00     0.146 A 
ENDROOT
BRANCH  16  18
HETATM   18  C14 UNL     1      20.797   2.661  50.669  1.00  0.00     0.248 A 
HETATM   19  N3  UNL     1      21.394   2.462  49.378  1.00  0.00     0.114 N 
HETATM   20  C15 UNL     1      20.719   3.443  48.496  1.00  0.00     0.274 C 
HETATM   21  H15 UNL     1      20.976   1.548  49.027  1.00  0.00     0.319 HD
HETATM   22  C16 UNL     1      19.542   3.832  49.420  1.00  0.00     0.046 C 
HETATM   23  C17 UNL     1      20.387   4.074  50.632  1.00  0.00     0.042 A 
HETATM   24  C18 UNL     1      21.371   3.690  51.660  1.00  0.00     0.040 A 
BRANCH  24  25
HETATM   25  C19 UNL     1      21.997   4.581  52.652  1.00  0.00     0.011 C 
HETATM   26  C20 UNL     1      23.487   4.579  52.697  1.00  0.00     0.006 C 
ENDBRANCH  24  25
ENDBRANCH  16  18
TORSDOF 2
ENDMDL
MODEL 6
REMARK VINA RESULT:      -7.6      2.237      3.973
REMARK  2 active torsions:
REMARK  status: ('A' for Active; 'I' for Inactive)
REMARK    1  A    between atoms: N2_16  and  C14_17 
REMARK    2  A    between atoms: C18_22  and  C19_23 
ROOT
HETATM    1  C1  UNL     1      17.279   3.750  50.526  1.00  0.00     0.082 A 
HETATM    2  C2  UNL     1      18.377   3.652  51.098  1.00  0.00     0.029 A 
HETATM    3  N1  UNL     1      19.574   3.611  51.694  1.00  0.00    -0.271 NA
HETATM    4  C3  UNL     1      20.241   2.782  52.309  1.00  0.00     0.142 A 
HETATM    5  S1  UNL     1      19.103   1.609  52.168  1.00  0.00    -0.208 SA
HETATM    6  C4  UNL     1      17.877   2.421  51.285  1.00  0.00     0.046 A 
HETATM    7  C5  UNL     1      17.253   1.180  51.412  1.00  0.00     0.008 A 
HETATM    8  C6  UNL     1      16.034   1.822  50.850  1.00  0.00     0.027 C 
HETATM    9  C7  UNL     1      17.476  -0.279  51.852  1.00  0.00     0.023 A 
HETATM   10  C8  UNL     1      18.764  -0.397  52.397  1.00  0.00     0.045 A 
HETATM   11  C9  UNL     1      20.177   0.097  52.666  1.00  0.00     0.072 A 
HETATM   12  C10 UNL     1      20.690  -0.868  53.700  1.00  0.00    -0.008 C 
HETATM   13  C11 UNL     1      21.901  -0.505  54.022  1.00  0.00    -0.069 C 
HETATM   14  C12 UNL     1      22.400  -1.497  55.067  1.00  0.00     0.044 C 
HETATM   15  C13 UNL     1      22.744   0.644  53.523  1.00  0.00     0.154 C 
HETATM   16  N2  UNL     1      22.078   1.354  52.550  1.00  0.00    -0.362 N 
HETATM   17  C21 UNL     1      20.584   1.463  52.918  1.00  0.00     0.146 A 
ENDROOT
BRANCH  16  18
HETATM   18  C14 UNL     1      22.517   2.504  51.924  1.00  0.00     0.248 A 
HETATM   19  N3  UNL     1      22.391   3.818  52.490  1.00  0.00     0.114 N 
HETATM   20  C15 UNL     1      23.776   4.340  52.543  1.00  0.00     0.274 C 
HETATM   21  H15 UNL     1      22.194   3.648  53.523  1.00  0.00     0.319 HD
HETATM   22  C16 UNL     1      24.542   3.021  52.288  1.00  0.00     0.046 C 
HETATM   23  C17 UNL     1      23.731   2.612  51.099  1.00  0.00     0.042 A 
HETATM   24  C18 UNL     1      22.473   2.288  50.400  1.00  0.00     0.040 A 
BRANCH  24  25
HETATM   25  C19 UNL     1      22.305   2.071  48.953  1.00  0.00     0.011 C 
HETATM   26  C20 UNL     1      20.915   1.818  48.478  1.00  0.00     0.006 C 
ENDBRANCH  24  25
ENDBRANCH  16  18
TORSDOF 2
ENDMDL
MODEL 7
REMARK VINA RESULT:      -7.4      3.739      6.102
REMARK  2 active torsions:
REMARK  status: ('A' for Active; 'I' for Inactive)
REMARK    1  A    between atoms: N2_16  and  C14_17 
REMARK    2  A    between atoms: C18_22  and  C19_23 
ROOT
HETATM    1  C1  UNL     1      22.743   5.860  51.242  1.00  0.00     0.082 A 
HETATM    2  C2  UNL     1      23.565   6.632  50.723  1.00  0.00     0.029 A 
HETATM    3  N1  UNL     1      24.406   7.516  50.173  1.00  0.00    -0.271 NA
HETATM    4  C3  UNL     1      25.509   7.487  49.632  1.00  0.00     0.142 A 
HETATM    5  S1  UNL     1      25.665   5.862  49.803  1.00  0.00    -0.208 SA
HETATM    6  C4  UNL     1      24.195   5.455  50.589  1.00  0.00     0.046 A 
HETATM    7  C5  UNL     1      24.747   4.177  50.506  1.00  0.00     0.008 A 
HETATM    8  C6  UNL     1      23.628   3.722  51.375  1.00  0.00     0.027 C 
HETATM    9  C7  UNL     1      25.898   3.362  49.886  1.00  0.00     0.023 A 
HETATM   10  C8  UNL     1      26.760   4.238  49.209  1.00  0.00     0.045 A 
HETATM   11  C9  UNL     1      27.125   5.579  48.589  1.00  0.00     0.072 A 
HETATM   12  C10 UNL     1      28.598   5.442  48.313  1.00  0.00    -0.008 C 
HETATM   13  C11 UNL     1      29.016   6.568  47.801  1.00  0.00    -0.069 C 
HETATM   14  C12 UNL     1      30.507   6.405  47.528  1.00  0.00     0.044 C 
HETATM   15  C13 UNL     1      28.265   7.840  47.490  1.00  0.00     0.154 C 
HETATM   16  N2  UNL     1      26.928   7.704  47.785  1.00  0.00    -0.362 N 
HETATM   17  C21 UNL     1      26.762   6.889  49.084  1.00  0.00     0.146 A 
ENDROOT
BRANCH  16  18
HETATM   18  C14 UNL     1      25.960   8.687  47.693  1.00  0.00     0.248 A 
HETATM   19  N3  UNL     1      25.788   9.730  48.665  1.00  0.00     0.114 N 
HETATM   20  C15 UNL     1      25.924  10.988  47.895  1.00  0.00     0.274 C 
HETATM   21  H15 UNL     1      26.695   9.729  49.223  1.00  0.00     0.319 HD
HETATM   22  C16 UNL     1      26.519  10.411  46.590  1.00  0.00     0.046 C 
HETATM   23  C17 UNL     1      25.507   9.318  46.443  1.00  0.00     0.042 A 
HETATM   24  C18 UNL     1      24.762   8.131  46.902  1.00  0.00     0.040 A 
BRANCH  24  25
HETATM   25  C19 UNL     1      23.598   7.516  46.240  1.00  0.00     0.011 C 
HETATM   26  C20 UNL     1      22.894   6.444  47.000  1.00  0.00     0.006 C 
ENDBRANCH  24  25
ENDBRANCH  16  18
TORSDOF 2
ENDMDL
MODEL 8
REMARK VINA RESULT:      -7.3      8.040     11.800
REMARK  2 active torsions:
REMARK  status: ('A' for Active; 'I' for Inactive)
REMARK    1  A    between atoms: N2_16  and  C14_17 
REMARK    2  A    between atoms: C18_22  and  C19_23 
ROOT
HETATM    1  C1  UNL     1      34.644   3.897  48.046  1.00  0.00     0.082 A 
HETATM    2  C2  UNL     1      34.043   4.984  48.054  1.00  0.00     0.029 A 
HETATM    3  N1  UNL     1      33.398   6.154  48.130  1.00  0.00    -0.271 NA
HETATM    4  C3  UNL     1      32.895   6.953  47.344  1.00  0.00     0.142 A 
HETATM    5  S1  UNL     1      33.295   6.064  46.024  1.00  0.00    -0.208 SA
HETATM    6  C4  UNL     1      34.092   4.724  46.738  1.00  0.00     0.046 A 
HETATM    7  C5  UNL     1      34.202   4.342  45.401  1.00  0.00     0.008 A 
HETATM    8  C6  UNL     1      35.096   3.249  45.868  1.00  0.00     0.027 C 
HETATM    9  C7  UNL     1      33.732   4.680  43.974  1.00  0.00     0.023 A 
HETATM   10  C8  UNL     1      32.962   5.852  44.015  1.00  0.00     0.045 A 
HETATM   11  C9  UNL     1      32.170   6.935  44.733  1.00  0.00     0.072 A 
HETATM   12  C10 UNL     1      31.954   7.972  43.664  1.00  0.00    -0.008 C 
HETATM   13  C11 UNL     1      31.301   8.968  44.198  1.00  0.00    -0.069 C 
HETATM   14  C12 UNL     1      31.092  10.002  43.098  1.00  0.00     0.044 C 
HETATM   15  C13 UNL     1      30.797   9.164  45.607  1.00  0.00     0.154 C 
HETATM   16  N2  UNL     1      31.073   8.063  46.385  1.00  0.00    -0.362 N 
HETATM   17  C21 UNL     1      32.468   7.511  46.027  1.00  0.00     0.146 A 
ENDROOT
BRANCH  16  18
HETATM   18  C14 UNL     1      30.820   7.924  47.736  1.00  0.00     0.248 A 
HETATM   19  N3  UNL     1      31.684   8.431  48.766  1.00  0.00     0.114 N 
HETATM   20  C15 UNL     1      30.825   9.334  49.567  1.00  0.00     0.274 C 
HETATM   21  H15 UNL     1      32.312   9.132  48.268  1.00  0.00     0.319 HD
HETATM   22  C16 UNL     1      29.625   9.452  48.598  1.00  0.00     0.046 C 
HETATM   23  C17 UNL     1      29.489   7.980  48.361  1.00  0.00     0.042 A 
HETATM   24  C18 UNL     1      29.982   6.651  47.957  1.00  0.00     0.040 A 
BRANCH  24  25
HETATM   25  C19 UNL     1      29.282   5.366  48.125  1.00  0.00     0.011 C 
HETATM   26  C20 UNL     1      27.836   5.441  48.479  1.00  0.00     0.006 C 
ENDBRANCH  24  25
ENDBRANCH  16  18
TORSDOF 2
ENDMDL
MODEL 9
REMARK VINA RESULT:      -7.1      2.731      6.787
REMARK  2 active torsions:
REMARK  status: ('A' for Active; 'I' for Inactive)
REMARK    1  A    between atoms: N2_16  and  C14_17 
REMARK    2  A    between atoms: C18_22  and  C19_23 
ROOT
HETATM    1  C1  UNL     1      26.216   8.750  49.650  1.00  0.00     0.082 A 
HETATM    2  C2  UNL     1      25.598   7.788  50.135  1.00  0.00     0.029 A 
HETATM    3  N1  UNL     1      24.972   6.756  50.712  1.00  0.00    -0.271 NA
HETATM    4  C3  UNL     1      24.078   5.968  50.413  1.00  0.00     0.142 A 
HETATM    5  S1  UNL     1      23.849   6.632  48.930  1.00  0.00    -0.208 SA
HETATM    6  C4  UNL     1      25.013   7.892  48.932  1.00  0.00     0.046 A 
HETATM    7  C5  UNL     1      24.488   8.097  47.656  1.00  0.00     0.008 A 
HETATM    8  C6  UNL     1      25.292   9.348  47.611  1.00  0.00     0.027 C 
HETATM    9  C7  UNL     1      23.556   7.494  46.588  1.00  0.00     0.023 A 
HETATM   10  C8  UNL     1      22.948   6.344  47.115  1.00  0.00     0.045 A 
HETATM   11  C9  UNL     1      22.806   5.227  48.138  1.00  0.00     0.072 A 
HETATM   12  C10 UNL     1      21.478   4.609  47.794  1.00  0.00    -0.008 C 
HETATM   13  C11 UNL     1      21.250   3.648  48.647  1.00  0.00    -0.069 C 
HETATM   14  C12 UNL     1      19.904   3.037  48.278  1.00  0.00     0.044 C 
HETATM   15  C13 UNL     1      22.083   3.148  49.803  1.00  0.00     0.154 C 
HETATM   16  N2  UNL     1      23.271   3.837  49.886  1.00  0.00    -0.362 N 
HETATM   17  C21 UNL     1      23.031   5.326  49.564  1.00  0.00     0.146 A 
ENDROOT
BRANCH  16  18
HETATM   18  C14 UNL     1      24.240   3.693  50.860  1.00  0.00     0.248 A 
HETATM   19  N3  UNL     1      24.126   4.236  52.185  1.00  0.00     0.114 N 
HETATM   20  C15 UNL     1      24.262   3.066  53.084  1.00  0.00     0.274 C 
HETATM   21  H15 UNL     1      23.091   4.461  52.294  1.00  0.00     0.319 HD
HETATM   22  C16 UNL     1      24.087   1.937  52.041  1.00  0.00     0.046 C 
HETATM   23  C17 UNL     1      25.071   2.495  51.061  1.00  0.00     0.042 A 
HETATM   24  C18 UNL     1      25.613   3.544  50.177  1.00  0.00     0.040 A 
BRANCH  24  25
HETATM   25  C19 UNL     1      26.910   3.521  49.480  1.00  0.00     0.011 C 
HETATM   26  C20 UNL     1      27.302   4.770  48.768  1.00  0.00     0.006 C 
ENDBRANCH  24  25
ENDBRANCH  16  18
TORSDOF 2
ENDMDL
