MODEL 1
REMARK VINA RESULT:      -6.8      0.000      0.000
REMARK  7 active torsions:
REMARK  status: ('A' for Active; 'I' for Inactive)
REMARK    1  A    between atoms: C1_2  and  C2_3 
REMARK    2  A    between atoms: C1_2  and  C5_9 
REMARK    3  A    between atoms: C3_4  and  C4_5 
REMARK    4  A    between atoms: C5_9  and  C6_10 
REMARK    5  A    between atoms: C7_11  and  C8_12 
REMARK    6  A    between atoms: C8_12  and  N1_13 
REMARK    7  A    between atoms: N1_13  and  C9_14 
ROOT
HETATM    1  C6  UNL     1      26.411   0.502  51.908  1.00  0.00    -0.021 C 
HETATM    2  C7  UNL     1      26.938   1.716  51.786  1.00  0.00    -0.011 C 
ENDROOT
BRANCH   2   3
HETATM    3  C8  UNL     1      26.559   2.760  50.790  1.00  0.00     0.147 C 
BRANCH   3   4
HETATM    4  N1  UNL     1      25.562   3.603  51.419  1.00  0.00    -0.386 N 
HETATM    5  H9  UNL     1      25.683   4.523  51.899  1.00  0.00     0.160 HD
BRANCH   4   6
HETATM    6  C9  UNL     1      24.234   3.071  51.359  1.00  0.00     0.029 A 
HETATM    7  C10 UNL     1      23.449   2.969  52.490  1.00  0.00     0.029 A 
HETATM    8  C11 UNL     1      22.151   2.451  52.442  1.00  0.00     0.004 A 
HETATM    9  C12 UNL     1      21.623   2.026  51.243  1.00  0.00     0.019 A 
HETATM   10  C13 UNL     1      22.388   2.117  50.085  1.00  0.00     0.013 A 
HETATM   11 BR1  UNL     1      21.676   1.535  48.420  1.00  0.00    -0.051 Br
HETATM   12  C14 UNL     1      23.668   2.635  50.171  1.00  0.00     0.048 A 
ENDBRANCH   4   6
ENDBRANCH   3   4
ENDBRANCH   2   3
BRANCH   1  13
HETATM   13  C5  UNL     1      26.648  -0.634  52.803  1.00  0.00     0.109 C 
BRANCH  13  14
HETATM   14  C1  UNL     1      25.807  -0.572  54.040  1.00  0.00     0.152 C 
HETATM   15  O1  UNL     1      26.013  -0.564  55.260  1.00  0.00    -0.293 OA
BRANCH  14  16
HETATM   16  C2  UNL     1      24.389  -0.505  53.697  1.00  0.00     0.055 C 
HETATM   17  C3  UNL     1      23.326  -0.837  54.408  1.00  0.00     0.092 C 
BRANCH  17  18
HETATM   18  C4  UNL     1      21.850  -0.838  54.230  1.00  0.00     0.408 C 
HETATM   19  F1  UNL     1      21.381  -2.029  54.746  1.00  0.00    -0.167 F 
HETATM   20  F2  UNL     1      21.531  -0.848  52.885  1.00  0.00    -0.167 F 
HETATM   21  F3  UNL     1      21.311   0.275  54.814  1.00  0.00    -0.167 F 
ENDBRANCH  17  18
ENDBRANCH  14  16
ENDBRANCH  13  14
ENDBRANCH   1  13
TORSDOF 7
ENDMDL
MODEL 2
REMARK VINA RESULT:      -6.3      2.873      4.061
REMARK  7 active torsions:
REMARK  status: ('A' for Active; 'I' for Inactive)
REMARK    1  A    between atoms: C1_2  and  C2_3 
REMARK    2  A    between atoms: C1_2  and  C5_9 
REMARK    3  A    between atoms: C3_4  and  C4_5 
REMARK    4  A    between atoms: C5_9  and  C6_10 
REMARK    5  A    between atoms: C7_11  and  C8_12 
REMARK    6  A    between atoms: C8_12  and  N1_13 
REMARK    7  A    between atoms: N1_13  and  C9_14 
ROOT
HETATM    1  C6  UNL     1      25.936   0.995  52.259  1.00  0.00    -0.021 C 
HETATM    2  C7  UNL     1      26.477   1.727  51.291  1.00  0.00    -0.011 C 
ENDROOT
BRANCH   2   3
HETATM    3  C8  UNL     1      26.033   3.077  50.837  1.00  0.00     0.147 C 
BRANCH   3   4
HETATM    4  N1  UNL     1      26.521   3.251  49.483  1.00  0.00    -0.386 N 
HETATM    5  H9  UNL     1      26.673   2.532  48.739  1.00  0.00     0.160 HD
BRANCH   4   6
HETATM    6  C9  UNL     1      26.830   4.608  49.149  1.00  0.00     0.029 A 
HETATM    7  C10 UNL     1      28.008   4.940  48.511  1.00  0.00     0.029 A 
HETATM    8  C11 UNL     1      28.320   6.263  48.180  1.00  0.00     0.004 A 
HETATM    9  C12 UNL     1      27.441   7.276  48.492  1.00  0.00     0.019 A 
HETATM   10  C13 UNL     1      26.246   6.973  49.135  1.00  0.00     0.013 A 
HETATM   11 BR1  UNL     1      25.019   8.360  49.574  1.00  0.00    -0.051 Br
HETATM   12  C14 UNL     1      25.970   5.654  49.446  1.00  0.00     0.048 A 
ENDBRANCH   4   6
ENDBRANCH   3   4
ENDBRANCH   2   3
BRANCH   1  13
HETATM   13  C5  UNL     1      26.227  -0.322  52.833  1.00  0.00     0.109 C 
BRANCH  13  14
HETATM   14  C1  UNL     1      25.444  -0.586  54.082  1.00  0.00     0.152 C 
HETATM   15  O1  UNL     1      25.696  -0.988  55.225  1.00  0.00    -0.293 OA
BRANCH  14  16
HETATM   16  C2  UNL     1      24.029  -0.288  53.877  1.00  0.00     0.055 C 
HETATM   17  C3  UNL     1      22.955  -0.924  54.310  1.00  0.00     0.092 C 
BRANCH  17  18
HETATM   18  C4  UNL     1      21.480  -0.773  54.205  1.00  0.00     0.408 C 
HETATM   19  F1  UNL     1      21.122   0.279  55.024  1.00  0.00    -0.167 F 
HETATM   20  F2  UNL     1      20.847  -1.891  54.712  1.00  0.00    -0.167 F 
HETATM   21  F3  UNL     1      21.123  -0.606  52.894  1.00  0.00    -0.167 F 
ENDBRANCH  17  18
ENDBRANCH  14  16
ENDBRANCH  13  14
ENDBRANCH   1  13
TORSDOF 7
ENDMDL
MODEL 3
REMARK VINA RESULT:      -6.3      2.941      4.686
REMARK  7 active torsions:
REMARK  status: ('A' for Active; 'I' for Inactive)
REMARK    1  A    between atoms: C1_2  and  C2_3 
REMARK    2  A    between atoms: C1_2  and  C5_9 
REMARK    3  A    between atoms: C3_4  and  C4_5 
REMARK    4  A    between atoms: C5_9  and  C6_10 
REMARK    5  A    between atoms: C7_11  and  C8_12 
REMARK    6  A    between atoms: C8_12  and  N1_13 
REMARK    7  A    between atoms: N1_13  and  C9_14 
ROOT
HETATM    1  C6  UNL     1      23.254   2.948  51.229  1.00  0.00    -0.021 C 
HETATM    2  C7  UNL     1      24.308   3.250  50.477  1.00  0.00    -0.011 C 
ENDROOT
BRANCH   2   3
HETATM    3  C8  UNL     1      25.744   3.068  50.838  1.00  0.00     0.147 C 
BRANCH   3   4
HETATM    4  N1  UNL     1      25.793   2.801  52.262  1.00  0.00    -0.386 N 
HETATM    5  H9  UNL     1      25.560   3.433  53.061  1.00  0.00     0.160 HD
BRANCH   4   6
HETATM    6  C9  UNL     1      26.224   1.475  52.587  1.00  0.00     0.029 A 
HETATM    7  C10 UNL     1      25.334   0.422  52.634  1.00  0.00     0.029 A 
HETATM    8  C11 UNL     1      25.745  -0.877  52.950  1.00  0.00     0.004 A 
HETATM    9  C12 UNL     1      27.070  -1.132  53.225  1.00  0.00     0.019 A 
HETATM   10  C13 UNL     1      27.992  -0.092  53.185  1.00  0.00     0.013 A 
HETATM   11 BR1  UNL     1      29.827  -0.425  53.562  1.00  0.00    -0.051 Br
HETATM   12  C14 UNL     1      27.549   1.180  52.868  1.00  0.00     0.048 A 
ENDBRANCH   4   6
ENDBRANCH   3   4
ENDBRANCH   2   3
BRANCH   1  13
HETATM   13  C5  UNL     1      21.803   3.052  51.049  1.00  0.00     0.109 C 
BRANCH  13  14
HETATM   14  C1  UNL     1      21.042   2.454  52.192  1.00  0.00     0.152 C 
HETATM   15  O1  UNL     1      20.140   2.824  52.954  1.00  0.00    -0.293 OA
BRANCH  14  16
HETATM   16  C2  UNL     1      21.494   1.091  52.455  1.00  0.00     0.055 C 
HETATM   17  C3  UNL     1      21.578   0.429  53.596  1.00  0.00     0.092 C 
BRANCH  17  18
HETATM   18  C4  UNL     1      22.002  -0.923  54.044  1.00  0.00     0.408 C 
HETATM   19  F1  UNL     1      22.482  -1.587  52.932  1.00  0.00    -0.167 F 
HETATM   20  F2  UNL     1      20.909  -1.646  54.484  1.00  0.00    -0.167 F 
HETATM   21  F3  UNL     1      22.909  -0.812  55.062  1.00  0.00    -0.167 F 
ENDBRANCH  17  18
ENDBRANCH  14  16
ENDBRANCH  13  14
ENDBRANCH   1  13
TORSDOF 7
ENDMDL
MODEL 4
REMARK VINA RESULT:      -6.2      3.811      4.991
REMARK  7 active torsions:
REMARK  status: ('A' for Active; 'I' for Inactive)
REMARK    1  A    between atoms: C1_2  and  C2_3 
REMARK    2  A    between atoms: C1_2  and  C5_9 
REMARK    3  A    between atoms: C3_4  and  C4_5 
REMARK    4  A    between atoms: C5_9  and  C6_10 
REMARK    5  A    between atoms: C7_11  and  C8_12 
REMARK    6  A    between atoms: C8_12  and  N1_13 
REMARK    7  A    between atoms: N1_13  and  C9_14 
ROOT
HETATM    1  C6  UNL     1      23.972   0.598  52.758  1.00  0.00    -0.021 C 
HETATM    2  C7  UNL     1      23.152   1.400  52.087  1.00  0.00    -0.011 C 
ENDROOT
BRANCH   2   3
HETATM    3  C8  UNL     1      23.533   2.409  51.057  1.00  0.00     0.147 C 
BRANCH   3   4
HETATM    4  N1  UNL     1      24.981   2.427  50.998  1.00  0.00    -0.386 N 
HETATM    5  H9  UNL     1      25.666   1.728  51.366  1.00  0.00     0.160 HD
BRANCH   4   6
HETATM    6  C9  UNL     1      25.519   3.577  50.337  1.00  0.00     0.029 A 
HETATM    7  C10 UNL     1      26.641   3.488  49.539  1.00  0.00     0.029 A 
HETATM    8  C11 UNL     1      27.175   4.605  48.888  1.00  0.00     0.004 A 
HETATM    9  C12 UNL     1      26.579   5.838  49.037  1.00  0.00     0.019 A 
HETATM   10  C13 UNL     1      25.446   5.961  49.835  1.00  0.00     0.013 A 
HETATM   11 BR1  UNL     1      24.609   7.655  50.052  1.00  0.00    -0.051 Br
HETATM   12  C14 UNL     1      24.946   4.834  50.462  1.00  0.00     0.048 A 
ENDBRANCH   4   6
ENDBRANCH   3   4
ENDBRANCH   2   3
BRANCH   1  13
HETATM   13  C5  UNL     1      23.786  -0.433  53.784  1.00  0.00     0.109 C 
BRANCH  13  14
HETATM   14  C1  UNL     1      25.031  -0.677  54.580  1.00  0.00     0.152 C 
HETATM   15  O1  UNL     1      25.306  -1.190  55.672  1.00  0.00    -0.293 OA
BRANCH  14  16
HETATM   16  C2  UNL     1      26.204  -0.175  53.870  1.00  0.00     0.055 C 
HETATM   17  C3  UNL     1      27.402   0.147  54.328  1.00  0.00     0.092 C 
BRANCH  17  18
HETATM   18  C4  UNL     1      28.681   0.660  53.772  1.00  0.00     0.408 C 
HETATM   19  F1  UNL     1      29.328   1.327  54.793  1.00  0.00    -0.167 F 
HETATM   20  F2  UNL     1      28.433   1.601  52.791  1.00  0.00    -0.167 F 
HETATM   21  F3  UNL     1      29.401  -0.373  53.236  1.00  0.00    -0.167 F 
ENDBRANCH  17  18
ENDBRANCH  14  16
ENDBRANCH  13  14
ENDBRANCH   1  13
TORSDOF 7
ENDMDL
MODEL 5
REMARK VINA RESULT:      -6.2      4.165      5.160
REMARK  7 active torsions:
REMARK  status: ('A' for Active; 'I' for Inactive)
REMARK    1  A    between atoms: C1_2  and  C2_3 
REMARK    2  A    between atoms: C1_2  and  C5_9 
REMARK    3  A    between atoms: C3_4  and  C4_5 
REMARK    4  A    between atoms: C5_9  and  C6_10 
REMARK    5  A    between atoms: C7_11  and  C8_12 
REMARK    6  A    between atoms: C8_12  and  N1_13 
REMARK    7  A    between atoms: N1_13  and  C9_14 
ROOT
HETATM    1  C6  UNL     1      24.375   1.038  52.615  1.00  0.00    -0.021 C 
HETATM    2  C7  UNL     1      23.771   2.219  52.691  1.00  0.00    -0.011 C 
ENDROOT
BRANCH   2   3
HETATM    3  C8  UNL     1      24.150   3.465  51.963  1.00  0.00     0.147 C 
BRANCH   3   4
HETATM    4  N1  UNL     1      24.769   3.056  50.718  1.00  0.00    -0.386 N 
HETATM    5  H9  UNL     1      24.913   2.094  50.337  1.00  0.00     0.160 HD
BRANCH   4   6
HETATM    6  C9  UNL     1      25.240   4.148  49.921  1.00  0.00     0.029 A 
HETATM    7  C10 UNL     1      24.389   5.150  49.502  1.00  0.00     0.029 A 
HETATM    8  C11 UNL     1      24.839   6.221  48.722  1.00  0.00     0.004 A 
HETATM    9  C12 UNL     1      26.163   6.296  48.353  1.00  0.00     0.019 A 
HETATM   10  C13 UNL     1      27.046   5.301  48.761  1.00  0.00     0.013 A 
HETATM   11 BR1  UNL     1      28.880   5.387  48.260  1.00  0.00    -0.051 Br
HETATM   12  C14 UNL     1      26.566   4.257  49.530  1.00  0.00     0.048 A 
ENDBRANCH   4   6
ENDBRANCH   3   4
ENDBRANCH   2   3
BRANCH   1  13
HETATM   13  C5  UNL     1      24.153  -0.270  53.240  1.00  0.00     0.109 C 
BRANCH  13  14
HETATM   14  C1  UNL     1      25.210  -0.609  54.245  1.00  0.00     0.152 C 
HETATM   15  O1  UNL     1      25.244  -1.165  55.350  1.00  0.00    -0.293 OA
BRANCH  14  16
HETATM   16  C2  UNL     1      26.522  -0.163  53.785  1.00  0.00     0.055 C 
HETATM   17  C3  UNL     1      27.614   0.118  54.475  1.00  0.00     0.092 C 
BRANCH  17  18
HETATM   18  C4  UNL     1      28.999   0.573  54.188  1.00  0.00     0.408 C 
HETATM   19  F1  UNL     1      28.987   1.136  52.927  1.00  0.00    -0.167 F 
HETATM   20  F2  UNL     1      29.854  -0.511  54.119  1.00  0.00    -0.167 F 
HETATM   21  F3  UNL     1      29.423   1.422  55.174  1.00  0.00    -0.167 F 
ENDBRANCH  17  18
ENDBRANCH  14  16
ENDBRANCH  13  14
ENDBRANCH   1  13
TORSDOF 7
ENDMDL
MODEL 6
REMARK VINA RESULT:      -6.1      4.608      6.028
REMARK  7 active torsions:
REMARK  status: ('A' for Active; 'I' for Inactive)
REMARK    1  A    between atoms: C1_2  and  C2_3 
REMARK    2  A    between atoms: C1_2  and  C5_9 
REMARK    3  A    between atoms: C3_4  and  C4_5 
REMARK    4  A    between atoms: C5_9  and  C6_10 
REMARK    5  A    between atoms: C7_11  and  C8_12 
REMARK    6  A    between atoms: C8_12  and  N1_13 
REMARK    7  A    between atoms: N1_13  and  C9_14 
ROOT
HETATM    1  C6  UNL     1      23.071  -0.427  53.782  1.00  0.00    -0.021 C 
HETATM    2  C7  UNL     1      22.301  -1.510  53.755  1.00  0.00    -0.011 C 
ENDROOT
BRANCH   2   3
HETATM    3  C8  UNL     1      20.941  -1.655  54.351  1.00  0.00     0.147 C 
BRANCH   3   4
HETATM    4  N1  UNL     1      20.278  -0.374  54.209  1.00  0.00    -0.386 N 
HETATM    5  H9  UNL     1      20.374   0.487  54.793  1.00  0.00     0.160 HD
BRANCH   4   6
HETATM    6  C9  UNL     1      19.370  -0.313  53.105  1.00  0.00     0.029 A 
HETATM    7  C10 UNL     1      19.674   0.401  51.963  1.00  0.00     0.029 A 
HETATM    8  C11 UNL     1      18.794   0.467  50.878  1.00  0.00     0.004 A 
HETATM    9  C12 UNL     1      17.586  -0.191  50.931  1.00  0.00     0.019 A 
HETATM   10  C13 UNL     1      17.250  -0.919  52.067  1.00  0.00     0.013 A 
HETATM   11 BR1  UNL     1      15.584  -1.834  52.158  1.00  0.00    -0.051 Br
HETATM   12  C14 UNL     1      18.145  -0.962  53.121  1.00  0.00     0.048 A 
ENDBRANCH   4   6
ENDBRANCH   3   4
ENDBRANCH   2   3
BRANCH   1  13
HETATM   13  C5  UNL     1      24.404  -0.103  53.264  1.00  0.00     0.109 C 
BRANCH  13  14
HETATM   14  C1  UNL     1      25.492  -0.443  54.235  1.00  0.00     0.152 C 
HETATM   15  O1  UNL     1      25.564  -1.019  55.328  1.00  0.00    -0.293 OA
BRANCH  14  16
HETATM   16  C2  UNL     1      26.784   0.033  53.750  1.00  0.00     0.055 C 
HETATM   17  C3  UNL     1      27.592   0.953  54.247  1.00  0.00     0.092 C 
BRANCH  17  18
HETATM   18  C4  UNL     1      28.907   1.553  53.901  1.00  0.00     0.408 C 
HETATM   19  F1  UNL     1      29.564   1.802  55.089  1.00  0.00    -0.167 F 
HETATM   20  F2  UNL     1      28.727   2.781  53.293  1.00  0.00    -0.167 F 
HETATM   21  F3  UNL     1      29.586   0.723  53.051  1.00  0.00    -0.167 F 
ENDBRANCH  17  18
ENDBRANCH  14  16
ENDBRANCH  13  14
ENDBRANCH   1  13
TORSDOF 7
ENDMDL
MODEL 7
REMARK VINA RESULT:      -6.1      3.233      4.241
REMARK  7 active torsions:
REMARK  status: ('A' for Active; 'I' for Inactive)
REMARK    1  A    between atoms: C1_2  and  C2_3 
REMARK    2  A    between atoms: C1_2  and  C5_9 
REMARK    3  A    between atoms: C3_4  and  C4_5 
REMARK    4  A    between atoms: C5_9  and  C6_10 
REMARK    5  A    between atoms: C7_11  and  C8_12 
REMARK    6  A    between atoms: C8_12  and  N1_13 
REMARK    7  A    between atoms: N1_13  and  C9_14 
ROOT
HETATM    1  C6  UNL     1      26.232   1.271  52.237  1.00  0.00    -0.021 C 
HETATM    2  C7  UNL     1      26.268   1.901  51.068  1.00  0.00    -0.011 C 
ENDROOT
BRANCH   2   3
HETATM    3  C8  UNL     1      25.939   3.334  50.814  1.00  0.00     0.147 C 
BRANCH   3   4
HETATM    4  N1  UNL     1      25.975   3.529  49.378  1.00  0.00    -0.386 N 
HETATM    5  H9  UNL     1      25.602   2.916  48.619  1.00  0.00     0.160 HD
BRANCH   4   6
HETATM    6  C9  UNL     1      26.621   4.742  48.976  1.00  0.00     0.029 A 
HETATM    7  C10 UNL     1      25.931   5.936  48.912  1.00  0.00     0.029 A 
HETATM    8  C11 UNL     1      26.552   7.126  48.520  1.00  0.00     0.004 A 
HETATM    9  C12 UNL     1      27.888   7.128  48.185  1.00  0.00     0.019 A 
HETATM   10  C13 UNL     1      28.611   5.941  48.240  1.00  0.00     0.013 A 
HETATM   11 BR1  UNL     1      30.457   5.923  47.780  1.00  0.00    -0.051 Br
HETATM   12  C14 UNL     1      27.963   4.783  48.632  1.00  0.00     0.048 A 
ENDBRANCH   4   6
ENDBRANCH   3   4
ENDBRANCH   2   3
BRANCH   1  13
HETATM   13  C5  UNL     1      26.513  -0.100  52.673  1.00  0.00     0.109 C 
BRANCH  13  14
HETATM   14  C1  UNL     1      25.712  -0.493  53.875  1.00  0.00     0.152 C 
HETATM   15  O1  UNL     1      25.960  -0.898  55.018  1.00  0.00    -0.293 OA
BRANCH  14  16
HETATM   16  C2  UNL     1      24.283  -0.357  53.610  1.00  0.00     0.055 C 
HETATM   17  C3  UNL     1      23.245  -0.792  54.304  1.00  0.00     0.092 C 
BRANCH  17  18
HETATM   18  C4  UNL     1      21.764  -0.750  54.192  1.00  0.00     0.408 C 
HETATM   19  F1  UNL     1      21.301  -2.022  54.466  1.00  0.00    -0.167 F 
HETATM   20  F2  UNL     1      21.389  -0.475  52.891  1.00  0.00    -0.167 F 
HETATM   21  F3  UNL     1      21.263   0.216  55.021  1.00  0.00    -0.167 F 
ENDBRANCH  17  18
ENDBRANCH  14  16
ENDBRANCH  13  14
ENDBRANCH   1  13
TORSDOF 7
ENDMDL
MODEL 8
REMARK VINA RESULT:      -6.0      2.053      2.749
REMARK  7 active torsions:
REMARK  status: ('A' for Active; 'I' for Inactive)
REMARK    1  A    between atoms: C1_2  and  C2_3 
REMARK    2  A    between atoms: C1_2  and  C5_9 
REMARK    3  A    between atoms: C3_4  and  C4_5 
REMARK    4  A    between atoms: C5_9  and  C6_10 
REMARK    5  A    between atoms: C7_11  and  C8_12 
REMARK    6  A    between atoms: C8_12  and  N1_13 
REMARK    7  A    between atoms: N1_13  and  C9_14 
ROOT
HETATM    1  C6  UNL     1      25.029   2.566  52.819  1.00  0.00    -0.021 C 
HETATM    2  C7  UNL     1      24.178   3.543  53.117  1.00  0.00    -0.011 C 
ENDROOT
BRANCH   2   3
HETATM    3  C8  UNL     1      23.390   4.365  52.154  1.00  0.00     0.147 C 
BRANCH   3   4
HETATM    4  N1  UNL     1      21.993   4.039  52.363  1.00  0.00    -0.386 N 
HETATM    5  H9  UNL     1      21.252   4.592  52.850  1.00  0.00     0.160 HD
BRANCH   4   6
HETATM    6  C9  UNL     1      21.606   2.775  51.815  1.00  0.00     0.029 A 
HETATM    7  C10 UNL     1      22.155   2.304  50.638  1.00  0.00     0.029 A 
HETATM    8  C11 UNL     1      21.784   1.070  50.094  1.00  0.00     0.004 A 
HETATM    9  C12 UNL     1      20.848   0.289  50.733  1.00  0.00     0.019 A 
HETATM   10  C13 UNL     1      20.277   0.735  51.921  1.00  0.00     0.013 A 
HETATM   11 BR1  UNL     1      18.981  -0.330  52.818  1.00  0.00    -0.051 Br
HETATM   12  C14 UNL     1      20.668   1.960  52.430  1.00  0.00     0.048 A 
ENDBRANCH   4   6
ENDBRANCH   3   4
ENDBRANCH   2   3
BRANCH   1  13
HETATM   13  C5  UNL     1      25.876   1.667  53.610  1.00  0.00     0.109 C 
BRANCH  13  14
HETATM   14  C1  UNL     1      25.833   0.256  53.111  1.00  0.00     0.152 C 
HETATM   15  O1  UNL     1      26.407  -0.396  52.229  1.00  0.00    -0.293 OA
BRANCH  14  16
HETATM   16  C2  UNL     1      24.865  -0.530  53.869  1.00  0.00     0.055 C 
HETATM   17  C3  UNL     1      23.548  -0.427  53.931  1.00  0.00     0.092 C 
BRANCH  17  18
HETATM   18  C4  UNL     1      22.432  -1.118  54.627  1.00  0.00     0.408 C 
HETATM   19  F1  UNL     1      22.994  -1.906  55.612  1.00  0.00    -0.167 F 
HETATM   20  F2  UNL     1      21.789  -1.982  53.761  1.00  0.00    -0.167 F 
HETATM   21  F3  UNL     1      21.535  -0.196  55.095  1.00  0.00    -0.167 F 
ENDBRANCH  17  18
ENDBRANCH  14  16
ENDBRANCH  13  14
ENDBRANCH   1  13
TORSDOF 7
ENDMDL
MODEL 9
REMARK VINA RESULT:      -6.0      2.983      4.303
REMARK  7 active torsions:
REMARK  status: ('A' for Active; 'I' for Inactive)
REMARK    1  A    between atoms: C1_2  and  C2_3 
REMARK    2  A    between atoms: C1_2  and  C5_9 
REMARK    3  A    between atoms: C3_4  and  C4_5 
REMARK    4  A    between atoms: C5_9  and  C6_10 
REMARK    5  A    between atoms: C7_11  and  C8_12 
REMARK    6  A    between atoms: C8_12  and  N1_13 
REMARK    7  A    between atoms: N1_13  and  C9_14 
ROOT
HETATM    1  C6  UNL     1      22.274  -0.330  53.976  1.00  0.00    -0.021 C 
HETATM    2  C7  UNL     1      21.130   0.340  53.886  1.00  0.00    -0.011 C 
ENDROOT
BRANCH   2   3
HETATM    3  C8  UNL     1      20.726   1.277  52.797  1.00  0.00     0.147 C 
BRANCH   3   4
HETATM    4  N1  UNL     1      21.720   1.161  51.749  1.00  0.00    -0.386 N 
HETATM    5  H9  UNL     1      21.907   0.361  51.102  1.00  0.00     0.160 HD
BRANCH   4   6
HETATM    6  C9  UNL     1      22.546   2.321  51.604  1.00  0.00     0.029 A 
HETATM    7  C10 UNL     1      22.181   3.535  52.149  1.00  0.00     0.029 A 
HETATM    8  C11 UNL     1      22.980   4.675  52.013  1.00  0.00     0.004 A 
HETATM    9  C12 UNL     1      24.168   4.604  51.320  1.00  0.00     0.019 A 
HETATM   10  C13 UNL     1      24.563   3.394  50.759  1.00  0.00     0.013 A 
HETATM   11 BR1  UNL     1      26.201   3.277  49.797  1.00  0.00    -0.051 Br
HETATM   12  C14 UNL     1      23.748   2.288  50.913  1.00  0.00     0.048 A 
ENDBRANCH   4   6
ENDBRANCH   3   4
ENDBRANCH   2   3
BRANCH   1  13
HETATM   13  C5  UNL     1      22.836  -1.273  54.947  1.00  0.00     0.109 C 
BRANCH  13  14
HETATM   14  C1  UNL     1      24.300  -1.055  55.173  1.00  0.00     0.152 C 
HETATM   15  O1  UNL     1      25.120  -1.342  56.055  1.00  0.00    -0.293 OA
BRANCH  14  16
HETATM   16  C2  UNL     1      24.890  -0.314  54.062  1.00  0.00     0.055 C 
HETATM   17  C3  UNL     1      26.151   0.002  53.824  1.00  0.00     0.092 C 
BRANCH  17  18
HETATM   18  C4  UNL     1      26.915   0.729  52.778  1.00  0.00     0.408 C 
HETATM   19  F1  UNL     1      26.471   0.264  51.555  1.00  0.00    -0.167 F 
HETATM   20  F2  UNL     1      28.256   0.404  52.851  1.00  0.00    -0.167 F 
HETATM   21  F3  UNL     1      26.767   2.079  52.948  1.00  0.00    -0.167 F 
ENDBRANCH  17  18
ENDBRANCH  14  16
ENDBRANCH  13  14
ENDBRANCH   1  13
TORSDOF 7
ENDMDL
