MODEL 1
REMARK VINA RESULT:      -8.5      0.000      0.000
REMARK  4 active torsions:
REMARK  status: ('A' for Active; 'I' for Inactive)
REMARK    1  A    between atoms: C2_2  and  N1_3 
REMARK    2  A    between atoms: N1_3  and  C3_4 
REMARK    3  A    between atoms: N1_3  and  C9_10 
REMARK    4  A    between atoms: C15_19  and  O2_20 
ROOT
HETATM    1  C9  UNL     1      24.815  -0.300  54.104  1.00  0.00     0.144 A 
HETATM    2  N2  UNL     1      25.121  -0.926  55.266  1.00  0.00    -0.223 NA
HETATM    3  C10 UNL     1      24.189  -1.527  56.021  1.00  0.00     0.236 A 
HETATM    4  N3  UNL     1      22.903  -1.508  55.611  1.00  0.00    -0.241 NA
HETATM    5  C11 UNL     1      22.540  -0.896  54.457  1.00  0.00     0.075 A 
HETATM    6  C12 UNL     1      21.255  -0.840  53.980  1.00  0.00     0.072 A 
HETATM    7  C13 UNL     1      20.916  -0.208  52.792  1.00  0.00     0.103 A 
HETATM    8  O1  UNL     1      19.724  -0.157  52.352  1.00  0.00    -0.353 OA
HETATM    9  C14 UNL     1      18.500  -0.105  51.899  1.00  0.00     0.210 C 
HETATM   10  C15 UNL     1      21.950   0.392  52.069  1.00  0.00     0.102 A 
HETATM   11  C17 UNL     1      23.280   0.367  52.508  1.00  0.00     0.057 A 
HETATM   12  C18 UNL     1      23.501  -0.287  53.696  1.00  0.00     0.042 A 
ENDROOT
BRANCH  10  13
HETATM   13  O2  UNL     1      21.651   1.023  50.895  1.00  0.00    -0.353 OA
HETATM   14  C16 UNL     1      22.565   1.767  50.154  1.00  0.00     0.210 C 
ENDBRANCH  10  13
BRANCH   1  15
HETATM   15  N1  UNL     1      25.966   0.286  53.461  1.00  0.00    -0.331 N 
BRANCH  15  16
HETATM   16  C2  UNL     1      25.879   1.660  52.966  1.00  0.00     0.126 C 
HETATM   17  C1  UNL     1      26.470   1.816  51.603  1.00  0.00     0.027 C 
ENDBRANCH  15  16
BRANCH  15  18
HETATM   18  C3  UNL     1      27.103  -0.545  53.374  1.00  0.00     0.035 A 
HETATM   19  C4  UNL     1      27.090  -1.798  52.809  1.00  0.00     0.029 A 
HETATM   20  C5  UNL     1      28.192  -2.600  52.722  1.00  0.00     0.002 A 
HETATM   21  C6  UNL     1      29.412  -2.196  53.203  1.00  0.00     0.000 A 
HETATM   22  C7  UNL     1      29.488  -0.958  53.776  1.00  0.00     0.002 A 
HETATM   23  C8  UNL     1      28.345  -0.176  53.845  1.00  0.00     0.029 A 
ENDBRANCH  15  18
ENDBRANCH   1  15
TORSDOF 4
ENDMDL
MODEL 2
REMARK VINA RESULT:      -7.8      2.634      6.020
REMARK  4 active torsions:
REMARK  status: ('A' for Active; 'I' for Inactive)
REMARK    1  A    between atoms: C2_2  and  N1_3 
REMARK    2  A    between atoms: N1_3  and  C3_4 
REMARK    3  A    between atoms: N1_3  and  C9_10 
REMARK    4  A    between atoms: C15_19  and  O2_20 
ROOT
HETATM    1  C9  UNL     1      21.925   1.016  52.670  1.00  0.00     0.144 A 
HETATM    2  N2  UNL     1      20.939   0.162  53.038  1.00  0.00    -0.223 NA
HETATM    3  C10 UNL     1      21.180  -0.932  53.774  1.00  0.00     0.236 A 
HETATM    4  N3  UNL     1      22.446  -1.195  54.162  1.00  0.00    -0.241 NA
HETATM    5  C11 UNL     1      23.471  -0.375  53.823  1.00  0.00     0.075 A 
HETATM    6  C12 UNL     1      24.778  -0.579  54.185  1.00  0.00     0.072 A 
HETATM    7  C13 UNL     1      25.805   0.281  53.824  1.00  0.00     0.103 A 
HETATM    8  O1  UNL     1      27.018   0.091  54.159  1.00  0.00    -0.353 OA
HETATM    9  C14 UNL     1      28.262  -0.105  54.504  1.00  0.00     0.210 C 
HETATM   10  C15 UNL     1      25.464   1.398  53.057  1.00  0.00     0.102 A 
HETATM   11  C17 UNL     1      24.147   1.656  52.658  1.00  0.00     0.057 A 
HETATM   12  C18 UNL     1      23.211   0.740  53.072  1.00  0.00     0.042 A 
ENDROOT
BRANCH  10  13
HETATM   13  O2  UNL     1      26.452   2.267  52.684  1.00  0.00    -0.353 OA
HETATM   14  C16 UNL     1      26.739   2.602  51.364  1.00  0.00     0.210 C 
ENDBRANCH  10  13
BRANCH   1  15
HETATM   15  N1  UNL     1      21.445   2.120  51.874  1.00  0.00    -0.331 N 
BRANCH  15  16
HETATM   16  C2  UNL     1      20.658   3.171  52.519  1.00  0.00     0.126 C 
HETATM   17  C1  UNL     1      19.425   3.517  51.750  1.00  0.00     0.027 C 
ENDBRANCH  15  16
BRANCH  15  18
HETATM   18  C3  UNL     1      21.797   2.083  50.508  1.00  0.00     0.035 A 
HETATM   19  C4  UNL     1      21.395   1.092  49.644  1.00  0.00     0.029 A 
HETATM   20  C5  UNL     1      21.733   1.059  48.321  1.00  0.00     0.002 A 
HETATM   21  C6  UNL     1      22.514   2.037  47.757  1.00  0.00     0.000 A 
HETATM   22  C7  UNL     1      22.945   3.049  48.567  1.00  0.00     0.002 A 
HETATM   23  C8  UNL     1      22.579   3.044  49.905  1.00  0.00     0.029 A 
ENDBRANCH  15  18
ENDBRANCH   1  15
TORSDOF 4
ENDMDL
MODEL 3
REMARK VINA RESULT:      -7.7      1.674      3.562
REMARK  4 active torsions:
REMARK  status: ('A' for Active; 'I' for Inactive)
REMARK    1  A    between atoms: C2_2  and  N1_3 
REMARK    2  A    between atoms: N1_3  and  C3_4 
REMARK    3  A    between atoms: N1_3  and  C9_10 
REMARK    4  A    between atoms: C15_19  and  O2_20 
ROOT
HETATM    1  C9  UNL     1      24.213  -0.152  53.641  1.00  0.00     0.144 A 
HETATM    2  N2  UNL     1      24.921  -0.617  54.700  1.00  0.00    -0.223 NA
HETATM    3  C10 UNL     1      24.345  -1.301  55.699  1.00  0.00     0.236 A 
HETATM    4  N3  UNL     1      23.016  -1.535  55.652  1.00  0.00    -0.241 NA
HETATM    5  C11 UNL     1      22.259  -1.092  54.617  1.00  0.00     0.075 A 
HETATM    6  C12 UNL     1      20.907  -1.296  54.503  1.00  0.00     0.072 A 
HETATM    7  C13 UNL     1      20.161  -0.832  53.429  1.00  0.00     0.103 A 
HETATM    8  O1  UNL     1      18.907  -1.021  53.325  1.00  0.00    -0.353 OA
HETATM    9  C14 UNL     1      17.620  -1.215  53.218  1.00  0.00     0.210 C 
HETATM   10  C15 UNL     1      20.843  -0.129  52.432  1.00  0.00     0.102 A 
HETATM   11  C17 UNL     1      22.221   0.109  52.497  1.00  0.00     0.057 A 
HETATM   12  C18 UNL     1      22.860  -0.395  53.603  1.00  0.00     0.042 A 
ENDROOT
BRANCH  10  13
HETATM   13  O2  UNL     1      20.138   0.341  51.360  1.00  0.00    -0.353 OA
HETATM   14  C16 UNL     1      20.720   0.912  50.233  1.00  0.00     0.210 C 
ENDBRANCH  10  13
BRANCH   1  15
HETATM   15  N1  UNL     1      25.029   0.564  52.691  1.00  0.00    -0.331 N 
BRANCH  15  16
HETATM   16  C2  UNL     1      26.235  -0.076  52.167  1.00  0.00     0.126 C 
HETATM   17  C1  UNL     1      27.475   0.696  52.478  1.00  0.00     0.027 C 
ENDBRANCH  15  16
BRANCH  15  18
HETATM   18  C3  UNL     1      24.568   1.851  52.341  1.00  0.00     0.035 A 
HETATM   19  C4  UNL     1      24.270   2.231  51.054  1.00  0.00     0.029 A 
HETATM   20  C5  UNL     1      23.819   3.476  50.717  1.00  0.00     0.002 A 
HETATM   21  C6  UNL     1      23.631   4.450  51.666  1.00  0.00     0.000 A 
HETATM   22  C7  UNL     1      23.910   4.132  52.965  1.00  0.00     0.002 A 
HETATM   23  C8  UNL     1      24.366   2.856  53.263  1.00  0.00     0.029 A 
ENDBRANCH  15  18
ENDBRANCH   1  15
TORSDOF 4
ENDMDL
MODEL 4
REMARK VINA RESULT:      -7.4      2.766      6.089
REMARK  4 active torsions:
REMARK  status: ('A' for Active; 'I' for Inactive)
REMARK    1  A    between atoms: C2_2  and  N1_3 
REMARK    2  A    between atoms: N1_3  and  C3_4 
REMARK    3  A    between atoms: N1_3  and  C9_10 
REMARK    4  A    between atoms: C15_19  and  O2_20 
ROOT
HETATM    1  C9  UNL     1      22.393   0.451  52.371  1.00  0.00     0.144 A 
HETATM    2  N2  UNL     1      21.382  -0.195  52.999  1.00  0.00    -0.223 NA
HETATM    3  C10 UNL     1      21.585  -0.958  54.083  1.00  0.00     0.236 A 
HETATM    4  N3  UNL     1      22.838  -1.088  54.566  1.00  0.00    -0.241 NA
HETATM    5  C11 UNL     1      23.888  -0.465  53.978  1.00  0.00     0.075 A 
HETATM    6  C12 UNL     1      25.186  -0.550  54.415  1.00  0.00     0.072 A 
HETATM    7  C13 UNL     1      26.239   0.103  53.793  1.00  0.00     0.103 A 
HETATM    8  O1  UNL     1      27.442   0.022  54.199  1.00  0.00    -0.353 OA
HETATM    9  C14 UNL     1      28.676  -0.061  54.617  1.00  0.00     0.210 C 
HETATM   10  C15 UNL     1      25.937   0.878  52.669  1.00  0.00     0.102 A 
HETATM   11  C17 UNL     1      24.632   1.001  52.177  1.00  0.00     0.057 A 
HETATM   12  C18 UNL     1      23.667   0.312  52.871  1.00  0.00     0.042 A 
ENDROOT
BRANCH  10  13
HETATM   13  O2  UNL     1      26.951   1.535  52.031  1.00  0.00    -0.353 OA
HETATM   14  C16 UNL     1      26.761   2.592  51.147  1.00  0.00     0.210 C 
ENDBRANCH  10  13
BRANCH   1  15
HETATM   15  N1  UNL     1      21.953   1.205  51.222  1.00  0.00    -0.331 N 
BRANCH  15  16
HETATM   16  C2  UNL     1      21.267   0.507  50.136  1.00  0.00     0.126 C 
HETATM   17  C1  UNL     1      20.028   1.214  49.692  1.00  0.00     0.027 C 
ENDBRANCH  15  16
BRANCH  15  18
HETATM   18  C3  UNL     1      22.228   2.588  51.260  1.00  0.00     0.035 A 
HETATM   19  C4  UNL     1      22.981   3.243  50.314  1.00  0.00     0.029 A 
HETATM   20  C5  UNL     1      23.243   4.583  50.350  1.00  0.00     0.002 A 
HETATM   21  C6  UNL     1      22.760   5.380  51.357  1.00  0.00     0.000 A 
HETATM   22  C7  UNL     1      22.005   4.787  52.328  1.00  0.00     0.002 A 
HETATM   23  C8  UNL     1      21.762   3.423  52.254  1.00  0.00     0.029 A 
ENDBRANCH  15  18
ENDBRANCH   1  15
TORSDOF 4
ENDMDL
MODEL 5
REMARK VINA RESULT:      -7.2      3.140      6.884
REMARK  4 active torsions:
REMARK  status: ('A' for Active; 'I' for Inactive)
REMARK    1  A    between atoms: C2_2  and  N1_3 
REMARK    2  A    between atoms: N1_3  and  C3_4 
REMARK    3  A    between atoms: N1_3  and  C9_10 
REMARK    4  A    between atoms: C15_19  and  O2_20 
ROOT
HETATM    1  C9  UNL     1      24.345   3.341  51.413  1.00  0.00     0.144 A 
HETATM    2  N2  UNL     1      24.638   4.058  50.301  1.00  0.00    -0.223 NA
HETATM    3  C10 UNL     1      25.857   4.044  49.742  1.00  0.00     0.236 A 
HETATM    4  N3  UNL     1      26.827   3.291  50.305  1.00  0.00    -0.241 NA
HETATM    5  C11 UNL     1      26.589   2.554  51.417  1.00  0.00     0.075 A 
HETATM    6  C12 UNL     1      27.524   1.766  52.039  1.00  0.00     0.072 A 
HETATM    7  C13 UNL     1      27.249   1.020  53.177  1.00  0.00     0.103 A 
HETATM    8  O1  UNL     1      28.118   0.291  53.753  1.00  0.00    -0.353 OA
HETATM    9  C14 UNL     1      29.009  -0.458  54.343  1.00  0.00     0.210 C 
HETATM   10  C15 UNL     1      25.952   1.094  53.691  1.00  0.00     0.102 A 
HETATM   11  C17 UNL     1      24.958   1.882  53.099  1.00  0.00     0.057 A 
HETATM   12  C18 UNL     1      25.340   2.577  51.978  1.00  0.00     0.042 A 
ENDROOT
BRANCH  10  13
HETATM   13  O2  UNL     1      25.647   0.372  54.811  1.00  0.00    -0.353 OA
HETATM   14  C16 UNL     1      24.938  -0.825  54.798  1.00  0.00     0.210 C 
ENDBRANCH  10  13
BRANCH   1  15
HETATM   15  N1  UNL     1      22.980   3.511  51.848  1.00  0.00    -0.331 N 
BRANCH  15  16
HETATM   16  C2  UNL     1      22.581   4.781  52.453  1.00  0.00     0.126 C 
HETATM   17  C1  UNL     1      21.748   5.616  51.536  1.00  0.00     0.027 C 
ENDBRANCH  15  16
BRANCH  15  18
HETATM   18  C3  UNL     1      22.132   2.403  51.636  1.00  0.00     0.035 A 
HETATM   19  C4  UNL     1      22.089   1.689  50.462  1.00  0.00     0.029 A 
HETATM   20  C5  UNL     1      21.271   0.614  50.260  1.00  0.00     0.002 A 
HETATM   21  C6  UNL     1      20.419   0.168  51.239  1.00  0.00     0.000 A 
HETATM   22  C7  UNL     1      20.416   0.838  52.430  1.00  0.00     0.002 A 
HETATM   23  C8  UNL     1      21.263   1.925  52.594  1.00  0.00     0.029 A 
ENDBRANCH  15  18
ENDBRANCH   1  15
TORSDOF 4
ENDMDL
MODEL 6
REMARK VINA RESULT:      -7.2      2.782      4.385
REMARK  4 active torsions:
REMARK  status: ('A' for Active; 'I' for Inactive)
REMARK    1  A    between atoms: C2_2  and  N1_3 
REMARK    2  A    between atoms: N1_3  and  C3_4 
REMARK    3  A    between atoms: N1_3  and  C9_10 
REMARK    4  A    between atoms: C15_19  and  O2_20 
ROOT
HETATM    1  C9  UNL     1      23.103   2.437  50.645  1.00  0.00     0.144 A 
HETATM    2  N2  UNL     1      23.275   2.625  49.314  1.00  0.00    -0.223 NA
HETATM    3  C10 UNL     1      22.438   2.104  48.406  1.00  0.00     0.236 A 
HETATM    4  N3  UNL     1      21.389   1.366  48.828  1.00  0.00    -0.241 NA
HETATM    5  C11 UNL     1      21.170   1.146  50.147  1.00  0.00     0.075 A 
HETATM    6  C12 UNL     1      20.125   0.410  50.647  1.00  0.00     0.072 A 
HETATM    7  C13 UNL     1      19.926   0.205  52.005  1.00  0.00     0.103 A 
HETATM    8  O1  UNL     1      18.957  -0.479  52.466  1.00  0.00    -0.353 OA
HETATM    9  C14 UNL     1      17.962  -1.180  52.940  1.00  0.00     0.210 C 
HETATM   10  C15 UNL     1      20.846   0.785  52.881  1.00  0.00     0.102 A 
HETATM   11  C17 UNL     1      21.931   1.545  52.428  1.00  0.00     0.057 A 
HETATM   12  C18 UNL     1      22.032   1.684  51.065  1.00  0.00     0.042 A 
ENDROOT
BRANCH  10  13
HETATM   13  O2  UNL     1      20.679   0.603  54.225  1.00  0.00    -0.353 OA
HETATM   14  C16 UNL     1      21.382  -0.331  54.980  1.00  0.00     0.210 C 
ENDBRANCH  10  13
BRANCH   1  15
HETATM   15  N1  UNL     1      24.124   3.077  51.440  1.00  0.00    -0.331 N 
BRANCH  15  16
HETATM   16  C2  UNL     1      24.125   4.535  51.552  1.00  0.00     0.126 C 
HETATM   17  C1  UNL     1      23.053   5.041  52.462  1.00  0.00     0.027 C 
ENDBRANCH  15  16
BRANCH  15  18
HETATM   18  C3  UNL     1      25.048   2.208  52.058  1.00  0.00     0.035 A 
HETATM   19  C4  UNL     1      25.730   1.219  51.388  1.00  0.00     0.029 A 
HETATM   20  C5  UNL     1      26.627   0.382  51.986  1.00  0.00     0.002 A 
HETATM   21  C6  UNL     1      26.912   0.475  53.326  1.00  0.00     0.000 A 
HETATM   22  C7  UNL     1      26.265   1.440  54.045  1.00  0.00     0.002 A 
HETATM   23  C8  UNL     1      25.361   2.270  53.399  1.00  0.00     0.029 A 
ENDBRANCH  15  18
ENDBRANCH   1  15
TORSDOF 4
ENDMDL
MODEL 7
REMARK VINA RESULT:      -7.2      1.466      3.435
REMARK  4 active torsions:
REMARK  status: ('A' for Active; 'I' for Inactive)
REMARK    1  A    between atoms: C2_2  and  N1_3 
REMARK    2  A    between atoms: N1_3  and  C3_4 
REMARK    3  A    between atoms: N1_3  and  C9_10 
REMARK    4  A    between atoms: C15_19  and  O2_20 
ROOT
HETATM    1  C9  UNL     1      25.856   1.210  52.780  1.00  0.00     0.144 A 
HETATM    2  N2  UNL     1      26.803   1.996  52.214  1.00  0.00    -0.223 NA
HETATM    3  C10 UNL     1      26.548   2.768  51.148  1.00  0.00     0.236 A 
HETATM    4  N3  UNL     1      25.307   2.762  50.617  1.00  0.00    -0.241 NA
HETATM    5  C11 UNL     1      24.321   1.994  51.142  1.00  0.00     0.075 A 
HETATM    6  C12 UNL     1      23.038   1.941  50.657  1.00  0.00     0.072 A 
HETATM    7  C13 UNL     1      22.049   1.147  51.219  1.00  0.00     0.103 A 
HETATM    8  O1  UNL     1      20.861   1.098  50.767  1.00  0.00    -0.353 OA
HETATM    9  C14 UNL     1      19.641   1.049  50.305  1.00  0.00     0.210 C 
HETATM   10  C15 UNL     1      22.403   0.375  52.329  1.00  0.00     0.102 A 
HETATM   11  C17 UNL     1      23.696   0.389  52.867  1.00  0.00     0.057 A 
HETATM   12  C18 UNL     1      24.594   1.211  52.232  1.00  0.00     0.042 A 
ENDROOT
BRANCH  10  13
HETATM   13  O2  UNL     1      21.452  -0.419  52.908  1.00  0.00    -0.353 OA
HETATM   14  C16 UNL     1      20.791  -0.108  54.091  1.00  0.00     0.210 C 
ENDBRANCH  10  13
BRANCH   1  15
HETATM   15  N1  UNL     1      26.349   0.457  53.908  1.00  0.00    -0.331 N 
BRANCH  15  16
HETATM   16  C2  UNL     1      25.766   0.695  55.228  1.00  0.00     0.126 C 
HETATM   17  C1  UNL     1      25.420  -0.574  55.938  1.00  0.00     0.027 C 
ENDBRANCH  15  16
BRANCH  15  18
HETATM   18  C3  UNL     1      27.374  -0.469  53.621  1.00  0.00     0.035 A 
HETATM   19  C4  UNL     1      28.690  -0.284  53.974  1.00  0.00     0.029 A 
HETATM   20  C5  UNL     1      29.680  -1.183  53.699  1.00  0.00     0.002 A 
HETATM   21  C6  UNL     1      29.419  -2.357  53.037  1.00  0.00     0.000 A 
HETATM   22  C7  UNL     1      28.128  -2.597  52.659  1.00  0.00     0.002 A 
HETATM   23  C8  UNL     1      27.152  -1.657  52.958  1.00  0.00     0.029 A 
ENDBRANCH  15  18
ENDBRANCH   1  15
TORSDOF 4
ENDMDL
MODEL 8
REMARK VINA RESULT:      -7.1      2.957      6.209
REMARK  4 active torsions:
REMARK  status: ('A' for Active; 'I' for Inactive)
REMARK    1  A    between atoms: C2_2  and  N1_3 
REMARK    2  A    between atoms: N1_3  and  C3_4 
REMARK    3  A    between atoms: N1_3  and  C9_10 
REMARK    4  A    between atoms: C15_19  and  O2_20 
ROOT
HETATM    1  C9  UNL     1      24.403   3.133  50.975  1.00  0.00     0.144 A 
HETATM    2  N2  UNL     1      25.702   3.207  50.595  1.00  0.00    -0.223 NA
HETATM    3  C10 UNL     1      26.621   2.327  51.018  1.00  0.00     0.236 A 
HETATM    4  N3  UNL     1      26.244   1.335  51.851  1.00  0.00    -0.241 NA
HETATM    5  C11 UNL     1      24.958   1.213  52.264  1.00  0.00     0.075 A 
HETATM    6  C12 UNL     1      24.504   0.229  53.106  1.00  0.00     0.072 A 
HETATM    7  C13 UNL     1      23.180   0.129  53.508  1.00  0.00     0.103 A 
HETATM    8  O1  UNL     1      22.761  -0.783  54.290  1.00  0.00    -0.353 OA
HETATM    9  C14 UNL     1      22.331  -1.720  55.091  1.00  0.00     0.210 C 
HETATM   10  C15 UNL     1      22.289   1.088  53.018  1.00  0.00     0.102 A 
HETATM   11  C17 UNL     1      22.696   2.115  52.157  1.00  0.00     0.057 A 
HETATM   12  C18 UNL     1      24.029   2.117  51.824  1.00  0.00     0.042 A 
ENDROOT
BRANCH  10  13
HETATM   13  O2  UNL     1      20.977   1.019  53.394  1.00  0.00    -0.353 OA
HETATM   14  C16 UNL     1      19.938   0.666  52.539  1.00  0.00     0.210 C 
ENDBRANCH  10  13
BRANCH   1  15
HETATM   15  N1  UNL     1      23.591   4.184  50.412  1.00  0.00    -0.331 N 
BRANCH  15  16
HETATM   16  C2  UNL     1      23.378   5.407  51.184  1.00  0.00     0.126 C 
HETATM   17  C1  UNL     1      21.949   5.596  51.576  1.00  0.00     0.027 C 
ENDBRANCH  15  16
BRANCH  15  18
HETATM   18  C3  UNL     1      23.068   3.925  49.127  1.00  0.00     0.035 A 
HETATM   19  C4  UNL     1      22.795   2.663  48.654  1.00  0.00     0.029 A 
HETATM   20  C5  UNL     1      22.285   2.415  47.412  1.00  0.00     0.002 A 
HETATM   21  C6  UNL     1      22.007   3.434  46.535  1.00  0.00     0.000 A 
HETATM   22  C7  UNL     1      22.258   4.711  46.948  1.00  0.00     0.002 A 
HETATM   23  C8  UNL     1      22.776   4.920  48.218  1.00  0.00     0.029 A 
ENDBRANCH  15  18
ENDBRANCH   1  15
TORSDOF 4
ENDMDL
MODEL 9
REMARK VINA RESULT:      -6.9      9.812     12.281
REMARK  4 active torsions:
REMARK  status: ('A' for Active; 'I' for Inactive)
REMARK    1  A    between atoms: C2_2  and  N1_3 
REMARK    2  A    between atoms: N1_3  and  C3_4 
REMARK    3  A    between atoms: N1_3  and  C9_10 
REMARK    4  A    between atoms: C15_19  and  O2_20 
ROOT
HETATM    1  C9  UNL     1      32.916   6.965  46.374  1.00  0.00     0.144 A 
HETATM    2  N2  UNL     1      34.087   7.646  46.355  1.00  0.00    -0.223 NA
HETATM    3  C10 UNL     1      34.259   8.791  47.031  1.00  0.00     0.236 A 
HETATM    4  N3  UNL     1      33.232   9.285  47.754  1.00  0.00    -0.241 NA
HETATM    5  C11 UNL     1      32.038   8.646  47.808  1.00  0.00     0.075 A 
HETATM    6  C12 UNL     1      30.954   9.088  48.524  1.00  0.00     0.072 A 
HETATM    7  C13 UNL     1      29.744   8.409  48.562  1.00  0.00     0.103 A 
HETATM    8  O1  UNL     1      28.740   8.822  49.225  1.00  0.00    -0.353 OA
HETATM    9  C14 UNL     1      27.709   9.244  49.906  1.00  0.00     0.210 C 
HETATM   10  C15 UNL     1      29.653   7.223  47.829  1.00  0.00     0.102 A 
HETATM   11  C17 UNL     1      30.726   6.725  47.080  1.00  0.00     0.057 A 
HETATM   12  C18 UNL     1      31.875   7.477  47.114  1.00  0.00     0.042 A 
ENDROOT
BRANCH  10  13
HETATM   13  O2  UNL     1      28.476   6.529  47.844  1.00  0.00    -0.353 OA
HETATM   14  C16 UNL     1      28.309   5.290  48.455  1.00  0.00     0.210 C 
ENDBRANCH  10  13
BRANCH   1  15
HETATM   15  N1  UNL     1      32.948   5.767  45.571  1.00  0.00    -0.331 N 
BRANCH  15  16
HETATM   16  C2  UNL     1      32.820   5.883  44.119  1.00  0.00     0.126 C 
HETATM   17  C1  UNL     1      33.759   4.980  43.387  1.00  0.00     0.027 C 
ENDBRANCH  15  16
BRANCH  15  18
HETATM   18  C3  UNL     1      33.111   4.560  46.284  1.00  0.00     0.035 A 
HETATM   19  C4  UNL     1      34.164   4.313  47.133  1.00  0.00     0.029 A 
HETATM   20  C5  UNL     1      34.319   3.147  47.827  1.00  0.00     0.002 A 
HETATM   21  C6  UNL     1      33.411   2.123  47.718  1.00  0.00     0.000 A 
HETATM   22  C7  UNL     1      32.342   2.310  46.888  1.00  0.00     0.002 A 
HETATM   23  C8  UNL     1      32.223   3.509  46.202  1.00  0.00     0.029 A 
ENDBRANCH  15  18
ENDBRANCH   1  15
TORSDOF 4
ENDMDL
