MODEL 1
REMARK VINA RESULT:      -8.9      0.000      0.000
REMARK  5 active torsions:
REMARK  status: ('A' for Active; 'I' for Inactive)
REMARK    1  A    between atoms: N1_5  and  C5_6 
REMARK    2  A    between atoms: C10_13  and  N4_14 
REMARK    3  A    between atoms: N4_14  and  C11_15 
REMARK    4  A    between atoms: C11_15  and  C12_16 
REMARK    5  A    between atoms: C15_19  and  O1_20 
ROOT
HETATM    1  C5  UNL     1      20.762   0.690  51.611  1.00  0.00     0.140 A 
HETATM    2  N2  UNL     1      19.424   0.461  51.565  1.00  0.00    -0.224 NA
HETATM    3  C6  UNL     1      18.755  -0.283  52.443  1.00  0.00     0.236 A 
HETATM    4  N3  UNL     1      19.404  -0.866  53.459  1.00  0.00    -0.241 NA
HETATM    5  C7  UNL     1      20.725  -0.718  53.613  1.00  0.00     0.072 A 
HETATM    6  C8  UNL     1      21.473  -1.285  54.610  1.00  0.00     0.035 A 
HETATM    7  C9  UNL     1      22.846  -1.120  54.729  1.00  0.00     0.031 A 
HETATM    8  C10 UNL     1      23.480  -0.326  53.765  1.00  0.00     0.029 A 
HETATM    9  C17 UNL     1      22.709   0.234  52.774  1.00  0.00     0.046 A 
HETATM   10  C18 UNL     1      21.351   0.058  52.675  1.00  0.00     0.041 A 
ENDROOT
BRANCH   8  11
HETATM   11  N4  UNL     1      24.894  -0.148  53.877  1.00  0.00    -0.389 N 
HETATM   12  H10 UNL     1      25.230   0.636  54.478  1.00  0.00     0.159 HD
BRANCH  11  13
HETATM   13  C11 UNL     1      25.753  -1.047  53.166  1.00  0.00     0.132 C 
BRANCH  13  14
HETATM   14  C12 UNL     1      26.829  -0.244  52.485  1.00  0.00     0.051 A 
HETATM   15  C13 UNL     1      28.131  -0.659  53.116  1.00  0.00    -0.014 A 
HETATM   16  C14 UNL     1      28.686   0.382  53.724  1.00  0.00     0.033 A 
HETATM   17  C15 UNL     1      27.833   1.575  53.569  1.00  0.00     0.062 A 
HETATM   18  C16 UNL     1      26.791   1.191  52.865  1.00  0.00     0.020 A 
BRANCH  17  19
HETATM   19  O1  UNL     1      28.060   2.856  54.055  1.00  0.00    -0.361 OA
HETATM   20  H16 UNL     1      28.793   3.090  54.715  1.00  0.00     0.217 HD
ENDBRANCH  17  19
ENDBRANCH  13  14
ENDBRANCH  11  13
ENDBRANCH   8  11
BRANCH   1  21
HETATM   21  N1  UNL     1      21.275   1.568  50.617  1.00  0.00    -0.357 N 
HETATM   22  C4  UNL     1      20.818   2.974  50.720  1.00  0.00     0.152 C 
HETATM   23  C3  UNL     1      21.883   3.635  51.527  1.00  0.00    -0.005 C 
HETATM   24  C2  UNL     1      23.006   3.440  50.880  1.00  0.00    -0.084 C 
HETATM   25  C1  UNL     1      24.225   4.030  51.526  1.00  0.00     0.043 C 
HETATM   26  C21 UNL     1      23.150   2.703  49.597  1.00  0.00     0.058 C 
HETATM   27  C19 UNL     1      22.194   1.519  49.495  1.00  0.00     0.086 C 
HETATM   28  C20 UNL     1      21.378   1.711  48.235  1.00  0.00     0.032 C 
ENDBRANCH   1  21
TORSDOF 5
ENDMDL
MODEL 2
REMARK VINA RESULT:      -8.3      1.998      5.614
REMARK  5 active torsions:
REMARK  status: ('A' for Active; 'I' for Inactive)
REMARK    1  A    between atoms: N1_5  and  C5_6 
REMARK    2  A    between atoms: C10_13  and  N4_14 
REMARK    3  A    between atoms: N4_14  and  C11_15 
REMARK    4  A    between atoms: C11_15  and  C12_16 
REMARK    5  A    between atoms: C15_19  and  O1_20 
ROOT
HETATM    1  C5  UNL     1      25.166  -0.352  54.399  1.00  0.00     0.140 A 
HETATM    2  N2  UNL     1      25.198  -1.070  55.552  1.00  0.00    -0.224 NA
HETATM    3  C6  UNL     1      24.138  -1.650  56.109  1.00  0.00     0.236 A 
HETATM    4  N3  UNL     1      22.936  -1.546  55.530  1.00  0.00    -0.241 NA
HETATM    5  C7  UNL     1      22.773  -0.863  54.390  1.00  0.00     0.072 A 
HETATM    6  C8  UNL     1      21.583  -0.692  53.735  1.00  0.00     0.035 A 
HETATM    7  C9  UNL     1      21.451   0.036  52.560  1.00  0.00     0.031 A 
HETATM    8  C10 UNL     1      22.610   0.619  52.036  1.00  0.00     0.029 A 
HETATM    9  C17 UNL     1      23.794   0.434  52.711  1.00  0.00     0.046 A 
HETATM   10  C18 UNL     1      23.903  -0.292  53.871  1.00  0.00     0.041 A 
ENDROOT
BRANCH   8  11
HETATM   11  N4  UNL     1      22.487   1.372  50.827  1.00  0.00    -0.389 N 
HETATM   12  H10 UNL     1      21.867   0.981  50.084  1.00  0.00     0.159 HD
BRANCH  11  13
HETATM   13  C11 UNL     1      23.211   2.601  50.711  1.00  0.00     0.132 C 
BRANCH  13  14
HETATM   14  C12 UNL     1      22.629   3.595  51.681  1.00  0.00     0.051 A 
HETATM   15  C13 UNL     1      21.860   4.591  50.856  1.00  0.00    -0.014 A 
HETATM   16  C14 UNL     1      22.398   5.797  50.993  1.00  0.00     0.033 A 
HETATM   17  C15 UNL     1      23.557   5.735  51.903  1.00  0.00     0.062 A 
HETATM   18  C16 UNL     1      23.664   4.479  52.275  1.00  0.00     0.020 A 
BRANCH  17  19
HETATM   19  O1  UNL     1      24.385   6.776  52.303  1.00  0.00    -0.361 OA
HETATM   20  H16 UNL     1      25.357   6.866  52.027  1.00  0.00     0.217 HD
ENDBRANCH  17  19
ENDBRANCH  13  14
ENDBRANCH  11  13
ENDBRANCH   8  11
BRANCH   1  21
HETATM   21  N1  UNL     1      26.420   0.129  53.934  1.00  0.00    -0.357 N 
HETATM   22  C4  UNL     1      26.961  -0.564  52.741  1.00  0.00     0.152 C 
HETATM   23  C3  UNL     1      26.479   0.264  51.600  1.00  0.00    -0.005 C 
HETATM   24  C2  UNL     1      26.927   1.477  51.813  1.00  0.00    -0.084 C 
HETATM   25  C1  UNL     1      26.551   2.489  50.769  1.00  0.00     0.043 C 
HETATM   26  C21 UNL     1      27.752   1.905  52.973  1.00  0.00     0.058 C 
HETATM   27  C19 UNL     1      27.368   1.180  54.259  1.00  0.00     0.086 C 
HETATM   28  C20 UNL     1      28.619   0.511  54.785  1.00  0.00     0.032 C 
ENDBRANCH   1  21
TORSDOF 5
ENDMDL
MODEL 3
REMARK VINA RESULT:      -8.3      2.305      4.791
REMARK  5 active torsions:
REMARK  status: ('A' for Active; 'I' for Inactive)
REMARK    1  A    between atoms: N1_5  and  C5_6 
REMARK    2  A    between atoms: C10_13  and  N4_14 
REMARK    3  A    between atoms: N4_14  and  C11_15 
REMARK    4  A    between atoms: C11_15  and  C12_16 
REMARK    5  A    between atoms: C15_19  and  O1_20 
ROOT
HETATM    1  C5  UNL     1      22.519   3.581  50.264  1.00  0.00     0.140 A 
HETATM    2  N2  UNL     1      22.119   4.527  49.375  1.00  0.00    -0.224 NA
HETATM    3  C6  UNL     1      22.940   5.221  48.590  1.00  0.00     0.236 A 
HETATM    4  N3  UNL     1      24.260   5.005  48.646  1.00  0.00    -0.241 NA
HETATM    5  C7  UNL     1      24.780   4.100  49.483  1.00  0.00     0.072 A 
HETATM    6  C8  UNL     1      26.114   3.822  49.618  1.00  0.00     0.035 A 
HETATM    7  C9  UNL     1      26.617   2.883  50.509  1.00  0.00     0.031 A 
HETATM    8  C10 UNL     1      25.691   2.196  51.302  1.00  0.00     0.029 A 
HETATM    9  C17 UNL     1      24.357   2.491  51.150  1.00  0.00     0.046 A 
HETATM   10  C18 UNL     1      23.880   3.423  50.261  1.00  0.00     0.041 A 
ENDROOT
BRANCH   8  11
HETATM   11  N4  UNL     1      26.197   1.227  52.224  1.00  0.00    -0.389 N 
HETATM   12  H10 UNL     1      25.546   0.467  52.522  1.00  0.00     0.159 HD
BRANCH  11  13
HETATM   13  C11 UNL     1      27.548   1.357  52.677  1.00  0.00     0.132 C 
BRANCH  13  14
HETATM   14  C12 UNL     1      27.798   0.325  53.745  1.00  0.00     0.051 A 
HETATM   15  C13 UNL     1      29.290   0.156  53.831  1.00  0.00    -0.014 A 
HETATM   16  C14 UNL     1      29.620  -1.088  53.505  1.00  0.00     0.033 A 
HETATM   17  C15 UNL     1      28.410  -1.864  53.175  1.00  0.00     0.062 A 
HETATM   18  C16 UNL     1      27.396  -1.040  53.319  1.00  0.00     0.020 A 
BRANCH  17  19
HETATM   19  O1  UNL     1      28.329  -3.196  52.788  1.00  0.00    -0.361 OA
HETATM   20  H16 UNL     1      29.020  -3.661  52.210  1.00  0.00     0.217 HD
ENDBRANCH  17  19
ENDBRANCH  13  14
ENDBRANCH  11  13
ENDBRANCH   8  11
BRANCH   1  21
HETATM   21  N1  UNL     1      21.480   2.906  50.960  1.00  0.00    -0.357 N 
HETATM   22  C4  UNL     1      20.851   1.784  50.224  1.00  0.00     0.152 C 
HETATM   23  C3  UNL     1      21.617   0.589  50.675  1.00  0.00    -0.005 C 
HETATM   24  C2  UNL     1      21.506   0.554  51.980  1.00  0.00    -0.084 C 
HETATM   25  C1  UNL     1      22.214  -0.586  52.651  1.00  0.00     0.043 C 
HETATM   26  C21 UNL     1      20.754   1.531  52.812  1.00  0.00     0.058 C 
HETATM   27  C19 UNL     1      20.837   2.951  52.261  1.00  0.00     0.086 C 
HETATM   28  C20 UNL     1      19.417   3.429  52.046  1.00  0.00     0.032 C 
ENDBRANCH   1  21
TORSDOF 5
ENDMDL
MODEL 4
REMARK VINA RESULT:      -8.2      0.897      1.989
REMARK  5 active torsions:
REMARK  status: ('A' for Active; 'I' for Inactive)
REMARK    1  A    between atoms: N1_5  and  C5_6 
REMARK    2  A    between atoms: C10_13  and  N4_14 
REMARK    3  A    between atoms: N4_14  and  C11_15 
REMARK    4  A    between atoms: C11_15  and  C12_16 
REMARK    5  A    between atoms: C15_19  and  O1_20 
ROOT
HETATM    1  C5  UNL     1      21.201   0.929  51.974  1.00  0.00     0.140 A 
HETATM    2  N2  UNL     1      19.872   0.645  51.950  1.00  0.00    -0.224 NA
HETATM    3  C6  UNL     1      19.274  -0.234  52.750  1.00  0.00     0.236 A 
HETATM    4  N3  UNL     1      19.990  -0.908  53.658  1.00  0.00    -0.241 NA
HETATM    5  C7  UNL     1      21.309  -0.719  53.780  1.00  0.00     0.072 A 
HETATM    6  C8  UNL     1      22.122  -1.371  54.668  1.00  0.00     0.035 A 
HETATM    7  C9  UNL     1      23.491  -1.157  54.755  1.00  0.00     0.031 A 
HETATM    8  C10 UNL     1      24.049  -0.220  53.878  1.00  0.00     0.029 A 
HETATM    9  C17 UNL     1      23.214   0.423  52.995  1.00  0.00     0.046 A 
HETATM   10  C18 UNL     1      21.861   0.198  52.926  1.00  0.00     0.041 A 
ENDROOT
BRANCH   8  11
HETATM   11  N4  UNL     1      25.458   0.008  53.958  1.00  0.00    -0.389 N 
HETATM   12  H10 UNL     1      25.771   0.913  54.374  1.00  0.00     0.159 HD
BRANCH  11  13
HETATM   13  C11 UNL     1      26.342  -1.005  53.469  1.00  0.00     0.132 C 
BRANCH  13  14
HETATM   14  C12 UNL     1      27.482  -0.340  52.745  1.00  0.00     0.051 A 
HETATM   15  C13 UNL     1      28.743  -0.973  53.266  1.00  0.00    -0.014 A 
HETATM   16  C14 UNL     1      29.487  -0.057  53.874  1.00  0.00     0.033 A 
HETATM   17  C15 UNL     1      28.817   1.256  53.824  1.00  0.00     0.062 A 
HETATM   18  C16 UNL     1      27.687   1.065  53.181  1.00  0.00     0.020 A 
BRANCH  17  19
HETATM   19  O1  UNL     1      29.266   2.464  54.342  1.00  0.00    -0.361 OA
HETATM   20  H16 UNL     1      30.179   2.596  54.763  1.00  0.00     0.217 HD
ENDBRANCH  17  19
ENDBRANCH  13  14
ENDBRANCH  11  13
ENDBRANCH   8  11
BRANCH   1  21
HETATM   21  N1  UNL     1      21.632   1.948  51.082  1.00  0.00    -0.357 N 
HETATM   22  C4  UNL     1      22.175   1.468  49.789  1.00  0.00     0.152 C 
HETATM   23  C3  UNL     1      20.995   1.490  48.879  1.00  0.00    -0.005 C 
HETATM   24  C2  UNL     1      20.545   2.720  48.892  1.00  0.00    -0.084 C 
HETATM   25  C1  UNL     1      19.341   2.969  48.032  1.00  0.00     0.043 C 
HETATM   26  C21 UNL     1      21.124   3.846  49.672  1.00  0.00     0.058 C 
HETATM   27  C19 UNL     1      21.668   3.398  51.025  1.00  0.00     0.086 C 
HETATM   28  C20 UNL     1      23.121   3.816  51.083  1.00  0.00     0.032 C 
ENDBRANCH   1  21
TORSDOF 5
ENDMDL
MODEL 5
REMARK VINA RESULT:      -8.1      2.408      3.819
REMARK  5 active torsions:
REMARK  status: ('A' for Active; 'I' for Inactive)
REMARK    1  A    between atoms: N1_5  and  C5_6 
REMARK    2  A    between atoms: C10_13  and  N4_14 
REMARK    3  A    between atoms: N4_14  and  C11_15 
REMARK    4  A    between atoms: C11_15  and  C12_16 
REMARK    5  A    between atoms: C15_19  and  O1_20 
ROOT
HETATM    1  C5  UNL     1      22.059   0.520  52.651  1.00  0.00     0.140 A 
HETATM    2  N2  UNL     1      21.245  -0.134  53.520  1.00  0.00    -0.224 NA
HETATM    3  C6  UNL     1      21.670  -0.893  54.527  1.00  0.00     0.236 A 
HETATM    4  N3  UNL     1      22.982  -1.054  54.737  1.00  0.00    -0.241 NA
HETATM    5  C7  UNL     1      23.888  -0.463  53.948  1.00  0.00     0.072 A 
HETATM    6  C8  UNL     1      25.245  -0.580  54.079  1.00  0.00     0.035 A 
HETATM    7  C9  UNL     1      26.155   0.038  53.231  1.00  0.00     0.031 A 
HETATM    8  C10 UNL     1      25.632   0.819  52.194  1.00  0.00     0.029 A 
HETATM    9  C17 UNL     1      24.265   0.922  52.082  1.00  0.00     0.046 A 
HETATM   10  C18 UNL     1      23.383   0.303  52.933  1.00  0.00     0.041 A 
ENDROOT
BRANCH   8  11
HETATM   11  N4  UNL     1      26.558   1.460  51.313  1.00  0.00    -0.389 N 
HETATM   12  H10 UNL     1      27.267   0.854  50.845  1.00  0.00     0.159 HD
BRANCH  11  13
HETATM   13  C11 UNL     1      26.458   2.876  51.131  1.00  0.00     0.132 C 
BRANCH  13  14
HETATM   14  C12 UNL     1      26.130   3.153  49.688  1.00  0.00     0.051 A 
HETATM   15  C13 UNL     1      27.092   4.215  49.230  1.00  0.00    -0.014 A 
HETATM   16  C14 UNL     1      26.422   5.308  48.886  1.00  0.00     0.033 A 
HETATM   17  C15 UNL     1      24.975   5.097  49.074  1.00  0.00     0.062 A 
HETATM   18  C16 UNL     1      24.840   3.871  49.528  1.00  0.00     0.020 A 
BRANCH  17  19
HETATM   19  O1  UNL     1      23.942   5.993  48.828  1.00  0.00    -0.361 OA
HETATM   20  H16 UNL     1      22.987   5.716  48.629  1.00  0.00     0.217 HD
ENDBRANCH  17  19
ENDBRANCH  13  14
ENDBRANCH  11  13
ENDBRANCH   8  11
BRANCH   1  21
HETATM   21  N1  UNL     1      21.409   1.335  51.686  1.00  0.00    -0.357 N 
HETATM   22  C4  UNL     1      20.229   2.082  52.181  1.00  0.00     0.152 C 
HETATM   23  C3  UNL     1      20.789   3.404  52.582  1.00  0.00    -0.005 C 
HETATM   24  C2  UNL     1      21.374   3.893  51.516  1.00  0.00    -0.084 C 
HETATM   25  C1  UNL     1      22.015   5.237  51.699  1.00  0.00     0.043 C 
HETATM   26  C21 UNL     1      21.443   3.232  50.186  1.00  0.00     0.058 C 
HETATM   27  C19 UNL     1      21.578   1.716  50.295  1.00  0.00     0.086 C 
HETATM   28  C20 UNL     1      20.431   1.108  49.518  1.00  0.00     0.032 C 
ENDBRANCH   1  21
TORSDOF 5
ENDMDL
MODEL 6
REMARK VINA RESULT:      -8.1      3.155      5.994
REMARK  5 active torsions:
REMARK  status: ('A' for Active; 'I' for Inactive)
REMARK    1  A    between atoms: N1_5  and  C5_6 
REMARK    2  A    between atoms: C10_13  and  N4_14 
REMARK    3  A    between atoms: N4_14  and  C11_15 
REMARK    4  A    between atoms: C11_15  and  C12_16 
REMARK    5  A    between atoms: C15_19  and  O1_20 
ROOT
HETATM    1  C5  UNL     1      24.852   5.115  49.886  1.00  0.00     0.140 A 
HETATM    2  N2  UNL     1      25.793   5.548  49.007  1.00  0.00    -0.224 NA
HETATM    3  C6  UNL     1      26.956   4.939  48.785  1.00  0.00     0.236 A 
HETATM    4  N3  UNL     1      27.261   3.818  49.450  1.00  0.00    -0.241 NA
HETATM    5  C7  UNL     1      26.417   3.291  50.345  1.00  0.00     0.072 A 
HETATM    6  C8  UNL     1      26.650   2.159  51.079  1.00  0.00     0.035 A 
HETATM    7  C9  UNL     1      25.754   1.649  52.009  1.00  0.00     0.031 A 
HETATM    8  C10 UNL     1      24.554   2.347  52.189  1.00  0.00     0.029 A 
HETATM    9  C17 UNL     1      24.342   3.480  51.441  1.00  0.00     0.046 A 
HETATM   10  C18 UNL     1      25.241   3.967  50.525  1.00  0.00     0.041 A 
ENDROOT
BRANCH   8  11
HETATM   11  N4  UNL     1      23.624   1.832  53.145  1.00  0.00    -0.389 N 
HETATM   12  H10 UNL     1      23.921   1.830  54.146  1.00  0.00     0.159 HD
BRANCH  11  13
HETATM   13  C11 UNL     1      22.358   1.356  52.678  1.00  0.00     0.132 C 
BRANCH  13  14
HETATM   14  C12 UNL     1      22.345  -0.146  52.772  1.00  0.00     0.051 A 
HETATM   15  C13 UNL     1      21.004  -0.524  53.339  1.00  0.00    -0.014 A 
HETATM   16  C14 UNL     1      21.166  -1.130  54.509  1.00  0.00     0.033 A 
HETATM   17  C15 UNL     1      22.600  -1.219  54.840  1.00  0.00     0.062 A 
HETATM   18  C16 UNL     1      23.242  -0.655  53.841  1.00  0.00     0.020 A 
BRANCH  17  19
HETATM   19  O1  UNL     1      23.183  -1.779  55.969  1.00  0.00    -0.361 OA
HETATM   20  H16 UNL     1      23.787  -1.271  56.607  1.00  0.00     0.217 HD
ENDBRANCH  17  19
ENDBRANCH  13  14
ENDBRANCH  11  13
ENDBRANCH   8  11
BRANCH   1  21
HETATM   21  N1  UNL     1      23.649   5.871  49.927  1.00  0.00    -0.357 N 
HETATM   22  C4  UNL     1      22.724   5.651  48.790  1.00  0.00     0.152 C 
HETATM   23  C3  UNL     1      21.804   4.587  49.281  1.00  0.00    -0.005 C 
HETATM   24  C2  UNL     1      21.262   5.051  50.381  1.00  0.00    -0.084 C 
HETATM   25  C1  UNL     1      20.288   4.128  51.052  1.00  0.00     0.043 C 
HETATM   26  C21 UNL     1      21.536   6.381  50.987  1.00  0.00     0.058 C 
HETATM   27  C19 UNL     1      22.988   6.813  50.812  1.00  0.00     0.086 C 
HETATM   28  C20 UNL     1      22.974   8.155  50.113  1.00  0.00     0.032 C 
ENDBRANCH   1  21
TORSDOF 5
ENDMDL
MODEL 7
REMARK VINA RESULT:      -8.1      1.760      5.525
REMARK  5 active torsions:
REMARK  status: ('A' for Active; 'I' for Inactive)
REMARK    1  A    between atoms: N1_5  and  C5_6 
REMARK    2  A    between atoms: C10_13  and  N4_14 
REMARK    3  A    between atoms: N4_14  and  C11_15 
REMARK    4  A    between atoms: C11_15  and  C12_16 
REMARK    5  A    between atoms: C15_19  and  O1_20 
ROOT
HETATM    1  C5  UNL     1      24.598  -0.270  54.112  1.00  0.00     0.140 A 
HETATM    2  N2  UNL     1      24.931  -0.987  55.217  1.00  0.00    -0.224 NA
HETATM    3  C6  UNL     1      24.071  -1.694  55.946  1.00  0.00     0.236 A 
HETATM    4  N3  UNL     1      22.777  -1.730  55.606  1.00  0.00    -0.241 NA
HETATM    5  C7  UNL     1      22.322  -1.063  54.538  1.00  0.00     0.072 A 
HETATM    6  C8  UNL     1      21.018  -1.032  54.124  1.00  0.00     0.035 A 
HETATM    7  C9  UNL     1      20.581  -0.316  53.016  1.00  0.00     0.031 A 
HETATM    8  C10 UNL     1      21.544   0.405  52.301  1.00  0.00     0.029 A 
HETATM    9  C17 UNL     1      22.847   0.358  52.736  1.00  0.00     0.046 A 
HETATM   10  C18 UNL     1      23.259  -0.357  53.834  1.00  0.00     0.041 A 
ENDROOT
BRANCH   8  11
HETATM   11  N4  UNL     1      21.107   1.146  51.160  1.00  0.00    -0.389 N 
HETATM   12  H10 UNL     1      20.104   1.435  51.135  1.00  0.00     0.159 HD
BRANCH  11  13
HETATM   13  C11 UNL     1      22.058   1.444  50.133  1.00  0.00     0.132 C 
BRANCH  13  14
HETATM   14  C12 UNL     1      21.923   2.896  49.759  1.00  0.00     0.051 A 
HETATM   15  C13 UNL     1      23.284   3.344  49.299  1.00  0.00    -0.014 A 
HETATM   16  C14 UNL     1      23.739   4.295  50.105  1.00  0.00     0.033 A 
HETATM   17  C15 UNL     1      22.753   4.577  51.166  1.00  0.00     0.062 A 
HETATM   18  C16 UNL     1      21.738   3.771  50.945  1.00  0.00     0.020 A 
BRANCH  17  19
HETATM   19  O1  UNL     1      22.851   5.500  52.198  1.00  0.00    -0.361 OA
HETATM   20  H16 UNL     1      23.041   5.252  53.164  1.00  0.00     0.217 HD
ENDBRANCH  17  19
ENDBRANCH  13  14
ENDBRANCH  11  13
ENDBRANCH   8  11
BRANCH   1  21
HETATM   21  N1  UNL     1      25.676   0.361  53.435  1.00  0.00    -0.357 N 
HETATM   22  C4  UNL     1      26.538   1.220  54.280  1.00  0.00     0.152 C 
HETATM   23  C3  UNL     1      27.638   0.310  54.706  1.00  0.00    -0.005 C 
HETATM   24  C2  UNL     1      28.184  -0.144  53.604  1.00  0.00    -0.084 C 
HETATM   25  C1  UNL     1      29.329  -1.093  53.803  1.00  0.00     0.043 C 
HETATM   26  C21 UNL     1      27.762   0.203  52.221  1.00  0.00     0.058 C 
HETATM   27  C19 UNL     1      26.253   0.391  52.103  1.00  0.00     0.086 C 
HETATM   28  C20 UNL     1      26.018   1.777  51.541  1.00  0.00     0.032 C 
ENDBRANCH   1  21
TORSDOF 5
ENDMDL
MODEL 8
REMARK VINA RESULT:      -7.7      2.944      7.406
REMARK  5 active torsions:
REMARK  status: ('A' for Active; 'I' for Inactive)
REMARK    1  A    between atoms: N1_5  and  C5_6 
REMARK    2  A    between atoms: C10_13  and  N4_14 
REMARK    3  A    between atoms: N4_14  and  C11_15 
REMARK    4  A    between atoms: C11_15  and  C12_16 
REMARK    5  A    between atoms: C15_19  and  O1_20 
ROOT
HETATM    1  C5  UNL     1      25.765   1.502  52.245  1.00  0.00     0.140 A 
HETATM    2  N2  UNL     1      26.780   2.034  51.516  1.00  0.00    -0.224 NA
HETATM    3  C6  UNL     1      26.627   2.954  50.567  1.00  0.00     0.236 A 
HETATM    4  N3  UNL     1      25.406   3.418  50.275  1.00  0.00    -0.241 NA
HETATM    5  C7  UNL     1      24.322   2.971  50.922  1.00  0.00     0.072 A 
HETATM    6  C8  UNL     1      23.037   3.377  50.682  1.00  0.00     0.035 A 
HETATM    7  C9  UNL     1      21.935   2.880  51.366  1.00  0.00     0.031 A 
HETATM    8  C10 UNL     1      22.176   1.912  52.348  1.00  0.00     0.029 A 
HETATM    9  C17 UNL     1      23.474   1.520  52.571  1.00  0.00     0.046 A 
HETATM   10  C18 UNL     1      24.551   2.026  51.884  1.00  0.00     0.041 A 
ENDROOT
BRANCH   8  11
HETATM   11  N4  UNL     1      21.049   1.392  53.058  1.00  0.00    -0.389 N 
HETATM   12  H10 UNL     1      21.222   1.016  54.016  1.00  0.00     0.159 HD
BRANCH  11  13
HETATM   13  C11 UNL     1      19.769   1.418  52.419  1.00  0.00     0.132 C 
BRANCH  13  14
HETATM   14  C12 UNL     1      19.440   0.027  51.944  1.00  0.00     0.051 A 
HETATM   15  C13 UNL     1      18.020   0.072  51.449  1.00  0.00    -0.014 A 
HETATM   16  C14 UNL     1      17.263  -0.733  52.185  1.00  0.00     0.033 A 
HETATM   17  C15 UNL     1      18.078  -1.385  53.226  1.00  0.00     0.062 A 
HETATM   18  C16 UNL     1      19.304  -0.937  53.066  1.00  0.00     0.020 A 
BRANCH  17  19
HETATM   19  O1  UNL     1      17.663  -2.293  54.192  1.00  0.00    -0.361 OA
HETATM   20  H16 UNL     1      16.791  -2.809  54.147  1.00  0.00     0.217 HD
ENDBRANCH  17  19
ENDBRANCH  13  14
ENDBRANCH  11  13
ENDBRANCH   8  11
BRANCH   1  21
HETATM   21  N1  UNL     1      26.145   0.580  53.258  1.00  0.00    -0.357 N 
HETATM   22  C4  UNL     1      26.324  -0.819  52.805  1.00  0.00     0.152 C 
HETATM   23  C3  UNL     1      27.779  -0.910  52.496  1.00  0.00    -0.005 C 
HETATM   24  C2  UNL     1      28.408  -0.576  53.596  1.00  0.00    -0.084 C 
HETATM   25  C1  UNL     1      29.906  -0.599  53.507  1.00  0.00     0.043 C 
HETATM   26  C21 UNL     1      27.764  -0.192  54.880  1.00  0.00     0.058 C 
HETATM   27  C19 UNL     1      26.475   0.596  54.672  1.00  0.00     0.086 C 
HETATM   28  C20 UNL     1      25.375  -0.147  55.399  1.00  0.00     0.032 C 
ENDBRANCH   1  21
TORSDOF 5
ENDMDL
MODEL 9
REMARK VINA RESULT:      -7.6      3.020      6.345
REMARK  5 active torsions:
REMARK  status: ('A' for Active; 'I' for Inactive)
REMARK    1  A    between atoms: N1_5  and  C5_6 
REMARK    2  A    between atoms: C10_13  and  N4_14 
REMARK    3  A    between atoms: N4_14  and  C11_15 
REMARK    4  A    between atoms: C11_15  and  C12_16 
REMARK    5  A    between atoms: C15_19  and  O1_20 
ROOT
HETATM    1  C5  UNL     1      24.817   2.490  51.680  1.00  0.00     0.140 A 
HETATM    2  N2  UNL     1      26.161   2.386  51.518  1.00  0.00    -0.224 NA
HETATM    3  C6  UNL     1      26.913   1.423  52.046  1.00  0.00     0.236 A 
HETATM    4  N3  UNL     1      26.349   0.469  52.796  1.00  0.00    -0.241 NA
HETATM    5  C7  UNL     1      25.031   0.461  53.032  1.00  0.00     0.072 A 
HETATM    6  C8  UNL     1      24.371  -0.464  53.795  1.00  0.00     0.035 A 
HETATM    7  C9  UNL     1      23.003  -0.431  54.028  1.00  0.00     0.031 A 
HETATM    8  C10 UNL     1      22.279   0.614  53.442  1.00  0.00     0.029 A 
HETATM    9  C17 UNL     1      22.963   1.531  52.680  1.00  0.00     0.046 A 
HETATM   10  C18 UNL     1      24.318   1.479  52.460  1.00  0.00     0.041 A 
ENDROOT
BRANCH   8  11
HETATM   11  N4  UNL     1      20.870   0.659  53.675  1.00  0.00    -0.389 N 
HETATM   12  H10 UNL     1      20.535   0.373  54.622  1.00  0.00     0.159 HD
BRANCH  11  13
HETATM   13  C11 UNL     1      20.015   1.088  52.611  1.00  0.00     0.132 C 
BRANCH  13  14
HETATM   14  C12 UNL     1      19.398  -0.127  51.971  1.00  0.00     0.051 A 
HETATM   15  C13 UNL     1      18.428   0.382  50.940  1.00  0.00    -0.014 A 
HETATM   16  C14 UNL     1      17.197   0.001  51.257  1.00  0.00     0.033 A 
HETATM   17  C15 UNL     1      17.213  -0.784  52.505  1.00  0.00     0.062 A 
HETATM   18  C16 UNL     1      18.471  -0.840  52.885  1.00  0.00     0.020 A 
BRANCH  17  19
HETATM   19  O1  UNL     1      16.136  -1.360  53.166  1.00  0.00    -0.361 OA
HETATM   20  H16 UNL     1      15.896  -2.344  53.109  1.00  0.00     0.217 HD
ENDBRANCH  17  19
ENDBRANCH  13  14
ENDBRANCH  11  13
ENDBRANCH   8  11
BRANCH   1  21
HETATM   21  N1  UNL     1      24.188   3.554  50.978  1.00  0.00    -0.357 N 
HETATM   22  C4  UNL     1      24.302   3.492  49.502  1.00  0.00     0.152 C 
HETATM   23  C3  UNL     1      23.060   2.785  49.079  1.00  0.00    -0.005 C 
HETATM   24  C2  UNL     1      22.060   3.489  49.550  1.00  0.00    -0.084 C 
HETATM   25  C1  UNL     1      20.695   2.948  49.237  1.00  0.00     0.043 C 
HETATM   26  C21 UNL     1      22.179   4.742  50.343  1.00  0.00     0.058 C 
HETATM   27  C19 UNL     1      23.386   4.727  51.276  1.00  0.00     0.086 C 
HETATM   28  C20 UNL     1      24.223   5.942  50.941  1.00  0.00     0.032 C 
ENDBRANCH   1  21
TORSDOF 5
ENDMDL
