MODEL 1
REMARK VINA RESULT:      -7.8      0.000      0.000
REMARK  5 active torsions:
REMARK  status: ('A' for Active; 'I' for Inactive)
REMARK    1  A    between atoms: O1_2  and  C2_3 
REMARK    2  A    between atoms: C6_9  and  N3_10 
REMARK    3  A    between atoms: N3_10  and  C8_12 
REMARK    4  A    between atoms: C11_15  and  C12_16 
REMARK    5  A    between atoms: P1_21  and  O2_22 
ROOT
HETATM    1  C2  UNL     1      20.353  -0.573  53.323  1.00  0.00     0.095 A 
HETATM    2  C3  UNL     1      21.001  -1.172  54.289  1.00  0.00     0.072 A 
HETATM    3  C4  UNL     1      22.425  -0.986  54.521  1.00  0.00     0.075 A 
HETATM    4  N1  UNL     1      22.884  -1.696  55.566  1.00  0.00    -0.241 NA
HETATM    5  C5  UNL     1      24.178  -1.650  55.932  1.00  0.00     0.236 A 
HETATM    6  N2  UNL     1      25.019  -0.855  55.208  1.00  0.00    -0.224 NA
HETATM    7  C6  UNL     1      24.555  -0.143  54.159  1.00  0.00     0.140 A 
HETATM    8  C14 UNL     1      23.232  -0.175  53.767  1.00  0.00     0.041 A 
HETATM    9  C15 UNL     1      22.734   0.583  52.650  1.00  0.00     0.050 A 
HETATM   10  P1  UNL     1      21.180   0.537  52.198  1.00  0.00     0.043 P 
HETATM   11  H16 UNL     1      21.030   0.152  50.859  1.00  0.00     0.092 HD
ENDROOT
BRANCH   7  12
HETATM   12  N3  UNL     1      25.499   0.664  53.454  1.00  0.00    -0.358 N 
HETATM   13  C7  UNL     1      25.799   2.094  53.569  1.00  0.00     0.152 C 
BRANCH  12  14
HETATM   14  C8  UNL     1      26.356   0.068  52.429  1.00  0.00     0.132 A 
HETATM   15  C9  UNL     1      26.212  -1.402  52.492  1.00  0.00     0.003 A 
HETATM   16  C10 UNL     1      27.355  -1.991  52.870  1.00  0.00     0.007 A 
HETATM   17  C11 UNL     1      28.333  -0.910  53.079  1.00  0.00    -0.032 A 
HETATM   18  C13 UNL     1      27.784   0.272  52.834  1.00  0.00     0.012 A 
BRANCH  17  19
HETATM   19  C12 UNL     1      29.737  -1.209  53.513  1.00  0.00     0.260 C 
HETATM   20  F1  UNL     1      30.448  -0.049  53.647  1.00  0.00    -0.251 F 
ENDBRANCH  17  19
ENDBRANCH  12  14
ENDBRANCH   7  12
BRANCH  10  21
HETATM   21  O2  UNL     1      20.578   2.120  52.446  1.00  0.00    -0.367 OA
HETATM   22  C16 UNL     1      21.599   3.047  52.194  1.00  0.00     0.207 C 
ENDBRANCH  10  21
BRANCH   1  23
HETATM   23  O1  UNL     1      19.035  -0.627  52.960  1.00  0.00    -0.353 OA
HETATM   24  C1  UNL     1      18.102  -1.607  53.289  1.00  0.00     0.210 C 
ENDBRANCH   1  23
TORSDOF 5
ENDMDL
MODEL 2
REMARK VINA RESULT:      -7.3      1.921      2.594
REMARK  5 active torsions:
REMARK  status: ('A' for Active; 'I' for Inactive)
REMARK    1  A    between atoms: O1_2  and  C2_3 
REMARK    2  A    between atoms: C6_9  and  N3_10 
REMARK    3  A    between atoms: N3_10  and  C8_12 
REMARK    4  A    between atoms: C11_15  and  C12_16 
REMARK    5  A    between atoms: P1_21  and  O2_22 
ROOT
HETATM    1  C2  UNL     1      20.976   1.610  50.375  1.00  0.00     0.095 A 
HETATM    2  C3  UNL     1      20.860   0.722  51.330  1.00  0.00     0.072 A 
HETATM    3  C4  UNL     1      21.959   0.361  52.212  1.00  0.00     0.075 A 
HETATM    4  N1  UNL     1      21.619  -0.571  53.119  1.00  0.00    -0.241 NA
HETATM    5  C5  UNL     1      22.507  -1.029  54.021  1.00  0.00     0.236 A 
HETATM    6  N2  UNL     1      23.772  -0.517  53.990  1.00  0.00    -0.224 NA
HETATM    7  C6  UNL     1      24.110   0.419  53.077  1.00  0.00     0.140 A 
HETATM    8  C14 UNL     1      23.216   0.903  52.144  1.00  0.00     0.041 A 
HETATM    9  C15 UNL     1      23.572   1.901  51.170  1.00  0.00     0.050 A 
HETATM   10  P1  UNL     1      22.515   2.461  50.080  1.00  0.00     0.043 P 
HETATM   11  H16 UNL     1      22.974   2.295  48.765  1.00  0.00     0.092 HD
ENDROOT
BRANCH   7  12
HETATM   12  N3  UNL     1      25.452   0.903  53.111  1.00  0.00    -0.358 N 
HETATM   13  C7  UNL     1      26.059   1.965  53.919  1.00  0.00     0.152 C 
BRANCH  12  14
HETATM   14  C8  UNL     1      26.469   0.315  52.238  1.00  0.00     0.132 A 
HETATM   15  C9  UNL     1      26.328  -1.156  52.277  1.00  0.00     0.003 A 
HETATM   16  C10 UNL     1      27.397  -1.738  52.834  1.00  0.00     0.007 A 
HETATM   17  C11 UNL     1      28.321  -0.650  53.200  1.00  0.00    -0.032 A 
HETATM   18  C13 UNL     1      27.811   0.528  52.870  1.00  0.00     0.012 A 
BRANCH  17  19
HETATM   19  C12 UNL     1      29.638  -0.941  53.856  1.00  0.00     0.260 C 
HETATM   20  F1  UNL     1      30.570  -0.015  53.476  1.00  0.00    -0.251 F 
ENDBRANCH  17  19
ENDBRANCH  12  14
ENDBRANCH   7  12
BRANCH  10  21
HETATM   21  O2  UNL     1      22.306   4.119  50.446  1.00  0.00    -0.367 OA
HETATM   22  C16 UNL     1      21.776   4.244  51.737  1.00  0.00     0.207 C 
ENDBRANCH  10  21
BRANCH   1  23
HETATM   23  O1  UNL     1      20.065   2.069  49.463  1.00  0.00    -0.353 OA
HETATM   24  C1  UNL     1      20.306   2.489  48.158  1.00  0.00     0.210 C 
ENDBRANCH   1  23
TORSDOF 5
ENDMDL
MODEL 3
REMARK VINA RESULT:      -7.1      2.136      3.375
REMARK  5 active torsions:
REMARK  status: ('A' for Active; 'I' for Inactive)
REMARK    1  A    between atoms: O1_2  and  C2_3 
REMARK    2  A    between atoms: C6_9  and  N3_10 
REMARK    3  A    between atoms: N3_10  and  C8_12 
REMARK    4  A    between atoms: C11_15  and  C12_16 
REMARK    5  A    between atoms: P1_21  and  O2_22 
ROOT
HETATM    1  C2  UNL     1      19.846  -0.181  53.074  1.00  0.00     0.095 A 
HETATM    2  C3  UNL     1      20.019   0.257  51.853  1.00  0.00     0.072 A 
HETATM    3  C4  UNL     1      21.270   0.841  51.392  1.00  0.00     0.075 A 
HETATM    4  N1  UNL     1      21.227   1.224  50.104  1.00  0.00    -0.241 NA
HETATM    5  C5  UNL     1      22.293   1.785  49.504  1.00  0.00     0.236 A 
HETATM    6  N2  UNL     1      23.427   1.955  50.243  1.00  0.00    -0.224 NA
HETATM    7  C6  UNL     1      23.467   1.569  51.536  1.00  0.00     0.140 A 
HETATM    8  C14 UNL     1      22.387   0.992  52.172  1.00  0.00     0.041 A 
HETATM    9  C15 UNL     1      22.426   0.578  53.550  1.00  0.00     0.050 A 
HETATM   10  P1  UNL     1      21.152  -0.097  54.286  1.00  0.00     0.043 P 
HETATM   11  H16 UNL     1      20.770   0.608  55.436  1.00  0.00     0.092 HD
ENDROOT
BRANCH   7  12
HETATM   12  N3  UNL     1      24.691   1.782  52.240  1.00  0.00    -0.358 N 
HETATM   13  C7  UNL     1      24.977   2.600  53.422  1.00  0.00     0.152 C 
BRANCH  12  14
HETATM   14  C8  UNL     1      25.920   1.124  51.794  1.00  0.00     0.132 A 
HETATM   15  C9  UNL     1      25.936  -0.254  52.327  1.00  0.00     0.003 A 
HETATM   16  C10 UNL     1      26.929  -0.429  53.208  1.00  0.00     0.007 A 
HETATM   17  C11 UNL     1      27.636   0.860  53.301  1.00  0.00    -0.032 A 
HETATM   18  C13 UNL     1      27.077   1.760  52.505  1.00  0.00     0.012 A 
BRANCH  17  19
HETATM   19  C12 UNL     1      28.818   1.031  54.208  1.00  0.00     0.260 C 
HETATM   20  F1  UNL     1      28.667   0.265  55.331  1.00  0.00    -0.251 F 
ENDBRANCH  17  19
ENDBRANCH  12  14
ENDBRANCH   7  12
BRANCH  10  21
HETATM   21  O2  UNL     1      21.636  -1.690  54.683  1.00  0.00    -0.367 OA
HETATM   22  C16 UNL     1      22.877  -1.646  55.332  1.00  0.00     0.207 C 
ENDBRANCH  10  21
BRANCH   1  23
HETATM   23  O1  UNL     1      18.756  -0.751  53.674  1.00  0.00    -0.353 OA
HETATM   24  C1  UNL     1      17.796  -1.573  53.089  1.00  0.00     0.210 C 
ENDBRANCH   1  23
TORSDOF 5
ENDMDL
MODEL 4
REMARK VINA RESULT:      -7.1      3.945      6.071
REMARK  5 active torsions:
REMARK  status: ('A' for Active; 'I' for Inactive)
REMARK    1  A    between atoms: O1_2  and  C2_3 
REMARK    2  A    between atoms: C6_9  and  N3_10 
REMARK    3  A    between atoms: N3_10  and  C8_12 
REMARK    4  A    between atoms: C11_15  and  C12_16 
REMARK    5  A    between atoms: P1_21  and  O2_22 
ROOT
HETATM    1  C2  UNL     1      26.084   0.057  53.851  1.00  0.00     0.095 A 
HETATM    2  C3  UNL     1      24.918  -0.500  53.644  1.00  0.00     0.072 A 
HETATM    3  C4  UNL     1      23.775   0.231  53.116  1.00  0.00     0.075 A 
HETATM    4  N1  UNL     1      22.679  -0.535  52.984  1.00  0.00    -0.241 NA
HETATM    5  C5  UNL     1      21.525  -0.031  52.510  1.00  0.00     0.236 A 
HETATM    6  N2  UNL     1      21.497   1.288  52.164  1.00  0.00    -0.224 NA
HETATM    7  C6  UNL     1      22.601   2.054  52.298  1.00  0.00     0.140 A 
HETATM    8  C14 UNL     1      23.794   1.559  52.781  1.00  0.00     0.041 A 
HETATM    9  C15 UNL     1      24.972   2.373  52.925  1.00  0.00     0.050 A 
HETATM   10  P1  UNL     1      26.368   1.781  53.494  1.00  0.00     0.043 P 
HETATM   11  H16 UNL     1      26.826   2.490  54.613  1.00  0.00     0.092 HD
ENDROOT
BRANCH   7  12
HETATM   12  N3  UNL     1      22.490   3.425  51.914  1.00  0.00    -0.358 N 
HETATM   13  C7  UNL     1      22.467   4.642  52.731  1.00  0.00     0.152 C 
BRANCH  12  14
HETATM   14  C8  UNL     1      22.374   3.787  50.501  1.00  0.00     0.132 A 
HETATM   15  C9  UNL     1      23.096   2.779  49.696  1.00  0.00     0.003 A 
HETATM   16  C10 UNL     1      24.158   3.313  49.079  1.00  0.00     0.007 A 
HETATM   17  C11 UNL     1      24.188   4.737  49.455  1.00  0.00    -0.032 A 
HETATM   18  C13 UNL     1      23.180   5.028  50.266  1.00  0.00     0.012 A 
BRANCH  17  19
HETATM   19  C12 UNL     1      25.257   5.651  48.938  1.00  0.00     0.260 C 
HETATM   20  F1  UNL     1      26.376   4.934  48.613  1.00  0.00    -0.251 F 
ENDBRANCH  17  19
ENDBRANCH  12  14
ENDBRANCH   7  12
BRANCH  10  21
HETATM   21  O2  UNL     1      27.483   1.898  52.201  1.00  0.00    -0.367 OA
HETATM   22  C16 UNL     1      26.884   2.583  51.135  1.00  0.00     0.207 C 
ENDBRANCH  10  21
BRANCH   1  23
HETATM   23  O1  UNL     1      27.253  -0.467  54.333  1.00  0.00    -0.353 OA
HETATM   24  C1  UNL     1      28.285   0.210  54.979  1.00  0.00     0.210 C 
ENDBRANCH   1  23
TORSDOF 5
ENDMDL
MODEL 5
REMARK VINA RESULT:      -6.9      4.338      7.344
REMARK  5 active torsions:
REMARK  status: ('A' for Active; 'I' for Inactive)
REMARK    1  A    between atoms: O1_2  and  C2_3 
REMARK    2  A    between atoms: C6_9  and  N3_10 
REMARK    3  A    between atoms: N3_10  and  C8_12 
REMARK    4  A    between atoms: C11_15  and  C12_16 
REMARK    5  A    between atoms: P1_21  and  O2_22 
ROOT
HETATM    1  C2  UNL     1      27.384  -0.122  53.186  1.00  0.00     0.095 A 
HETATM    2  C3  UNL     1      27.543   0.924  52.415  1.00  0.00     0.072 A 
HETATM    3  C4  UNL     1      26.425   1.651  51.830  1.00  0.00     0.075 A 
HETATM    4  N1  UNL     1      26.816   2.691  51.073  1.00  0.00    -0.241 NA
HETATM    5  C5  UNL     1      25.921   3.480  50.451  1.00  0.00     0.236 A 
HETATM    6  N2  UNL     1      24.596   3.195  50.611  1.00  0.00    -0.224 NA
HETATM    7  C6  UNL     1      24.208   2.150  51.373  1.00  0.00     0.140 A 
HETATM    8  C14 UNL     1      25.108   1.328  52.020  1.00  0.00     0.041 A 
HETATM    9  C15 UNL     1      24.698   0.213  52.832  1.00  0.00     0.050 A 
HETATM   10  P1  UNL     1      25.762  -0.745  53.586  1.00  0.00     0.043 P 
HETATM   11  H16 UNL     1      25.605  -2.092  53.232  1.00  0.00     0.092 HD
ENDROOT
BRANCH   7  12
HETATM   12  N3  UNL     1      22.804   1.918  51.490  1.00  0.00    -0.358 N 
HETATM   13  C7  UNL     1      21.799   2.579  52.328  1.00  0.00     0.152 C 
BRANCH  12  14
HETATM   14  C8  UNL     1      22.161   0.876  50.689  1.00  0.00     0.132 A 
HETATM   15  C9  UNL     1      21.985   1.382  49.312  1.00  0.00     0.003 A 
HETATM   16  C10 UNL     1      20.690   1.516  49.000  1.00  0.00     0.007 A 
HETATM   17  C11 UNL     1      19.927   1.093  50.187  1.00  0.00    -0.032 A 
HETATM   18  C13 UNL     1      20.746   0.725  51.162  1.00  0.00     0.012 A 
BRANCH  17  19
HETATM   19  C12 UNL     1      18.428   1.115  50.192  1.00  0.00     0.260 C 
HETATM   20  F1  UNL     1      17.937  -0.156  50.074  1.00  0.00    -0.251 F 
ENDBRANCH  17  19
ENDBRANCH  12  14
ENDBRANCH   7  12
BRANCH  10  21
HETATM   21  O2  UNL     1      25.485  -0.521  55.260  1.00  0.00    -0.367 OA
HETATM   22  C16 UNL     1      24.382  -1.291  55.652  1.00  0.00     0.207 C 
ENDBRANCH  10  21
BRANCH   1  23
HETATM   23  O1  UNL     1      28.304  -0.917  53.815  1.00  0.00    -0.353 OA
HETATM   24  C1  UNL     1      29.688  -0.898  53.666  1.00  0.00     0.210 C 
ENDBRANCH   1  23
TORSDOF 5
ENDMDL
MODEL 6
REMARK VINA RESULT:      -6.7      3.708      6.124
REMARK  5 active torsions:
REMARK  status: ('A' for Active; 'I' for Inactive)
REMARK    1  A    between atoms: O1_2  and  C2_3 
REMARK    2  A    between atoms: C6_9  and  N3_10 
REMARK    3  A    between atoms: N3_10  and  C8_12 
REMARK    4  A    between atoms: C11_15  and  C12_16 
REMARK    5  A    between atoms: P1_21  and  O2_22 
ROOT
HETATM    1  C2  UNL     1      25.364  -0.222  54.095  1.00  0.00     0.095 A 
HETATM    2  C3  UNL     1      24.243  -0.852  54.339  1.00  0.00     0.072 A 
HETATM    3  C4  UNL     1      22.950  -0.376  53.869  1.00  0.00     0.075 A 
HETATM    4  N1  UNL     1      21.933  -1.175  54.233  1.00  0.00    -0.241 NA
HETATM    5  C5  UNL     1      20.663  -0.895  53.888  1.00  0.00     0.236 A 
HETATM    6  N2  UNL     1      20.433   0.231  53.153  1.00  0.00    -0.224 NA
HETATM    7  C6  UNL     1      21.457   1.032  52.789  1.00  0.00     0.140 A 
HETATM    8  C14 UNL     1      22.767   0.764  53.131  1.00  0.00     0.041 A 
HETATM    9  C15 UNL     1      23.861   1.615  52.745  1.00  0.00     0.050 A 
HETATM   10  P1  UNL     1      25.394   1.292  53.152  1.00  0.00     0.043 P 
HETATM   11  H16 UNL     1      25.989   2.349  53.856  1.00  0.00     0.092 HD
ENDROOT
BRANCH   7  12
HETATM   12  N3  UNL     1      21.134   2.191  52.021  1.00  0.00    -0.358 N 
HETATM   13  C7  UNL     1      21.222   3.613  52.364  1.00  0.00     0.152 C 
BRANCH  12  14
HETATM   14  C8  UNL     1      20.622   2.051  50.657  1.00  0.00     0.132 A 
HETATM   15  C9  UNL     1      21.431   1.033  49.954  1.00  0.00     0.003 A 
HETATM   16  C10 UNL     1      22.128   1.572  48.945  1.00  0.00     0.007 A 
HETATM   17  C11 UNL     1      21.805   3.009  48.933  1.00  0.00    -0.032 A 
HETATM   18  C13 UNL     1      20.949   3.303  49.902  1.00  0.00     0.012 A 
BRANCH  17  19
HETATM   19  C12 UNL     1      22.416   3.931  47.922  1.00  0.00     0.260 C 
HETATM   20  F1  UNL     1      23.600   4.429  48.391  1.00  0.00    -0.251 F 
ENDBRANCH  17  19
ENDBRANCH  12  14
ENDBRANCH   7  12
BRANCH  10  21
HETATM   21  O2  UNL     1      26.215   1.005  51.678  1.00  0.00    -0.367 OA
HETATM   22  C16 UNL     1      26.577   2.231  51.105  1.00  0.00     0.207 C 
ENDBRANCH  10  21
BRANCH   1  23
HETATM   23  O1  UNL     1      26.652  -0.517  54.451  1.00  0.00    -0.353 OA
HETATM   24  C1  UNL     1      27.701   0.375  54.662  1.00  0.00     0.210 C 
ENDBRANCH   1  23
TORSDOF 5
ENDMDL
MODEL 7
REMARK VINA RESULT:      -6.5      2.437      3.122
REMARK  5 active torsions:
REMARK  status: ('A' for Active; 'I' for Inactive)
REMARK    1  A    between atoms: O1_2  and  C2_3 
REMARK    2  A    between atoms: C6_9  and  N3_10 
REMARK    3  A    between atoms: N3_10  and  C8_12 
REMARK    4  A    between atoms: C11_15  and  C12_16 
REMARK    5  A    between atoms: P1_21  and  O2_22 
ROOT
HETATM    1  C2  UNL     1      18.958  -0.199  52.642  1.00  0.00     0.095 A 
HETATM    2  C3  UNL     1      19.670  -0.868  53.514  1.00  0.00     0.072 A 
HETATM    3  C4  UNL     1      21.077  -0.592  53.764  1.00  0.00     0.075 A 
HETATM    4  N1  UNL     1      21.611  -1.398  54.698  1.00  0.00    -0.241 NA
HETATM    5  C5  UNL     1      22.902  -1.290  55.062  1.00  0.00     0.236 A 
HETATM    6  N2  UNL     1      23.660  -0.334  54.453  1.00  0.00    -0.224 NA
HETATM    7  C6  UNL     1      23.120   0.474  53.515  1.00  0.00     0.140 A 
HETATM    8  C14 UNL     1      21.799   0.382  53.127  1.00  0.00     0.041 A 
HETATM    9  C15 UNL     1      21.221   1.241  52.128  1.00  0.00     0.050 A 
HETATM   10  P1  UNL     1      19.670   1.123  51.680  1.00  0.00     0.043 P 
HETATM   11  H16 UNL     1      19.532   0.915  50.300  1.00  0.00     0.092 HD
ENDROOT
BRANCH   7  12
HETATM   12  N3  UNL     1      23.980   1.449  52.925  1.00  0.00    -0.358 N 
HETATM   13  C7  UNL     1      24.340   2.796  53.378  1.00  0.00     0.152 C 
BRANCH  12  14
HETATM   14  C8  UNL     1      24.664   1.161  51.664  1.00  0.00     0.132 A 
HETATM   15  C9  UNL     1      26.120   1.114  51.918  1.00  0.00     0.003 A 
HETATM   16  C10 UNL     1      26.759   2.109  51.289  1.00  0.00     0.007 A 
HETATM   17  C11 UNL     1      25.730   2.880  50.571  1.00  0.00    -0.032 A 
HETATM   18  C13 UNL     1      24.529   2.357  50.772  1.00  0.00     0.012 A 
BRANCH  17  19
HETATM   19  C12 UNL     1      26.095   4.080  49.750  1.00  0.00     0.260 C 
HETATM   20  F1  UNL     1      27.210   3.820  49.002  1.00  0.00    -0.251 F 
ENDBRANCH  17  19
ENDBRANCH  12  14
ENDBRANCH   7  12
BRANCH  10  21
HETATM   21  O2  UNL     1      18.938   2.598  52.147  1.00  0.00    -0.367 OA
HETATM   22  C16 UNL     1      19.795   3.660  51.828  1.00  0.00     0.207 C 
ENDBRANCH  10  21
BRANCH   1  23
HETATM   23  O1  UNL     1      17.643  -0.317  52.281  1.00  0.00    -0.353 OA
HETATM   24  C1  UNL     1      16.709  -1.231  52.761  1.00  0.00     0.210 C 
ENDBRANCH   1  23
TORSDOF 5
ENDMDL
MODEL 8
REMARK VINA RESULT:      -6.5      3.515      4.565
REMARK  5 active torsions:
REMARK  status: ('A' for Active; 'I' for Inactive)
REMARK    1  A    between atoms: O1_2  and  C2_3 
REMARK    2  A    between atoms: C6_9  and  N3_10 
REMARK    3  A    between atoms: N3_10  and  C8_12 
REMARK    4  A    between atoms: C11_15  and  C12_16 
REMARK    5  A    between atoms: P1_21  and  O2_22 
ROOT
HETATM    1  C2  UNL     1      20.094   0.202  52.359  1.00  0.00     0.095 A 
HETATM    2  C3  UNL     1      21.235  -0.180  52.874  1.00  0.00     0.072 A 
HETATM    3  C4  UNL     1      22.475   0.558  52.683  1.00  0.00     0.075 A 
HETATM    4  N1  UNL     1      23.524  -0.012  53.300  1.00  0.00    -0.241 NA
HETATM    5  C5  UNL     1      24.755   0.530  53.235  1.00  0.00     0.236 A 
HETATM    6  N2  UNL     1      24.909   1.682  52.521  1.00  0.00    -0.224 NA
HETATM    7  C6  UNL     1      23.853   2.252  51.904  1.00  0.00     0.140 A 
HETATM    8  C14 UNL     1      22.583   1.715  51.957  1.00  0.00     0.041 A 
HETATM    9  C15 UNL     1      21.455   2.320  51.300  1.00  0.00     0.050 A 
HETATM   10  P1  UNL     1      19.969   1.680  51.369  1.00  0.00     0.043 P 
HETATM   11  H16 UNL     1      19.443   1.427  50.094  1.00  0.00     0.092 HD
ENDROOT
BRANCH   7  12
HETATM   12  N3  UNL     1      24.098   3.457  51.177  1.00  0.00    -0.358 N 
HETATM   13  C7  UNL     1      23.904   4.857  51.566  1.00  0.00     0.152 C 
BRANCH  12  14
HETATM   14  C8  UNL     1      24.629   3.399  49.815  1.00  0.00     0.132 A 
HETATM   15  C9  UNL     1      26.031   2.935  49.875  1.00  0.00     0.003 A 
HETATM   16  C10 UNL     1      26.881   3.889  49.474  1.00  0.00     0.007 A 
HETATM   17  C11 UNL     1      26.060   5.059  49.120  1.00  0.00    -0.032 A 
HETATM   18  C13 UNL     1      24.773   4.802  49.307  1.00  0.00     0.012 A 
BRANCH  17  19
HETATM   19  C12 UNL     1      26.691   6.326  48.624  1.00  0.00     0.260 C 
HETATM   20  F1  UNL     1      27.741   6.038  47.797  1.00  0.00    -0.251 F 
ENDBRANCH  17  19
ENDBRANCH  12  14
ENDBRANCH   7  12
BRANCH  10  21
HETATM   21  O2  UNL     1      19.010   2.823  52.206  1.00  0.00    -0.367 OA
HETATM   22  C16 UNL     1      18.270   3.572  51.280  1.00  0.00     0.207 C 
ENDBRANCH  10  21
BRANCH   1  23
HETATM   23  O1  UNL     1      18.847  -0.357  52.432  1.00  0.00    -0.353 OA
HETATM   24  C1  UNL     1      18.378  -1.267  53.376  1.00  0.00     0.210 C 
ENDBRANCH   1  23
TORSDOF 5
ENDMDL
MODEL 9
REMARK VINA RESULT:      -6.5      4.034      6.872
REMARK  5 active torsions:
REMARK  status: ('A' for Active; 'I' for Inactive)
REMARK    1  A    between atoms: O1_2  and  C2_3 
REMARK    2  A    between atoms: C6_9  and  N3_10 
REMARK    3  A    between atoms: N3_10  and  C8_12 
REMARK    4  A    between atoms: C11_15  and  C12_16 
REMARK    5  A    between atoms: P1_21  and  O2_22 
ROOT
HETATM    1  C2  UNL     1      26.346   0.537  54.372  1.00  0.00     0.095 A 
HETATM    2  C3  UNL     1      25.380  -0.345  54.318  1.00  0.00     0.072 A 
HETATM    3  C4  UNL     1      24.135  -0.110  53.602  1.00  0.00     0.075 A 
HETATM    4  N1  UNL     1      23.283  -1.147  53.678  1.00  0.00    -0.241 NA
HETATM    5  C5  UNL     1      22.080  -1.112  53.077  1.00  0.00     0.236 A 
HETATM    6  N2  UNL     1      21.745   0.014  52.383  1.00  0.00    -0.224 NA
HETATM    7  C6  UNL     1      22.603   1.054  52.309  1.00  0.00     0.140 A 
HETATM    8  C14 UNL     1      23.841   1.040  52.917  1.00  0.00     0.041 A 
HETATM    9  C15 UNL     1      24.758   2.146  52.841  1.00  0.00     0.050 A 
HETATM   10  P1  UNL     1      26.209   2.118  53.559  1.00  0.00     0.043 P 
HETATM   11  H16 UNL     1      26.382   3.191  54.444  1.00  0.00     0.092 HD
ENDROOT
BRANCH   7  12
HETATM   12  N3  UNL     1      22.177   2.196  51.564  1.00  0.00    -0.358 N 
HETATM   13  C7  UNL     1      22.319   2.507  50.139  1.00  0.00     0.152 C 
BRANCH  12  14
HETATM   14  C8  UNL     1      21.474   3.291  52.233  1.00  0.00     0.132 A 
HETATM   15  C9  UNL     1      20.076   3.314  51.757  1.00  0.00     0.003 A 
HETATM   16  C10 UNL     1      19.811   4.429  51.064  1.00  0.00     0.007 A 
HETATM   17  C11 UNL     1      21.055   5.217  51.050  1.00  0.00    -0.032 A 
HETATM   18  C13 UNL     1      22.016   4.586  51.710  1.00  0.00     0.012 A 
BRANCH  17  19
HETATM   19  C12 UNL     1      21.123   6.543  50.353  1.00  0.00     0.260 C 
HETATM   20  F1  UNL     1      21.522   7.516  51.227  1.00  0.00    -0.251 F 
ENDBRANCH  17  19
ENDBRANCH  12  14
ENDBRANCH   7  12
BRANCH  10  21
HETATM   21  O2  UNL     1      27.356   2.186  52.290  1.00  0.00    -0.367 OA
HETATM   22  C16 UNL     1      26.683   2.260  51.063  1.00  0.00     0.207 C 
ENDBRANCH  10  21
BRANCH   1  23
HETATM   23  O1  UNL     1      27.568   0.489  54.986  1.00  0.00    -0.353 OA
HETATM   24  C1  UNL     1      28.706  -0.194  54.564  1.00  0.00     0.210 C 
ENDBRANCH   1  23
TORSDOF 5
ENDMDL
