MODEL 1
REMARK VINA RESULT:      -8.8      0.000      0.000
REMARK  5 active torsions:
REMARK  status: ('A' for Active; 'I' for Inactive)
REMARK    1  A    between atoms: C3_5  and  C4_6 
REMARK    2  A    between atoms: C5_7  and  N1_8 
REMARK    3  A    between atoms: C6_9  and  N2_10 
REMARK    4  A    between atoms: C7_11  and  N3_12 
REMARK    5  A    between atoms: N3_12  and  C8_13 
ROOT
HETATM    1  O1  UNL     1      23.550   5.162  52.667  1.00  0.00    -0.293 OA
HETATM    2  C1  UNL     1      23.664   4.654  51.556  1.00  0.00     0.184 C 
HETATM    3  C2  UNL     1      22.887   3.385  51.656  1.00  0.00     0.256 C 
HETATM    4  O2  UNL     1      22.893   2.617  50.491  1.00  0.00    -0.342 OA
HETATM    5  C3  UNL     1      22.010   1.642  50.114  1.00  0.00     0.085 C 
HETATM    6  C14 UNL     1      21.978   1.586  48.791  1.00  0.00     0.120 C 
HETATM    7  N4  UNL     1      22.559   2.207  47.667  1.00  0.00    -0.397 N 
HETATM    8  C15 UNL     1      21.855   3.385  47.122  1.00  0.00     0.121 C 
HETATM    9  C16 UNL     1      21.971   4.511  48.150  1.00  0.00     0.050 C 
HETATM   10  C17 UNL     1      23.415   4.830  48.371  1.00  0.00     0.275 C 
HETATM   11  N5  UNL     1      23.692   5.789  49.369  1.00  0.00     0.100 N 
HETATM   12  C18 UNL     1      24.420   6.899  48.804  1.00  0.00     0.273 C 
HETATM   13  C19 UNL     1      25.856   6.595  48.521  1.00  0.00     0.030 C 
HETATM   14  C20 UNL     1      26.306   5.221  48.872  1.00  0.00     0.004 C 
HETATM   15  C21 UNL     1      25.637   4.572  50.019  1.00  0.00     0.044 C 
HETATM   16  C22 UNL     1      24.451   5.343  50.507  1.00  0.00     0.294 C 
HETATM   17  H14 UNL     1      23.454   1.857  47.226  1.00  0.00     0.158 HD
ENDROOT
BRANCH   5  18
HETATM   18  C4  UNL     1      21.124   0.681  50.734  1.00  0.00     0.057 C 
HETATM   19  C5  UNL     1      21.591   0.107  51.795  1.00  0.00     0.120 C 
BRANCH  19  20
HETATM   20  N1  UNL     1      21.601  -0.750  52.903  1.00  0.00    -0.254 NA
HETATM   21  C6  UNL     1      22.467  -0.701  53.861  1.00  0.00     0.233 C 
BRANCH  21  22
HETATM   22  N2  UNL     1      23.251   0.377  53.405  1.00  0.00    -0.237 NA
HETATM   23  C7  UNL     1      24.514   0.425  53.281  1.00  0.00     0.208 C 
BRANCH  23  24
HETATM   24  N3  UNL     1      25.308  -0.698  53.622  1.00  0.00    -0.351 N 
HETATM   25  H7  UNL     1      24.838  -1.636  53.738  1.00  0.00     0.166 HD
BRANCH  24  26
HETATM   26  C8  UNL     1      26.707  -0.569  53.787  1.00  0.00     0.032 A 
HETATM   27  C9  UNL     1      27.395   0.267  54.618  1.00  0.00     0.029 A 
HETATM   28  C10 UNL     1      28.766   0.320  54.742  1.00  0.00     0.002 A 
HETATM   29  C11 UNL     1      29.537  -0.527  53.975  1.00  0.00     0.000 A 
HETATM   30  C12 UNL     1      28.897  -1.393  53.116  1.00  0.00     0.002 A 
HETATM   31  C13 UNL     1      27.525  -1.405  53.033  1.00  0.00     0.029 A 
ENDBRANCH  24  26
ENDBRANCH  23  24
ENDBRANCH  21  22
ENDBRANCH  19  20
ENDBRANCH   5  18
TORSDOF 5
ENDMDL
MODEL 2
REMARK VINA RESULT:      -8.5      2.197      3.071
REMARK  5 active torsions:
REMARK  status: ('A' for Active; 'I' for Inactive)
REMARK    1  A    between atoms: C3_5  and  C4_6 
REMARK    2  A    between atoms: C5_7  and  N1_8 
REMARK    3  A    between atoms: C6_9  and  N2_10 
REMARK    4  A    between atoms: C7_11  and  N3_12 
REMARK    5  A    between atoms: N3_12  and  C8_13 
ROOT
HETATM    1  O1  UNL     1      23.482   4.205  51.777  1.00  0.00    -0.293 OA
HETATM    2  C1  UNL     1      22.702   3.411  51.262  1.00  0.00     0.184 C 
HETATM    3  C2  UNL     1      22.340   2.484  52.372  1.00  0.00     0.256 C 
HETATM    4  O2  UNL     1      21.459   1.466  52.006  1.00  0.00    -0.342 OA
HETATM    5  C3  UNL     1      20.648   0.714  52.812  1.00  0.00     0.085 C 
HETATM    6  C14 UNL     1      19.596   0.323  52.110  1.00  0.00     0.120 C 
HETATM    7  N4  UNL     1      19.056   0.436  50.813  1.00  0.00    -0.397 N 
HETATM    8  C15 UNL     1      18.151   1.577  50.568  1.00  0.00     0.121 C 
HETATM    9  C16 UNL     1      18.989   2.855  50.632  1.00  0.00     0.050 C 
HETATM   10  C17 UNL     1      20.049   2.803  49.579  1.00  0.00     0.275 C 
HETATM   11  N5  UNL     1      20.969   3.873  49.572  1.00  0.00     0.100 N 
HETATM   12  C18 UNL     1      20.941   4.545  48.295  1.00  0.00     0.273 C 
HETATM   13  C19 UNL     1      21.623   3.787  47.202  1.00  0.00     0.030 C 
HETATM   14  C20 UNL     1      22.226   2.485  47.598  1.00  0.00     0.004 C 
HETATM   15  C21 UNL     1      22.729   2.376  48.983  1.00  0.00     0.044 C 
HETATM   16  C22 UNL     1      22.347   3.549  49.830  1.00  0.00     0.294 C 
HETATM   17  H14 UNL     1      19.280  -0.254  50.044  1.00  0.00     0.158 HD
ENDROOT
BRANCH   5  18
HETATM   18  C4  UNL     1      20.615   0.239  54.178  1.00  0.00     0.057 C 
HETATM   19  C5  UNL     1      21.624  -0.490  54.531  1.00  0.00     0.120 C 
BRANCH  19  20
HETATM   20  N1  UNL     1      22.421  -1.271  55.378  1.00  0.00    -0.254 NA
HETATM   21  C6  UNL     1      23.707  -1.364  55.296  1.00  0.00     0.233 C 
BRANCH  21  22
HETATM   22  N2  UNL     1      23.928  -0.509  54.198  1.00  0.00    -0.237 NA
HETATM   23  C7  UNL     1      24.974  -0.407  53.486  1.00  0.00     0.208 C 
BRANCH  23  24
HETATM   24  N3  UNL     1      26.105  -1.216  53.760  1.00  0.00    -0.351 N 
HETATM   25  H7  UNL     1      25.958  -2.239  53.975  1.00  0.00     0.166 HD
BRANCH  24  26
HETATM   26  C8  UNL     1      27.409  -0.667  53.728  1.00  0.00     0.032 A 
HETATM   27  C9  UNL     1      27.813   0.594  54.060  1.00  0.00     0.029 A 
HETATM   28  C10 UNL     1      29.111   1.051  54.026  1.00  0.00     0.002 A 
HETATM   29  C11 UNL     1      30.111   0.190  53.627  1.00  0.00     0.000 A 
HETATM   30  C12 UNL     1      29.762  -1.097  53.278  1.00  0.00     0.002 A 
HETATM   31  C13 UNL     1      28.449  -1.501  53.331  1.00  0.00     0.029 A 
ENDBRANCH  24  26
ENDBRANCH  23  24
ENDBRANCH  21  22
ENDBRANCH  19  20
ENDBRANCH   5  18
TORSDOF 5
ENDMDL
MODEL 3
REMARK VINA RESULT:      -8.4      2.014      3.118
REMARK  5 active torsions:
REMARK  status: ('A' for Active; 'I' for Inactive)
REMARK    1  A    between atoms: C3_5  and  C4_6 
REMARK    2  A    between atoms: C5_7  and  N1_8 
REMARK    3  A    between atoms: C6_9  and  N2_10 
REMARK    4  A    between atoms: C7_11  and  N3_12 
REMARK    5  A    between atoms: N3_12  and  C8_13 
ROOT
HETATM    1  O1  UNL     1      27.934   4.717  49.048  1.00  0.00    -0.293 OA
HETATM    2  C1  UNL     1      26.823   5.237  49.022  1.00  0.00     0.184 C 
HETATM    3  C2  UNL     1      25.881   4.085  49.130  1.00  0.00     0.256 C 
HETATM    4  O2  UNL     1      24.533   4.443  49.102  1.00  0.00    -0.342 OA
HETATM    5  C3  UNL     1      23.456   3.728  49.552  1.00  0.00     0.085 C 
HETATM    6  C14 UNL     1      22.499   4.574  49.900  1.00  0.00     0.120 C 
HETATM    7  N4  UNL     1      22.246   5.960  49.953  1.00  0.00    -0.397 N 
HETATM    8  C15 UNL     1      22.607   6.653  51.207  1.00  0.00     0.121 C 
HETATM    9  C16 UNL     1      24.132   6.646  51.317  1.00  0.00     0.050 C 
HETATM   10  C17 UNL     1      24.715   7.367  50.143  1.00  0.00     0.275 C 
HETATM   11  N5  UNL     1      26.123   7.363  50.051  1.00  0.00     0.100 N 
HETATM   12  C18 UNL     1      26.624   8.717  50.039  1.00  0.00     0.273 C 
HETATM   13  C19 UNL     1      26.415   9.424  48.739  1.00  0.00     0.030 C 
HETATM   14  C20 UNL     1      25.745   8.631  47.673  1.00  0.00     0.004 C 
HETATM   15  C21 UNL     1      25.982   7.172  47.678  1.00  0.00     0.044 C 
HETATM   16  C22 UNL     1      26.699   6.708  48.906  1.00  0.00     0.294 C 
HETATM   17  H14 UNL     1      21.820   6.490  49.144  1.00  0.00     0.158 HD
ENDROOT
BRANCH   5  18
HETATM   18  C4  UNL     1      23.077   2.346  49.749  1.00  0.00     0.057 C 
HETATM   19  C5  UNL     1      23.142   1.927  50.971  1.00  0.00     0.120 C 
BRANCH  19  20
HETATM   20  N1  UNL     1      23.037   1.021  52.035  1.00  0.00    -0.254 NA
HETATM   21  C6  UNL     1      23.819   1.003  53.064  1.00  0.00     0.233 C 
BRANCH  21  22
HETATM   22  N2  UNL     1      24.663   2.079  52.727  1.00  0.00    -0.237 NA
HETATM   23  C7  UNL     1      25.803   2.359  53.212  1.00  0.00     0.208 C 
BRANCH  23  24
HETATM   24  N3  UNL     1      26.368   1.540  54.222  1.00  0.00    -0.351 N 
HETATM   25  H7  UNL     1      25.964   1.584  55.197  1.00  0.00     0.166 HD
BRANCH  24  26
HETATM   26  C8  UNL     1      27.440   0.667  53.926  1.00  0.00     0.032 A 
HETATM   27  C9  UNL     1      28.777   0.857  54.128  1.00  0.00     0.029 A 
HETATM   28  C10 UNL     1      29.767  -0.055  53.835  1.00  0.00     0.002 A 
HETATM   29  C11 UNL     1      29.413  -1.270  53.290  1.00  0.00     0.000 A 
HETATM   30  C12 UNL     1      28.076  -1.518  53.062  1.00  0.00     0.002 A 
HETATM   31  C13 UNL     1      27.129  -0.572  53.375  1.00  0.00     0.029 A 
ENDBRANCH  24  26
ENDBRANCH  23  24
ENDBRANCH  21  22
ENDBRANCH  19  20
ENDBRANCH   5  18
TORSDOF 5
ENDMDL
MODEL 4
REMARK VINA RESULT:      -8.3      3.367      5.255
REMARK  5 active torsions:
REMARK  status: ('A' for Active; 'I' for Inactive)
REMARK    1  A    between atoms: C3_5  and  C4_6 
REMARK    2  A    between atoms: C5_7  and  N1_8 
REMARK    3  A    between atoms: C6_9  and  N2_10 
REMARK    4  A    between atoms: C7_11  and  N3_12 
REMARK    5  A    between atoms: N3_12  and  C8_13 
ROOT
HETATM    1  O1  UNL     1      29.668   5.114  48.520  1.00  0.00    -0.293 OA
HETATM    2  C1  UNL     1      28.868   6.016  48.294  1.00  0.00     0.184 C 
HETATM    3  C2  UNL     1      27.535   5.380  48.506  1.00  0.00     0.256 C 
HETATM    4  O2  UNL     1      26.453   6.230  48.281  1.00  0.00    -0.342 OA
HETATM    5  C3  UNL     1      25.168   6.106  48.737  1.00  0.00     0.085 C 
HETATM    6  C14 UNL     1      24.634   7.314  48.836  1.00  0.00     0.120 C 
HETATM    7  N4  UNL     1      24.969   8.667  48.622  1.00  0.00    -0.397 N 
HETATM    8  C15 UNL     1      25.556   9.394  49.766  1.00  0.00     0.121 C 
HETATM    9  C16 UNL     1      26.942   8.804  50.028  1.00  0.00     0.050 C 
HETATM   10  C17 UNL     1      27.792   8.985  48.812  1.00  0.00     0.275 C 
HETATM   11  N5  UNL     1      29.078   8.404  48.863  1.00  0.00     0.100 N 
HETATM   12  C18 UNL     1      30.089   9.415  48.667  1.00  0.00     0.273 C 
HETATM   13  C19 UNL     1      30.214   9.873  47.250  1.00  0.00     0.030 C 
HETATM   14  C20 UNL     1      29.301   9.216  46.276  1.00  0.00     0.004 C 
HETATM   15  C21 UNL     1      28.920   7.816  46.557  1.00  0.00     0.044 C 
HETATM   16  C22 UNL     1      29.359   7.360  47.913  1.00  0.00     0.294 C 
HETATM   17  H14 UNL     1      24.813   9.149  47.695  1.00  0.00     0.158 HD
ENDROOT
BRANCH   5  18
HETATM   18  C4  UNL     1      24.253   5.059  49.133  1.00  0.00     0.057 C 
HETATM   19  C5  UNL     1      24.227   4.800  50.400  1.00  0.00     0.120 C 
BRANCH  19  20
HETATM   20  N1  UNL     1      23.828   4.161  51.581  1.00  0.00    -0.254 NA
HETATM   21  C6  UNL     1      24.464   3.183  52.137  1.00  0.00     0.233 C 
BRANCH  21  22
HETATM   22  N2  UNL     1      25.529   3.055  51.224  1.00  0.00    -0.237 NA
HETATM   23  C7  UNL     1      26.713   2.658  51.456  1.00  0.00     0.208 C 
BRANCH  23  24
HETATM   24  N3  UNL     1      27.094   2.279  52.767  1.00  0.00    -0.351 N 
HETATM   25  H7  UNL     1      26.828   2.905  53.575  1.00  0.00     0.166 HD
BRANCH  24  26
HETATM   26  C8  UNL     1      27.800   1.074  52.993  1.00  0.00     0.032 A 
HETATM   27  C9  UNL     1      29.053   0.903  53.505  1.00  0.00     0.029 A 
HETATM   28  C10 UNL     1      29.669  -0.310  53.719  1.00  0.00     0.002 A 
HETATM   29  C11 UNL     1      28.992  -1.467  53.400  1.00  0.00     0.000 A 
HETATM   30  C12 UNL     1      27.721  -1.356  52.878  1.00  0.00     0.002 A 
HETATM   31  C13 UNL     1      27.153  -0.119  52.685  1.00  0.00     0.029 A 
ENDBRANCH  24  26
ENDBRANCH  23  24
ENDBRANCH  21  22
ENDBRANCH  19  20
ENDBRANCH   5  18
TORSDOF 5
ENDMDL
MODEL 5
REMARK VINA RESULT:      -8.1      6.973     10.933
REMARK  5 active torsions:
REMARK  status: ('A' for Active; 'I' for Inactive)
REMARK    1  A    between atoms: C3_5  and  C4_6 
REMARK    2  A    between atoms: C5_7  and  N1_8 
REMARK    3  A    between atoms: C6_9  and  N2_10 
REMARK    4  A    between atoms: C7_11  and  N3_12 
REMARK    5  A    between atoms: N3_12  and  C8_13 
ROOT
HETATM    1  O1  UNL     1      30.632   4.575  47.748  1.00  0.00    -0.293 OA
HETATM    2  C1  UNL     1      31.638   5.170  47.378  1.00  0.00     0.184 C 
HETATM    3  C2  UNL     1      31.253   6.610  47.445  1.00  0.00     0.256 C 
HETATM    4  O2  UNL     1      32.257   7.491  47.043  1.00  0.00    -0.342 OA
HETATM    5  C3  UNL     1      32.385   8.822  47.335  1.00  0.00     0.085 C 
HETATM    6  C14 UNL     1      33.670   9.142  47.307  1.00  0.00     0.120 C 
HETATM    7  N4  UNL     1      34.928   8.551  47.074  1.00  0.00    -0.397 N 
HETATM    8  C15 UNL     1      35.622   7.985  48.249  1.00  0.00     0.121 C 
HETATM    9  C16 UNL     1      34.825   6.766  48.715  1.00  0.00     0.050 C 
HETATM   10  C17 UNL     1      34.775   5.758  47.612  1.00  0.00     0.275 C 
HETATM   11  N5  UNL     1      33.990   4.611  47.856  1.00  0.00     0.100 N 
HETATM   12  C18 UNL     1      34.799   3.421  47.744  1.00  0.00     0.273 C 
HETATM   13  C19 UNL     1      35.130   3.049  46.335  1.00  0.00     0.030 C 
HETATM   14  C20 UNL     1      34.572   3.942  45.283  1.00  0.00     0.004 C 
HETATM   15  C21 UNL     1      33.280   4.595  45.579  1.00  0.00     0.044 C 
HETATM   16  C22 UNL     1      32.851   4.408  47.000  1.00  0.00     0.294 C 
HETATM   17  H14 UNL     1      35.364   8.507  46.113  1.00  0.00     0.158 HD
ENDROOT
BRANCH   5  18
HETATM   18  C4  UNL     1      31.537   9.948  47.658  1.00  0.00     0.057 C 
HETATM   19  C5  UNL     1      30.595   9.701  48.509  1.00  0.00     0.120 C 
BRANCH  19  20
HETATM   20  N1  UNL     1      29.489   9.968  49.327  1.00  0.00    -0.254 NA
HETATM   21  C6  UNL     1      28.316   9.449  49.168  1.00  0.00     0.233 C 
BRANCH  21  22
HETATM   22  N2  UNL     1      28.572   8.651  48.035  1.00  0.00    -0.237 NA
HETATM   23  C7  UNL     1      27.796   7.814  47.479  1.00  0.00     0.208 C 
BRANCH  23  24
HETATM   24  N3  UNL     1      26.495   7.594  47.997  1.00  0.00    -0.351 N 
HETATM   25  H7  UNL     1      25.792   8.380  47.955  1.00  0.00     0.166 HD
BRANCH  24  26
HETATM   26  C8  UNL     1      26.139   6.338  48.543  1.00  0.00     0.032 A 
HETATM   27  C9  UNL     1      24.909   5.896  48.935  1.00  0.00     0.029 A 
HETATM   28  C10 UNL     1      24.634   4.644  49.439  1.00  0.00     0.002 A 
HETATM   29  C11 UNL     1      25.664   3.738  49.572  1.00  0.00     0.000 A 
HETATM   30  C12 UNL     1      26.929   4.129  49.192  1.00  0.00     0.002 A 
HETATM   31  C13 UNL     1      27.148   5.392  48.695  1.00  0.00     0.029 A 
ENDBRANCH  24  26
ENDBRANCH  23  24
ENDBRANCH  21  22
ENDBRANCH  19  20
ENDBRANCH   5  18
TORSDOF 5
ENDMDL
MODEL 6
REMARK VINA RESULT:      -8.0      2.450      6.670
REMARK  5 active torsions:
REMARK  status: ('A' for Active; 'I' for Inactive)
REMARK    1  A    between atoms: C3_5  and  C4_6 
REMARK    2  A    between atoms: C5_7  and  N1_8 
REMARK    3  A    between atoms: C6_9  and  N2_10 
REMARK    4  A    between atoms: C7_11  and  N3_12 
REMARK    5  A    between atoms: N3_12  and  C8_13 
ROOT
HETATM    1  O1  UNL     1      23.946  -1.441  55.661  1.00  0.00    -0.293 OA
HETATM    2  C1  UNL     1      24.281  -0.865  54.631  1.00  0.00     0.184 C 
HETATM    3  C2  UNL     1      22.988  -0.534  53.964  1.00  0.00     0.256 C 
HETATM    4  O2  UNL     1      23.126   0.121  52.740  1.00  0.00    -0.342 OA
HETATM    5  C3  UNL     1      22.203   0.886  52.079  1.00  0.00     0.085 C 
HETATM    6  C14 UNL     1      22.843   1.773  51.332  1.00  0.00     0.120 C 
HETATM    7  N4  UNL     1      24.157   2.171  51.010  1.00  0.00    -0.397 N 
HETATM    8  C15 UNL     1      24.760   3.216  51.862  1.00  0.00     0.121 C 
HETATM    9  C16 UNL     1      24.987   2.610  53.248  1.00  0.00     0.050 C 
HETATM   10  C17 UNL     1      25.913   1.442  53.131  1.00  0.00     0.275 C 
HETATM   11  N5  UNL     1      26.145   0.715  54.317  1.00  0.00     0.100 N 
HETATM   12  C18 UNL     1      27.555   0.704  54.626  1.00  0.00     0.273 C 
HETATM   13  C19 UNL     1      28.354  -0.213  53.758  1.00  0.00     0.030 C 
HETATM   14  C20 UNL     1      27.582  -0.970  52.735  1.00  0.00     0.004 C 
HETATM   15  C21 UNL     1      26.189  -1.322  53.077  1.00  0.00     0.044 C 
HETATM   16  C22 UNL     1      25.717  -0.659  54.333  1.00  0.00     0.294 C 
HETATM   17  H14 UNL     1      24.694   1.751  50.203  1.00  0.00     0.158 HD
ENDROOT
BRANCH   5  18
HETATM   18  C4  UNL     1      20.765   0.997  51.968  1.00  0.00     0.057 C 
HETATM   19  C5  UNL     1      20.295   2.194  52.106  1.00  0.00     0.120 C 
BRANCH  19  20
HETATM   20  N1  UNL     1      19.323   3.202  52.169  1.00  0.00    -0.254 NA
HETATM   21  C6  UNL     1      19.016   3.988  51.190  1.00  0.00     0.233 C 
BRANCH  21  22
HETATM   22  N2  UNL     1      19.905   3.495  50.214  1.00  0.00    -0.237 NA
HETATM   23  C7  UNL     1      20.952   4.051  49.760  1.00  0.00     0.208 C 
BRANCH  23  24
HETATM   24  N3  UNL     1      21.347   5.325  50.237  1.00  0.00    -0.351 N 
HETATM   25  H7  UNL     1      20.621   5.948  50.685  1.00  0.00     0.166 HD
BRANCH  24  26
HETATM   26  C8  UNL     1      22.692   5.749  50.134  1.00  0.00     0.032 A 
HETATM   27  C9  UNL     1      23.376   6.622  50.931  1.00  0.00     0.029 A 
HETATM   28  C10 UNL     1      24.700   6.970  50.781  1.00  0.00     0.002 A 
HETATM   29  C11 UNL     1      25.425   6.410  49.751  1.00  0.00     0.000 A 
HETATM   30  C12 UNL     1      24.786   5.522  48.913  1.00  0.00     0.002 A 
HETATM   31  C13 UNL     1      23.462   5.209  49.108  1.00  0.00     0.029 A 
ENDBRANCH  24  26
ENDBRANCH  23  24
ENDBRANCH  21  22
ENDBRANCH  19  20
ENDBRANCH   5  18
TORSDOF 5
ENDMDL
MODEL 7
REMARK VINA RESULT:      -7.8      2.737      6.606
REMARK  5 active torsions:
REMARK  status: ('A' for Active; 'I' for Inactive)
REMARK    1  A    between atoms: C3_5  and  C4_6 
REMARK    2  A    between atoms: C5_7  and  N1_8 
REMARK    3  A    between atoms: C6_9  and  N2_10 
REMARK    4  A    between atoms: C7_11  and  N3_12 
REMARK    5  A    between atoms: N3_12  and  C8_13 
ROOT
HETATM    1  O1  UNL     1      22.286   1.749  49.619  1.00  0.00    -0.293 OA
HETATM    2  C1  UNL     1      23.087   2.205  50.428  1.00  0.00     0.184 C 
HETATM    3  C2  UNL     1      23.192   1.145  51.472  1.00  0.00     0.256 C 
HETATM    4  O2  UNL     1      24.051   1.460  52.525  1.00  0.00    -0.342 OA
HETATM    5  C3  UNL     1      24.660   0.609  53.407  1.00  0.00     0.085 C 
HETATM    6  C14 UNL     1      25.788   1.165  53.824  1.00  0.00     0.120 C 
HETATM    7  N4  UNL     1      26.546   2.340  53.647  1.00  0.00    -0.397 N 
HETATM    8  C15 UNL     1      27.555   2.323  52.568  1.00  0.00     0.121 C 
HETATM    9  C16 UNL     1      26.806   2.272  51.235  1.00  0.00     0.050 C 
HETATM   10  C17 UNL     1      25.940   3.484  51.110  1.00  0.00     0.275 C 
HETATM   11  N5  UNL     1      25.109   3.537  49.971  1.00  0.00     0.100 N 
HETATM   12  C18 UNL     1      25.398   4.722  49.198  1.00  0.00     0.273 C 
HETATM   13  C19 UNL     1      24.861   5.979  49.803  1.00  0.00     0.030 C 
HETATM   14  C20 UNL     1      24.114   5.814  51.079  1.00  0.00     0.004 C 
HETATM   15  C21 UNL     1      23.377   4.547  51.262  1.00  0.00     0.044 C 
HETATM   16  C22 UNL     1      23.688   3.539  50.200  1.00  0.00     0.294 C 
HETATM   17  H14 UNL     1      26.410   3.198  54.248  1.00  0.00     0.158 HD
ENDROOT
BRANCH   5  18
HETATM   18  C4  UNL     1      24.429  -0.691  53.996  1.00  0.00     0.057 C 
HETATM   19  C5  UNL     1      23.232  -0.886  54.445  1.00  0.00     0.120 C 
BRANCH  19  20
HETATM   20  N1  UNL     1      22.174  -1.580  55.048  1.00  0.00    -0.254 NA
HETATM   21  C6  UNL     1      20.962  -1.603  54.600  1.00  0.00     0.233 C 
BRANCH  21  22
HETATM   22  N2  UNL     1      21.124  -0.789  53.462  1.00  0.00    -0.237 NA
HETATM   23  C7  UNL     1      20.219  -0.243  52.759  1.00  0.00     0.208 C 
BRANCH  23  24
HETATM   24  N3  UNL     1      18.852  -0.424  53.088  1.00  0.00    -0.351 N 
HETATM   25  H7  UNL     1      18.578  -0.478  54.106  1.00  0.00     0.166 HD
BRANCH  24  26
HETATM   26  C8  UNL     1      17.871  -0.511  52.073  1.00  0.00     0.032 A 
HETATM   27  C9  UNL     1      17.909  -0.009  50.804  1.00  0.00     0.029 A 
HETATM   28  C10 UNL     1      16.919  -0.155  49.858  1.00  0.00     0.002 A 
HETATM   29  C11 UNL     1      15.780  -0.859  50.187  1.00  0.00     0.000 A 
HETATM   30  C12 UNL     1      15.686  -1.388  51.456  1.00  0.00     0.002 A 
HETATM   31  C13 UNL     1      16.705  -1.213  52.362  1.00  0.00     0.029 A 
ENDBRANCH  24  26
ENDBRANCH  23  24
ENDBRANCH  21  22
ENDBRANCH  19  20
ENDBRANCH   5  18
TORSDOF 5
ENDMDL
MODEL 8
REMARK VINA RESULT:      -7.8      3.801      7.539
REMARK  5 active torsions:
REMARK  status: ('A' for Active; 'I' for Inactive)
REMARK    1  A    between atoms: C3_5  and  C4_6 
REMARK    2  A    between atoms: C5_7  and  N1_8 
REMARK    3  A    between atoms: C6_9  and  N2_10 
REMARK    4  A    between atoms: C7_11  and  N3_12 
REMARK    5  A    between atoms: N3_12  and  C8_13 
ROOT
HETATM    1  O1  UNL     1      26.525   3.155  49.315  1.00  0.00    -0.293 OA
HETATM    2  C1  UNL     1      25.637   3.644  50.006  1.00  0.00     0.184 C 
HETATM    3  C2  UNL     1      25.787   5.114  49.801  1.00  0.00     0.256 C 
HETATM    4  O2  UNL     1      24.876   5.888  50.520  1.00  0.00    -0.342 OA
HETATM    5  C3  UNL     1      24.486   7.178  50.282  1.00  0.00     0.085 C 
HETATM    6  C14 UNL     1      23.258   7.344  50.750  1.00  0.00     0.120 C 
HETATM    7  N4  UNL     1      22.242   6.619  51.405  1.00  0.00    -0.397 N 
HETATM    8  C15 UNL     1      21.268   5.916  50.545  1.00  0.00     0.121 C 
HETATM    9  C16 UNL     1      22.008   4.779  49.840  1.00  0.00     0.050 C 
HETATM   10  C17 UNL     1      22.561   3.841  50.865  1.00  0.00     0.275 C 
HETATM   11  N5  UNL     1      23.357   2.785  50.372  1.00  0.00     0.100 N 
HETATM   12  C18 UNL     1      22.795   1.514  50.763  1.00  0.00     0.273 C 
HETATM   13  C19 UNL     1      23.016   1.177  52.202  1.00  0.00     0.030 C 
HETATM   14  C20 UNL     1      23.780   2.181  52.991  1.00  0.00     0.004 C 
HETATM   15  C21 UNL     1      24.797   2.968  52.264  1.00  0.00     0.044 C 
HETATM   16  C22 UNL     1      24.736   2.762  50.783  1.00  0.00     0.294 C 
HETATM   17  H14 UNL     1      22.169   6.572  52.458  1.00  0.00     0.158 HD
ENDROOT
BRANCH   5  18
HETATM   18  C4  UNL     1      25.019   8.380  49.680  1.00  0.00     0.057 C 
HETATM   19  C5  UNL     1      26.140   8.793  50.177  1.00  0.00     0.120 C 
BRANCH  19  20
HETATM   20  N1  UNL     1      27.260   9.621  50.327  1.00  0.00    -0.254 NA
HETATM   21  C6  UNL     1      28.369   9.479  49.678  1.00  0.00     0.233 C 
BRANCH  21  22
HETATM   22  N2  UNL     1      28.037   8.352  48.902  1.00  0.00    -0.237 NA
HETATM   23  C7  UNL     1      28.781   7.371  48.590  1.00  0.00     0.208 C 
BRANCH  23  24
HETATM   24  N3  UNL     1      30.125   7.326  49.036  1.00  0.00    -0.351 N 
HETATM   25  H7  UNL     1      30.450   8.040  49.744  1.00  0.00     0.166 HD
BRANCH  24  26
HETATM   26  C8  UNL     1      31.011   6.333  48.558  1.00  0.00     0.032 A 
HETATM   27  C9  UNL     1      30.737   5.251  47.772  1.00  0.00     0.029 A 
HETATM   28  C10 UNL     1      31.661   4.334  47.324  1.00  0.00     0.002 A 
HETATM   29  C11 UNL     1      32.983   4.492  47.681  1.00  0.00     0.000 A 
HETATM   30  C12 UNL     1      33.320   5.567  48.475  1.00  0.00     0.002 A 
HETATM   31  C13 UNL     1      32.356   6.453  48.894  1.00  0.00     0.029 A 
ENDBRANCH  24  26
ENDBRANCH  23  24
ENDBRANCH  21  22
ENDBRANCH  19  20
ENDBRANCH   5  18
TORSDOF 5
ENDMDL
MODEL 9
REMARK VINA RESULT:      -7.6      7.833     11.713
REMARK  5 active torsions:
REMARK  status: ('A' for Active; 'I' for Inactive)
REMARK    1  A    between atoms: C3_5  and  C4_6 
REMARK    2  A    between atoms: C5_7  and  N1_8 
REMARK    3  A    between atoms: C6_9  and  N2_10 
REMARK    4  A    between atoms: C7_11  and  N3_12 
REMARK    5  A    between atoms: N3_12  and  C8_13 
ROOT
HETATM    1  O1  UNL     1      32.791   5.627  43.402  1.00  0.00    -0.293 OA
HETATM    2  C1  UNL     1      33.063   5.702  44.596  1.00  0.00     0.184 C 
HETATM    3  C2  UNL     1      33.132   7.168  44.861  1.00  0.00     0.256 C 
HETATM    4  O2  UNL     1      33.454   7.498  46.177  1.00  0.00    -0.342 OA
HETATM    5  C3  UNL     1      33.228   8.677  46.835  1.00  0.00     0.085 C 
HETATM    6  C14 UNL     1      33.110   8.425  48.130  1.00  0.00     0.120 C 
HETATM    7  N4  UNL     1      33.141   7.339  49.029  1.00  0.00    -0.397 N 
HETATM    8  C15 UNL     1      31.855   6.667  49.303  1.00  0.00     0.121 C 
HETATM    9  C16 UNL     1      31.423   5.953  48.022  1.00  0.00     0.050 C 
HETATM   10  C17 UNL     1      32.461   4.945  47.646  1.00  0.00     0.275 C 
HETATM   11  N5  UNL     1      32.252   4.266  46.426  1.00  0.00     0.100 N 
HETATM   12  C18 UNL     1      32.186   2.842  46.654  1.00  0.00     0.273 C 
HETATM   13  C19 UNL     1      33.516   2.214  46.921  1.00  0.00     0.030 C 
HETATM   14  C20 UNL     1      34.683   3.137  46.898  1.00  0.00     0.004 C 
HETATM   15  C21 UNL     1      34.596   4.299  45.989  1.00  0.00     0.044 C 
HETATM   16  C22 UNL     1      33.234   4.466  45.394  1.00  0.00     0.294 C 
HETATM   17  H14 UNL     1      34.034   7.012  49.491  1.00  0.00     0.158 HD
ENDROOT
BRANCH   5  18
HETATM   18  C4  UNL     1      33.086  10.083  46.527  1.00  0.00     0.057 C 
HETATM   19  C5  UNL     1      32.023  10.645  47.002  1.00  0.00     0.120 C 
BRANCH  19  20
HETATM   20  N1  UNL     1      31.110  11.678  47.257  1.00  0.00    -0.254 NA
HETATM   21  C6  UNL     1      30.377  11.763  48.318  1.00  0.00     0.233 C 
BRANCH  21  22
HETATM   22  N2  UNL     1      30.804  10.598  48.985  1.00  0.00    -0.237 NA
HETATM   23  C7  UNL     1      30.086   9.708  49.537  1.00  0.00     0.208 C 
BRANCH  23  24
HETATM   24  N3  UNL     1      28.674   9.825  49.530  1.00  0.00    -0.351 N 
HETATM   25  H7  UNL     1      28.242  10.781  49.644  1.00  0.00     0.166 HD
BRANCH  24  26
HETATM   26  C8  UNL     1      27.857   8.683  49.353  1.00  0.00     0.032 A 
HETATM   27  C9  UNL     1      28.035   7.629  48.505  1.00  0.00     0.029 A 
HETATM   28  C10 UNL     1      27.204   6.535  48.405  1.00  0.00     0.002 A 
HETATM   29  C11 UNL     1      26.089   6.469  49.213  1.00  0.00     0.000 A 
HETATM   30  C12 UNL     1      25.857   7.507  50.089  1.00  0.00     0.002 A 
HETATM   31  C13 UNL     1      26.720   8.575  50.148  1.00  0.00     0.029 A 
ENDBRANCH  24  26
ENDBRANCH  23  24
ENDBRANCH  21  22
ENDBRANCH  19  20
ENDBRANCH   5  18
TORSDOF 5
ENDMDL
