MODEL 1
REMARK VINA RESULT:      -7.6      0.000      0.000
REMARK  6 active torsions:
REMARK  status: ('A' for Active; 'I' for Inactive)
REMARK    1  A    between atoms: C2_2  and  C3_3 
REMARK    2  A    between atoms: C4_4  and  C5_5 
REMARK    3  A    between atoms: C6_6  and  N1_7 
REMARK    4  A    between atoms: N1_7  and  C8_9 
REMARK    5  A    between atoms: C12_15  and  O1_16 
REMARK    6  A    between atoms: C14_18  and  O2_19 
ROOT
HETATM    1  C8  UNL     1      24.336   1.851  52.649  1.00  0.00     0.143 A 
HETATM    2  N2  UNL     1      23.268   1.031  52.833  1.00  0.00    -0.223 NA
HETATM    3  C9  UNL     1      23.441  -0.170  53.412  1.00  0.00     0.236 A 
HETATM    4  N3  UNL     1      24.677  -0.557  53.810  1.00  0.00    -0.241 NA
HETATM    5  C10 UNL     1      25.753   0.230  53.642  1.00  0.00     0.075 A 
HETATM    6  C11 UNL     1      27.042  -0.094  54.015  1.00  0.00     0.072 A 
HETATM    7  C12 UNL     1      28.089   0.805  53.787  1.00  0.00     0.103 A 
HETATM    8  C14 UNL     1      27.878   2.042  53.183  1.00  0.00     0.100 A 
HETATM    9  C15 UNL     1      26.586   2.378  52.804  1.00  0.00     0.057 A 
HETATM   10  C16 UNL     1      25.594   1.460  53.052  1.00  0.00     0.042 A 
ENDROOT
BRANCH   1  11
HETATM   11  N1  UNL     1      23.945   3.097  52.033  1.00  0.00    -0.345 N 
HETATM   12  C7  UNL     1      23.697   4.227  52.906  1.00  0.00     0.157 C 
BRANCH  11  13
HETATM   13  C6  UNL     1      23.839   3.111  50.618  1.00  0.00     0.092 C 
HETATM   14  C5  UNL     1      24.789   3.274  49.719  1.00  0.00     0.017 C 
BRANCH  14  15
HETATM   15  C4  UNL     1      26.196   3.493  49.478  1.00  0.00    -0.003 C 
HETATM   16  C3  UNL     1      27.135   4.322  49.077  1.00  0.00    -0.027 C 
BRANCH  16  17
HETATM   17  C2  UNL     1      27.164   5.698  48.589  1.00  0.00     0.022 C 
HETATM   18  C1  UNL     1      28.511   6.200  48.167  1.00  0.00     0.009 C 
ENDBRANCH  16  17
ENDBRANCH  14  15
ENDBRANCH  11  13
ENDBRANCH   1  11
BRANCH   8  19
HETATM   19  O2  UNL     1      28.919   2.933  52.957  1.00  0.00    -0.358 OA
HETATM   20  H18 UNL     1      29.383   3.028  52.061  1.00  0.00     0.217 HD
ENDBRANCH   8  19
BRANCH   7  21
HETATM   21  O1  UNL     1      29.381   0.477  54.163  1.00  0.00    -0.353 OA
HETATM   22  C13 UNL     1      29.994  -0.689  53.638  1.00  0.00     0.210 C 
ENDBRANCH   7  21
TORSDOF 6
ENDMDL
MODEL 2
REMARK VINA RESULT:      -7.4      2.306      5.229
REMARK  6 active torsions:
REMARK  status: ('A' for Active; 'I' for Inactive)
REMARK    1  A    between atoms: C2_2  and  C3_3 
REMARK    2  A    between atoms: C4_4  and  C5_5 
REMARK    3  A    between atoms: C6_6  and  N1_7 
REMARK    4  A    between atoms: N1_7  and  C8_9 
REMARK    5  A    between atoms: C12_15  and  O1_16 
REMARK    6  A    between atoms: C14_18  and  O2_19 
ROOT
HETATM    1  C8  UNL     1      24.629   0.154  52.924  1.00  0.00     0.143 A 
HETATM    2  N2  UNL     1      23.481  -0.514  53.220  1.00  0.00    -0.223 NA
HETATM    3  C9  UNL     1      22.326  -0.143  52.640  1.00  0.00     0.236 A 
HETATM    4  N3  UNL     1      22.309   0.892  51.766  1.00  0.00    -0.241 NA
HETATM    5  C10 UNL     1      23.426   1.572  51.454  1.00  0.00     0.075 A 
HETATM    6  C11 UNL     1      23.490   2.638  50.578  1.00  0.00     0.072 A 
HETATM    7  C12 UNL     1      24.710   3.275  50.331  1.00  0.00     0.103 A 
HETATM    8  C14 UNL     1      25.890   2.868  50.948  1.00  0.00     0.100 A 
HETATM    9  C15 UNL     1      25.838   1.798  51.830  1.00  0.00     0.057 A 
HETATM   10  C16 UNL     1      24.615   1.207  52.036  1.00  0.00     0.042 A 
ENDROOT
BRANCH   1  11
HETATM   11  N1  UNL     1      25.760  -0.404  53.628  1.00  0.00    -0.345 N 
HETATM   12  C7  UNL     1      25.979   0.032  54.993  1.00  0.00     0.157 C 
BRANCH  11  13
HETATM   13  C6  UNL     1      26.562  -1.338  52.923  1.00  0.00     0.092 C 
HETATM   14  C5  UNL     1      27.876  -1.422  52.865  1.00  0.00     0.017 C 
BRANCH  14  15
HETATM   15  C4  UNL     1      29.139  -0.868  53.290  1.00  0.00    -0.003 C 
HETATM   16  C3  UNL     1      29.771   0.118  53.890  1.00  0.00    -0.027 C 
BRANCH  16  17
HETATM   17  C2  UNL     1      29.370   1.366  54.533  1.00  0.00     0.022 C 
HETATM   18  C1  UNL     1      28.757   2.387  53.624  1.00  0.00     0.009 C 
ENDBRANCH  16  17
ENDBRANCH  14  15
ENDBRANCH  11  13
ENDBRANCH   1  11
BRANCH   8  19
HETATM   19  O2  UNL     1      27.101   3.503  50.701  1.00  0.00    -0.358 OA
HETATM   20  H18 UNL     1      27.386   3.813  49.779  1.00  0.00     0.217 HD
ENDBRANCH   8  19
BRANCH   7  21
HETATM   21  O1  UNL     1      24.770   4.343  49.452  1.00  0.00    -0.353 OA
HETATM   22  C13 UNL     1      24.135   5.567  49.784  1.00  0.00     0.210 C 
ENDBRANCH   7  21
TORSDOF 6
ENDMDL
MODEL 3
REMARK VINA RESULT:      -7.2      2.301      5.149
REMARK  6 active torsions:
REMARK  status: ('A' for Active; 'I' for Inactive)
REMARK    1  A    between atoms: C2_2  and  C3_3 
REMARK    2  A    between atoms: C4_4  and  C5_5 
REMARK    3  A    between atoms: C6_6  and  N1_7 
REMARK    4  A    between atoms: N1_7  and  C8_9 
REMARK    5  A    between atoms: C12_15  and  O1_16 
REMARK    6  A    between atoms: C14_18  and  O2_19 
ROOT
HETATM    1  C8  UNL     1      24.357   2.450  51.248  1.00  0.00     0.143 A 
HETATM    2  N2  UNL     1      24.817   3.353  50.340  1.00  0.00    -0.223 NA
HETATM    3  C9  UNL     1      26.140   3.537  50.196  1.00  0.00     0.236 A 
HETATM    4  N3  UNL     1      27.010   2.826  50.952  1.00  0.00    -0.241 NA
HETATM    5  C10 UNL     1      26.587   1.927  51.859  1.00  0.00     0.075 A 
HETATM    6  C11 UNL     1      27.408   1.169  52.669  1.00  0.00     0.072 A 
HETATM    7  C12 UNL     1      26.856   0.265  53.582  1.00  0.00     0.103 A 
HETATM    8  C14 UNL     1      25.480   0.096  53.710  1.00  0.00     0.100 A 
HETATM    9  C15 UNL     1      24.646   0.854  52.900  1.00  0.00     0.057 A 
HETATM   10  C16 UNL     1      25.238   1.726  52.020  1.00  0.00     0.042 A 
ENDROOT
BRANCH   1  11
HETATM   11  N1  UNL     1      22.915   2.382  51.241  1.00  0.00    -0.345 N 
HETATM   12  C7  UNL     1      22.195   3.353  52.043  1.00  0.00     0.157 C 
BRANCH  11  13
HETATM   13  C6  UNL     1      22.321   1.371  50.444  1.00  0.00     0.092 C 
HETATM   14  C5  UNL     1      21.296   0.590  50.725  1.00  0.00     0.017 C 
BRANCH  14  15
HETATM   15  C4  UNL     1      20.290   0.225  51.694  1.00  0.00    -0.003 C 
HETATM   16  C3  UNL     1      19.993   0.017  52.958  1.00  0.00    -0.027 C 
BRANCH  16  17
HETATM   17  C2  UNL     1      20.726   0.082  54.219  1.00  0.00     0.022 C 
HETATM   18  C1  UNL     1      21.453  -1.170  54.603  1.00  0.00     0.009 C 
ENDBRANCH  16  17
ENDBRANCH  14  15
ENDBRANCH  11  13
ENDBRANCH   1  11
BRANCH   8  19
HETATM   19  O2  UNL     1      24.934  -0.802  54.618  1.00  0.00    -0.358 OA
HETATM   20  H18 UNL     1      24.341  -1.577  54.343  1.00  0.00     0.217 HD
ENDBRANCH   8  19
BRANCH   7  21
HETATM   21  O1  UNL     1      27.683  -0.495  54.393  1.00  0.00    -0.353 OA
HETATM   22  C13 UNL     1      29.087  -0.457  54.202  1.00  0.00     0.210 C 
ENDBRANCH   7  21
TORSDOF 6
ENDMDL
MODEL 4
REMARK VINA RESULT:      -7.1      1.102      1.739
REMARK  6 active torsions:
REMARK  status: ('A' for Active; 'I' for Inactive)
REMARK    1  A    between atoms: C2_2  and  C3_3 
REMARK    2  A    between atoms: C4_4  and  C5_5 
REMARK    3  A    between atoms: C6_6  and  N1_7 
REMARK    4  A    between atoms: N1_7  and  C8_9 
REMARK    5  A    between atoms: C12_15  and  O1_16 
REMARK    6  A    between atoms: C14_18  and  O2_19 
ROOT
HETATM    1  C8  UNL     1      23.851   1.426  52.624  1.00  0.00     0.143 A 
HETATM    2  N2  UNL     1      22.846   0.589  52.998  1.00  0.00    -0.223 NA
HETATM    3  C9  UNL     1      23.114  -0.459  53.795  1.00  0.00     0.236 A 
HETATM    4  N3  UNL     1      24.380  -0.678  54.224  1.00  0.00    -0.241 NA
HETATM    5  C10 UNL     1      25.395   0.131  53.872  1.00  0.00     0.075 A 
HETATM    6  C11 UNL     1      26.710  -0.027  54.262  1.00  0.00     0.072 A 
HETATM    7  C12 UNL     1      27.686   0.876  53.830  1.00  0.00     0.103 A 
HETATM    8  C14 UNL     1      27.378   1.952  53.002  1.00  0.00     0.100 A 
HETATM    9  C15 UNL     1      26.060   2.121  52.604  1.00  0.00     0.057 A 
HETATM   10  C16 UNL     1      25.140   1.207  53.057  1.00  0.00     0.042 A 
ENDROOT
BRANCH   1  11
HETATM   11  N1  UNL     1      23.362   2.497  51.787  1.00  0.00    -0.345 N 
HETATM   12  C7  UNL     1      23.190   2.217  50.376  1.00  0.00     0.157 C 
BRANCH  11  13
HETATM   13  C6  UNL     1      23.087   3.736  52.421  1.00  0.00     0.092 C 
HETATM   14  C5  UNL     1      23.492   4.945  52.086  1.00  0.00     0.017 C 
BRANCH  14  15
HETATM   15  C4  UNL     1      24.259   5.746  51.161  1.00  0.00    -0.003 C 
HETATM   16  C3  UNL     1      24.997   5.780  50.073  1.00  0.00    -0.027 C 
BRANCH  16  17
HETATM   17  C2  UNL     1      25.468   4.790  49.109  1.00  0.00     0.022 C 
HETATM   18  C1  UNL     1      26.610   3.937  49.572  1.00  0.00     0.009 C 
ENDBRANCH  16  17
ENDBRANCH  14  15
ENDBRANCH  11  13
ENDBRANCH   1  11
BRANCH   8  19
HETATM   19  O2  UNL     1      28.350   2.848  52.575  1.00  0.00    -0.358 OA
HETATM   20  H18 UNL     1      29.315   2.584  52.415  1.00  0.00     0.217 HD
ENDBRANCH   8  19
BRANCH   7  21
HETATM   21  O1  UNL     1      29.004   0.714  54.225  1.00  0.00    -0.353 OA
HETATM   22  C13 UNL     1      29.778  -0.343  53.683  1.00  0.00     0.210 C 
ENDBRANCH   7  21
TORSDOF 6
ENDMDL
MODEL 5
REMARK VINA RESULT:      -6.9      4.246      6.643
REMARK  6 active torsions:
REMARK  status: ('A' for Active; 'I' for Inactive)
REMARK    1  A    between atoms: C2_2  and  C3_3 
REMARK    2  A    between atoms: C4_4  and  C5_5 
REMARK    3  A    between atoms: C6_6  and  N1_7 
REMARK    4  A    between atoms: N1_7  and  C8_9 
REMARK    5  A    between atoms: C12_15  and  O1_16 
REMARK    6  A    between atoms: C14_18  and  O2_19 
ROOT
HETATM    1  C8  UNL     1      23.621   0.001  53.710  1.00  0.00     0.143 A 
HETATM    2  N2  UNL     1      24.195  -0.667  54.747  1.00  0.00    -0.223 NA
HETATM    3  C9  UNL     1      23.449  -1.490  55.504  1.00  0.00     0.236 A 
HETATM    4  N3  UNL     1      22.132  -1.652  55.233  1.00  0.00    -0.241 NA
HETATM    5  C10 UNL     1      21.534  -1.005  54.217  1.00  0.00     0.075 A 
HETATM    6  C11 UNL     1      20.200  -1.112  53.880  1.00  0.00     0.072 A 
HETATM    7  C12 UNL     1      19.685  -0.386  52.801  1.00  0.00     0.103 A 
HETATM    8  C14 UNL     1      20.482   0.460  52.036  1.00  0.00     0.100 A 
HETATM    9  C15 UNL     1      21.825   0.575  52.365  1.00  0.00     0.057 A 
HETATM   10  C16 UNL     1      22.281  -0.160  53.433  1.00  0.00     0.042 A 
ENDROOT
BRANCH   1  11
HETATM   11  N1  UNL     1      24.585   0.816  53.009  1.00  0.00    -0.345 N 
HETATM   12  C7  UNL     1      24.495   2.253  53.177  1.00  0.00     0.157 C 
BRANCH  11  13
HETATM   13  C6  UNL     1      25.545   0.138  52.215  1.00  0.00     0.092 C 
HETATM   14  C5  UNL     1      26.855   0.101  52.353  1.00  0.00     0.017 C 
BRANCH  14  15
HETATM   15  C4  UNL     1      27.999   0.537  53.119  1.00  0.00    -0.003 C 
HETATM   16  C3  UNL     1      29.161   0.224  53.650  1.00  0.00    -0.027 C 
BRANCH  16  17
HETATM   17  C2  UNL     1      29.984  -0.981  53.707  1.00  0.00     0.022 C 
HETATM   18  C1  UNL     1      29.307  -2.241  53.260  1.00  0.00     0.009 C 
ENDBRANCH  16  17
ENDBRANCH  14  15
ENDBRANCH  11  13
ENDBRANCH   1  11
BRANCH   8  19
HETATM   19  O2  UNL     1      19.968   1.179  50.965  1.00  0.00    -0.358 OA
HETATM   20  H18 UNL     1      20.165   2.161  50.811  1.00  0.00     0.217 HD
ENDBRANCH   8  19
BRANCH   7  21
HETATM   21  O1  UNL     1      18.345  -0.497  52.467  1.00  0.00    -0.353 OA
HETATM   22  C13 UNL     1      17.512  -1.397  53.179  1.00  0.00     0.210 C 
ENDBRANCH   7  21
TORSDOF 6
ENDMDL
MODEL 6
REMARK VINA RESULT:      -6.8      2.323      3.141
REMARK  6 active torsions:
REMARK  status: ('A' for Active; 'I' for Inactive)
REMARK    1  A    between atoms: C2_2  and  C3_3 
REMARK    2  A    between atoms: C4_4  and  C5_5 
REMARK    3  A    between atoms: C6_6  and  N1_7 
REMARK    4  A    between atoms: N1_7  and  C8_9 
REMARK    5  A    between atoms: C12_15  and  O1_16 
REMARK    6  A    between atoms: C14_18  and  O2_19 
ROOT
HETATM    1  C8  UNL     1      22.050   0.424  52.990  1.00  0.00     0.143 A 
HETATM    2  N2  UNL     1      21.072  -0.119  53.762  1.00  0.00    -0.223 NA
HETATM    3  C9  UNL     1      21.402  -0.930  54.782  1.00  0.00     0.236 A 
HETATM    4  N3  UNL     1      22.704  -1.203  55.037  1.00  0.00    -0.241 NA
HETATM    5  C10 UNL     1      23.694  -0.682  54.291  1.00  0.00     0.075 A 
HETATM    6  C11 UNL     1      25.041  -0.914  54.483  1.00  0.00     0.072 A 
HETATM    7  C12 UNL     1      25.986  -0.320  53.640  1.00  0.00     0.103 A 
HETATM    8  C14 UNL     1      25.613   0.515  52.590  1.00  0.00     0.100 A 
HETATM    9  C15 UNL     1      24.262   0.756  52.388  1.00  0.00     0.057 A 
HETATM   10  C16 UNL     1      23.375   0.149  53.245  1.00  0.00     0.042 A 
ENDROOT
BRANCH   1  11
HETATM   11  N1  UNL     1      21.499   1.278  51.964  1.00  0.00    -0.345 N 
HETATM   12  C7  UNL     1      21.193   2.648  52.326  1.00  0.00     0.157 C 
BRANCH  11  13
HETATM   13  C6  UNL     1      21.305   0.703  50.681  1.00  0.00     0.092 C 
HETATM   14  C5  UNL     1      21.699   1.151  49.506  1.00  0.00     0.017 C 
BRANCH  14  15
HETATM   15  C4  UNL     1      22.389   2.193  48.782  1.00  0.00    -0.003 C 
HETATM   16  C3  UNL     1      23.411   3.019  48.735  1.00  0.00    -0.027 C 
BRANCH  16  17
HETATM   17  C2  UNL     1      24.554   3.303  49.598  1.00  0.00     0.022 C 
HETATM   18  C1  UNL     1      24.256   4.145  50.801  1.00  0.00     0.009 C 
ENDBRANCH  16  17
ENDBRANCH  14  15
ENDBRANCH  11  13
ENDBRANCH   1  11
BRANCH   8  19
HETATM   19  O2  UNL     1      26.554   1.104  51.754  1.00  0.00    -0.358 OA
HETATM   20  H18 UNL     1      26.307   1.723  50.991  1.00  0.00     0.217 HD
ENDBRANCH   8  19
BRANCH   7  21
HETATM   21  O1  UNL     1      27.337  -0.555  53.836  1.00  0.00    -0.353 OA
HETATM   22  C13 UNL     1      28.050   0.194  54.805  1.00  0.00     0.210 C 
ENDBRANCH   7  21
TORSDOF 6
ENDMDL
MODEL 7
REMARK VINA RESULT:      -6.8      3.258      5.438
REMARK  6 active torsions:
REMARK  status: ('A' for Active; 'I' for Inactive)
REMARK    1  A    between atoms: C2_2  and  C3_3 
REMARK    2  A    between atoms: C4_4  and  C5_5 
REMARK    3  A    between atoms: C6_6  and  N1_7 
REMARK    4  A    between atoms: N1_7  and  C8_9 
REMARK    5  A    between atoms: C12_15  and  O1_16 
REMARK    6  A    between atoms: C14_18  and  O2_19 
ROOT
HETATM    1  C8  UNL     1      24.760  -0.495  54.043  1.00  0.00     0.143 A 
HETATM    2  N2  UNL     1      24.987  -1.141  55.218  1.00  0.00    -0.223 NA
HETATM    3  C9  UNL     1      23.947  -1.585  55.946  1.00  0.00     0.236 A 
HETATM    4  N3  UNL     1      22.681  -1.388  55.507  1.00  0.00    -0.241 NA
HETATM    5  C10 UNL     1      22.423  -0.752  54.350  1.00  0.00     0.075 A 
HETATM    6  C11 UNL     1      21.165  -0.509  53.839  1.00  0.00     0.072 A 
HETATM    7  C12 UNL     1      21.016   0.168  52.624  1.00  0.00     0.103 A 
HETATM    8  C14 UNL     1      22.113   0.617  51.894  1.00  0.00     0.100 A 
HETATM    9  C15 UNL     1      23.383   0.378  52.398  1.00  0.00     0.057 A 
HETATM   10  C16 UNL     1      23.474  -0.292  53.594  1.00  0.00     0.042 A 
ENDROOT
BRANCH   1  11
HETATM   11  N1  UNL     1      25.998  -0.115  53.403  1.00  0.00    -0.345 N 
HETATM   12  C7  UNL     1      26.640  -1.098  52.553  1.00  0.00     0.157 C 
BRANCH  11  13
HETATM   13  C6  UNL     1      26.480   1.195  53.657  1.00  0.00     0.092 C 
HETATM   14  C5  UNL     1      26.787   2.145  52.797  1.00  0.00     0.017 C 
BRANCH  14  15
HETATM   15  C4  UNL     1      26.873   2.532  51.409  1.00  0.00    -0.003 C 
HETATM   16  C3  UNL     1      26.237   2.933  50.329  1.00  0.00    -0.027 C 
BRANCH  16  17
HETATM   17  C2  UNL     1      24.846   3.227  49.995  1.00  0.00     0.022 C 
HETATM   18  C1  UNL     1      24.122   4.100  50.974  1.00  0.00     0.009 C 
ENDBRANCH  16  17
ENDBRANCH  14  15
ENDBRANCH  11  13
ENDBRANCH   1  11
BRANCH   8  19
HETATM   19  O2  UNL     1      21.963   1.289  50.687  1.00  0.00    -0.358 OA
HETATM   20  H18 UNL     1      21.824   0.815  49.802  1.00  0.00     0.217 HD
ENDBRANCH   8  19
BRANCH   7  21
HETATM   21  O1  UNL     1      19.751   0.410  52.115  1.00  0.00    -0.353 OA
HETATM   22  C13 UNL     1      18.663  -0.407  52.511  1.00  0.00     0.210 C 
ENDBRANCH   7  21
TORSDOF 6
ENDMDL
MODEL 8
REMARK VINA RESULT:      -6.3      3.371      5.152
REMARK  6 active torsions:
REMARK  status: ('A' for Active; 'I' for Inactive)
REMARK    1  A    between atoms: C2_2  and  C3_3 
REMARK    2  A    between atoms: C4_4  and  C5_5 
REMARK    3  A    between atoms: C6_6  and  N1_7 
REMARK    4  A    between atoms: N1_7  and  C8_9 
REMARK    5  A    between atoms: C12_15  and  O1_16 
REMARK    6  A    between atoms: C14_18  and  O2_19 
ROOT
HETATM    1  C8  UNL     1      24.194   1.246  52.798  1.00  0.00     0.143 A 
HETATM    2  N2  UNL     1      24.312  -0.073  53.106  1.00  0.00    -0.223 NA
HETATM    3  C9  UNL     1      23.207  -0.822  53.265  1.00  0.00     0.236 A 
HETATM    4  N3  UNL     1      21.983  -0.261  53.118  1.00  0.00    -0.241 NA
HETATM    5  C10 UNL     1      21.832   1.040  52.815  1.00  0.00     0.075 A 
HETATM    6  C11 UNL     1      20.622   1.685  52.653  1.00  0.00     0.072 A 
HETATM    7  C12 UNL     1      20.586   3.047  52.340  1.00  0.00     0.103 A 
HETATM    8  C14 UNL     1      21.749   3.797  52.183  1.00  0.00     0.100 A 
HETATM    9  C15 UNL     1      22.971   3.159  52.343  1.00  0.00     0.057 A 
HETATM   10  C16 UNL     1      22.951   1.820  52.648  1.00  0.00     0.042 A 
ENDROOT
BRANCH   1  11
HETATM   11  N1  UNL     1      25.488   1.871  52.650  1.00  0.00    -0.345 N 
HETATM   12  C7  UNL     1      26.094   2.443  53.836  1.00  0.00     0.157 C 
BRANCH  11  13
HETATM   13  C6  UNL     1      26.060   1.869  51.352  1.00  0.00     0.092 C 
HETATM   14  C5  UNL     1      25.984   2.791  50.413  1.00  0.00     0.017 C 
BRANCH  14  15
HETATM   15  C4  UNL     1      25.465   4.083  50.031  1.00  0.00    -0.003 C 
HETATM   16  C3  UNL     1      25.689   5.235  49.437  1.00  0.00    -0.027 C 
BRANCH  16  17
HETATM   17  C2  UNL     1      26.823   5.843  48.749  1.00  0.00     0.022 C 
HETATM   18  C1  UNL     1      27.997   4.939  48.527  1.00  0.00     0.009 C 
ENDBRANCH  16  17
ENDBRANCH  14  15
ENDBRANCH  11  13
ENDBRANCH   1  11
BRANCH   8  19
HETATM   19  O2  UNL     1      21.710   5.150  51.873  1.00  0.00    -0.358 OA
HETATM   20  H18 UNL     1      22.009   5.523  50.979  1.00  0.00     0.217 HD
ENDBRANCH   8  19
BRANCH   7  21
HETATM   21  O1  UNL     1      19.370   3.690  52.178  1.00  0.00    -0.353 OA
HETATM   22  C13 UNL     1      18.299   3.023  51.532  1.00  0.00     0.210 C 
ENDBRANCH   7  21
TORSDOF 6
ENDMDL
MODEL 9
REMARK VINA RESULT:      -6.2      2.998      3.958
REMARK  6 active torsions:
REMARK  status: ('A' for Active; 'I' for Inactive)
REMARK    1  A    between atoms: C2_2  and  C3_3 
REMARK    2  A    between atoms: C4_4  and  C5_5 
REMARK    3  A    between atoms: C6_6  and  N1_7 
REMARK    4  A    between atoms: N1_7  and  C8_9 
REMARK    5  A    between atoms: C12_15  and  O1_16 
REMARK    6  A    between atoms: C14_18  and  O2_19 
ROOT
HETATM    1  C8  UNL     1      24.735   2.975  51.635  1.00  0.00     0.143 A 
HETATM    2  N2  UNL     1      26.068   3.045  51.374  1.00  0.00    -0.223 NA
HETATM    3  C9  UNL     1      26.866   2.014  51.700  1.00  0.00     0.236 A 
HETATM    4  N3  UNL     1      26.341   0.910  52.285  1.00  0.00    -0.241 NA
HETATM    5  C10 UNL     1      25.028   0.811  52.557  1.00  0.00     0.075 A 
HETATM    6  C11 UNL     1      24.419  -0.275  53.153  1.00  0.00     0.072 A 
HETATM    7  C12 UNL     1      23.041  -0.267  53.392  1.00  0.00     0.103 A 
HETATM    8  C14 UNL     1      22.241   0.818  53.045  1.00  0.00     0.100 A 
HETATM    9  C15 UNL     1      22.842   1.914  52.444  1.00  0.00     0.057 A 
HETATM   10  C16 UNL     1      24.198   1.855  52.230  1.00  0.00     0.042 A 
ENDROOT
BRANCH   1  11
HETATM   11  N1  UNL     1      24.048   4.167  51.196  1.00  0.00    -0.345 N 
HETATM   12  C7  UNL     1      23.597   5.093  52.216  1.00  0.00     0.157 C 
BRANCH  11  13
HETATM   13  C6  UNL     1      23.875   4.335  49.798  1.00  0.00     0.092 C 
HETATM   14  C5  UNL     1      24.610   5.027  48.951  1.00  0.00     0.017 C 
BRANCH  14  15
HETATM   15  C4  UNL     1      25.762   5.878  48.770  1.00  0.00    -0.003 C 
HETATM   16  C3  UNL     1      27.063   5.958  48.596  1.00  0.00    -0.027 C 
BRANCH  16  17
HETATM   17  C2  UNL     1      28.155   4.996  48.484  1.00  0.00     0.022 C 
HETATM   18  C1  UNL     1      29.510   5.589  48.244  1.00  0.00     0.009 C 
ENDBRANCH  16  17
ENDBRANCH  14  15
ENDBRANCH  11  13
ENDBRANCH   1  11
BRANCH   8  19
HETATM   19  O2  UNL     1      20.872   0.823  53.283  1.00  0.00    -0.358 OA
HETATM   20  H18 UNL     1      20.243   1.510  52.884  1.00  0.00     0.217 HD
ENDBRANCH   8  19
BRANCH   7  21
HETATM   21  O1  UNL     1      22.434  -1.359  53.991  1.00  0.00    -0.353 OA
HETATM   22  C13 UNL     1      22.721  -1.672  55.344  1.00  0.00     0.210 C 
ENDBRANCH   7  21
TORSDOF 6
ENDMDL
