MODEL 1
REMARK VINA RESULT:      -7.9      0.000      0.000
REMARK  1 active torsions:
REMARK  status: ('A' for Active; 'I' for Inactive)
REMARK       I    between atoms: C9_12  and  N4_13 
REMARK    1  A    between atoms: C10_15  and  C11_16 
ROOT
HETATM    1  C1  UNL     1      22.206  -0.891  53.375  1.00  0.00     0.177 A 
HETATM    2  C2  UNL     1      22.888   0.232  53.504  1.00  0.00     0.055 A 
HETATM    3  N1  UNL     1      23.250  -0.618  54.558  1.00  0.00    -0.168 NA
HETATM    4  N2  UNL     1      24.432  -1.118  54.755  1.00  0.00    -0.194 NA
HETATM    5  C3  UNL     1      25.350  -0.671  53.722  1.00  0.00     0.073 A 
HETATM    6  C4  UNL     1      26.114  -1.250  52.737  1.00  0.00     0.033 A 
HETATM    7  C5  UNL     1      26.777  -0.404  51.877  1.00  0.00     0.005 A 
HETATM    8  C6  UNL     1      26.676   0.965  52.000  1.00  0.00     0.029 A 
HETATM    9  C7  UNL     1      25.922   1.588  52.974  1.00  0.00     0.033 A 
HETATM   10  C8  UNL     1      25.289   0.699  53.803  1.00  0.00     0.062 A 
HETATM   11  N3  UNL     1      25.728   2.991  53.069  1.00  0.00    -0.343 N 
HETATM   12  C9  UNL     1      24.299   3.146  53.403  1.00  0.00     0.444 C 
HETATM   13  N4  UNL     1      24.115   4.624  53.217  1.00  0.00     0.122 N 
HETATM   14  N5  UNL     1      23.406   2.392  52.725  1.00  0.00    -0.233 NA
HETATM   15  C10 UNL     1      22.797   1.369  52.609  1.00  0.00     0.087 C 
HETATM   16  H7  UNL     1      26.641   3.443  52.873  1.00  0.00     0.163 HD
HETATM   17  H9  UNL     1      23.135   4.787  53.550  1.00  0.00     0.317 HD
HETATM   18  H10 UNL     1      24.815   5.076  53.852  1.00  0.00     0.317 HD
ENDROOT
BRANCH  15  19
HETATM   19  C11 UNL     1      21.916   1.328  51.461  1.00  0.00     0.011 A 
HETATM   20  C12 UNL     1      22.057   1.021  50.131  1.00  0.00     0.017 A 
HETATM   21  C13 UNL     1      21.115   1.024  49.140  1.00  0.00     0.020 A 
HETATM   22  C14 UNL     1      19.828   1.376  49.468  1.00  0.00     0.116 A 
HETATM   23  N6  UNL     1      19.579   1.695  50.746  1.00  0.00    -0.272 NA
HETATM   24  C15 UNL     1      20.570   1.663  51.647  1.00  0.00     0.130 A 
ENDBRANCH  15  19
TORSDOF 1
ENDMDL
MODEL 2
REMARK VINA RESULT:      -7.7      1.523      5.586
REMARK  1 active torsions:
REMARK  status: ('A' for Active; 'I' for Inactive)
REMARK       I    between atoms: C9_12  and  N4_13 
REMARK    1  A    between atoms: C10_15  and  C11_16 
ROOT
HETATM    1  C1  UNL     1      24.495   3.367  52.311  1.00  0.00     0.177 A 
HETATM    2  C2  UNL     1      23.502   2.597  52.717  1.00  0.00     0.055 A 
HETATM    3  N1  UNL     1      22.975   3.859  52.413  1.00  0.00    -0.168 NA
HETATM    4  N2  UNL     1      22.119   4.115  51.471  1.00  0.00    -0.194 NA
HETATM    5  C3  UNL     1      21.771   2.898  50.758  1.00  0.00     0.073 A 
HETATM    6  C4  UNL     1      21.876   2.421  49.474  1.00  0.00     0.033 A 
HETATM    7  C5  UNL     1      21.500   1.114  49.257  1.00  0.00     0.005 A 
HETATM    8  C6  UNL     1      21.040   0.321  50.286  1.00  0.00     0.029 A 
HETATM    9  C7  UNL     1      20.918   0.760  51.589  1.00  0.00     0.033 A 
HETATM   10  C8  UNL     1      21.300   2.066  51.745  1.00  0.00     0.062 A 
HETATM   11  N3  UNL     1      20.533  -0.059  52.683  1.00  0.00    -0.343 N 
HETATM   12  C9  UNL     1      21.431   0.345  53.782  1.00  0.00     0.444 C 
HETATM   13  N4  UNL     1      21.156  -0.730  54.792  1.00  0.00     0.122 N 
HETATM   14  N5  UNL     1      22.742   0.511  53.499  1.00  0.00    -0.233 NA
HETATM   15  C10 UNL     1      23.635   1.211  53.123  1.00  0.00     0.087 C 
HETATM   16  H7  UNL     1      19.759  -0.667  52.356  1.00  0.00     0.163 HD
HETATM   17  H9  UNL     1      21.699  -0.414  55.632  1.00  0.00     0.317 HD
HETATM   18  H10 UNL     1      20.124  -0.692  54.969  1.00  0.00     0.317 HD
ENDROOT
BRANCH  15  19
HETATM   19  C11 UNL     1      24.930   0.562  53.096  1.00  0.00     0.011 A 
HETATM   20  C12 UNL     1      25.851   0.260  52.125  1.00  0.00     0.017 A 
HETATM   21  C13 UNL     1      27.058  -0.369  52.247  1.00  0.00     0.020 A 
HETATM   22  C14 UNL     1      27.456  -0.776  53.499  1.00  0.00     0.116 A 
HETATM   23  N6  UNL     1      26.628  -0.528  54.523  1.00  0.00    -0.272 NA
HETATM   24  C15 UNL     1      25.462   0.095  54.302  1.00  0.00     0.130 A 
ENDBRANCH  15  19
TORSDOF 1
ENDMDL
MODEL 3
REMARK VINA RESULT:      -7.4      2.277      5.138
REMARK  1 active torsions:
REMARK  status: ('A' for Active; 'I' for Inactive)
REMARK       I    between atoms: C9_12  and  N4_13 
REMARK    1  A    between atoms: C10_15  and  C11_16 
ROOT
HETATM    1  C1  UNL     1      21.332   0.793  50.110  1.00  0.00     0.177 A 
HETATM    2  C2  UNL     1      22.457   1.457  50.299  1.00  0.00     0.055 A 
HETATM    3  N1  UNL     1      22.032   1.691  48.984  1.00  0.00    -0.168 NA
HETATM    4  N2  UNL     1      21.675   2.840  48.497  1.00  0.00    -0.194 NA
HETATM    5  C3  UNL     1      21.778   3.875  49.512  1.00  0.00     0.073 A 
HETATM    6  C4  UNL     1      20.927   4.747  50.148  1.00  0.00     0.033 A 
HETATM    7  C5  UNL     1      21.455   5.508  51.166  1.00  0.00     0.005 A 
HETATM    8  C6  UNL     1      22.779   5.397  51.533  1.00  0.00     0.029 A 
HETATM    9  C7  UNL     1      23.667   4.535  50.922  1.00  0.00     0.033 A 
HETATM   10  C8  UNL     1      23.091   3.807  49.914  1.00  0.00     0.062 A 
HETATM   11  N3  UNL     1      25.010   4.334  51.336  1.00  0.00    -0.343 N 
HETATM   12  C9  UNL     1      25.214   2.876  51.236  1.00  0.00     0.444 C 
HETATM   13  N4  UNL     1      26.532   2.718  51.937  1.00  0.00     0.122 N 
HETATM   14  N5  UNL     1      24.241   2.068  51.709  1.00  0.00    -0.233 NA
HETATM   15  C10 UNL     1      23.217   1.474  51.534  1.00  0.00     0.087 C 
HETATM   16  H7  UNL     1      25.403   5.264  51.573  1.00  0.00     0.163 HD
HETATM   17  H9  UNL     1      26.761   1.706  51.791  1.00  0.00     0.317 HD
HETATM   18  H10 UNL     1      27.201   3.339  51.422  1.00  0.00     0.317 HD
ENDROOT
BRANCH  15  19
HETATM   19  C11 UNL     1      22.753   0.734  52.688  1.00  0.00     0.011 A 
HETATM   20  C12 UNL     1      21.598   0.701  53.429  1.00  0.00     0.017 A 
HETATM   21  C13 UNL     1      21.292  -0.067  54.517  1.00  0.00     0.020 A 
HETATM   22  C14 UNL     1      22.241  -0.950  54.977  1.00  0.00     0.116 A 
HETATM   23  N6  UNL     1      23.409  -1.000  54.323  1.00  0.00    -0.272 NA
HETATM   24  C15 UNL     1      23.616  -0.205  53.264  1.00  0.00     0.130 A 
ENDBRANCH  15  19
TORSDOF 1
ENDMDL
MODEL 4
REMARK VINA RESULT:      -7.1      9.118     11.216
REMARK  1 active torsions:
REMARK  status: ('A' for Active; 'I' for Inactive)
REMARK       I    between atoms: C9_12  and  N4_13 
REMARK    1  A    between atoms: C10_15  and  C11_16 
ROOT
HETATM    1  C1  UNL     1      32.001   6.682  49.559  1.00  0.00     0.177 A 
HETATM    2  C2  UNL     1      32.062   6.966  48.272  1.00  0.00     0.055 A 
HETATM    3  N1  UNL     1      33.342   7.142  48.814  1.00  0.00    -0.168 NA
HETATM    4  N2  UNL     1      34.397   6.453  48.503  1.00  0.00    -0.194 NA
HETATM    5  C3  UNL     1      34.073   5.456  47.496  1.00  0.00     0.073 A 
HETATM    6  C4  UNL     1      34.094   4.086  47.394  1.00  0.00     0.033 A 
HETATM    7  C5  UNL     1      33.574   3.534  46.245  1.00  0.00     0.005 A 
HETATM    8  C6  UNL     1      33.055   4.323  45.241  1.00  0.00     0.029 A 
HETATM    9  C7  UNL     1      33.016   5.702  45.302  1.00  0.00     0.033 A 
HETATM   10  C8  UNL     1      33.549   6.196  46.463  1.00  0.00     0.062 A 
HETATM   11  N3  UNL     1      32.407   6.534  44.327  1.00  0.00    -0.343 N 
HETATM   12  C9  UNL     1      31.702   7.568  45.109  1.00  0.00     0.444 C 
HETATM   13  N4  UNL     1      30.877   8.227  44.043  1.00  0.00     0.122 N 
HETATM   14  N5  UNL     1      30.990   7.169  46.186  1.00  0.00    -0.233 NA
HETATM   15  C10 UNL     1      30.943   6.906  47.351  1.00  0.00     0.087 C 
HETATM   16  H7  UNL     1      32.651   6.148  43.395  1.00  0.00     0.163 HD
HETATM   17  H9  UNL     1      30.442   9.039  44.544  1.00  0.00     0.317 HD
HETATM   18  H10 UNL     1      31.561   8.550  43.317  1.00  0.00     0.317 HD
ENDROOT
BRANCH  15  19
HETATM   19  C11 UNL     1      29.634   6.500  47.818  1.00  0.00     0.011 A 
HETATM   20  C12 UNL     1      29.036   5.307  48.136  1.00  0.00     0.017 A 
HETATM   21  C13 UNL     1      27.763   5.068  48.575  1.00  0.00     0.020 A 
HETATM   22  C14 UNL     1      26.921   6.142  48.739  1.00  0.00     0.116 A 
HETATM   23  N6  UNL     1      27.406   7.359  48.456  1.00  0.00    -0.272 NA
HETATM   24  C15 UNL     1      28.670   7.491  48.031  1.00  0.00     0.130 A 
ENDBRANCH  15  19
TORSDOF 1
ENDMDL
MODEL 5
REMARK VINA RESULT:      -6.8     10.618     13.189
REMARK  1 active torsions:
REMARK  status: ('A' for Active; 'I' for Inactive)
REMARK       I    between atoms: C9_12  and  N4_13 
REMARK    1  A    between atoms: C10_15  and  C11_16 
ROOT
HETATM    1  C1  UNL     1      31.329   7.378  46.631  1.00  0.00     0.177 A 
HETATM    2  C2  UNL     1      32.306   6.908  47.384  1.00  0.00     0.055 A 
HETATM    3  N1  UNL     1      31.089   6.520  47.962  1.00  0.00    -0.168 NA
HETATM    4  N2  UNL     1      30.672   5.298  48.099  1.00  0.00    -0.194 NA
HETATM    5  C3  UNL     1      31.650   4.365  47.566  1.00  0.00     0.073 A 
HETATM    6  C4  UNL     1      31.700   3.420  46.570  1.00  0.00     0.033 A 
HETATM    7  C5  UNL     1      32.917   2.822  46.332  1.00  0.00     0.005 A 
HETATM    8  C6  UNL     1      34.036   3.159  47.062  1.00  0.00     0.029 A 
HETATM    9  C7  UNL     1      34.031   4.101  48.071  1.00  0.00     0.033 A 
HETATM   10  C8  UNL     1      32.795   4.660  48.267  1.00  0.00     0.062 A 
HETATM   11  N3  UNL     1      35.184   4.533  48.777  1.00  0.00    -0.343 N 
HETATM   12  C9  UNL     1      35.020   5.994  48.898  1.00  0.00     0.444 C 
HETATM   13  N4  UNL     1      36.376   6.399  49.397  1.00  0.00     0.122 N 
HETATM   14  N5  UNL     1      34.610   6.676  47.806  1.00  0.00    -0.233 NA
HETATM   15  C10 UNL     1      33.720   7.093  47.124  1.00  0.00     0.087 C 
HETATM   16  H7  UNL     1      35.760   3.692  48.973  1.00  0.00     0.163 HD
HETATM   17  H9  UNL     1      36.262   7.422  49.597  1.00  0.00     0.317 HD
HETATM   18  H10 UNL     1      36.526   5.853  50.278  1.00  0.00     0.317 HD
ENDROOT
BRANCH  15  19
HETATM   19  C11 UNL     1      34.159   7.834  45.960  1.00  0.00     0.011 A 
HETATM   20  C12 UNL     1      34.045   7.677  44.602  1.00  0.00     0.017 A 
HETATM   21  C13 UNL     1      34.520   8.474  43.598  1.00  0.00     0.020 A 
HETATM   22  C14 UNL     1      35.217   9.608  43.943  1.00  0.00     0.116 A 
HETATM   23  N6  UNL     1      35.386   9.858  45.248  1.00  0.00    -0.272 NA
HETATM   24  C15 UNL     1      34.883   9.014  46.160  1.00  0.00     0.130 A 
ENDBRANCH  15  19
TORSDOF 1
ENDMDL
MODEL 6
REMARK VINA RESULT:      -6.8      8.699     10.753
REMARK  1 active torsions:
REMARK  status: ('A' for Active; 'I' for Inactive)
REMARK       I    between atoms: C9_12  and  N4_13 
REMARK    1  A    between atoms: C10_15  and  C11_16 
ROOT
HETATM    1  C1  UNL     1      28.626   7.889  45.705  1.00  0.00     0.177 A 
HETATM    2  C2  UNL     1      29.540   7.660  46.630  1.00  0.00     0.055 A 
HETATM    3  N1  UNL     1      30.162   8.320  45.561  1.00  0.00    -0.168 NA
HETATM    4  N2  UNL     1      30.701   9.500  45.612  1.00  0.00    -0.194 NA
HETATM    5  C3  UNL     1      30.576  10.058  46.947  1.00  0.00     0.073 A 
HETATM    6  C4  UNL     1      29.980  11.151  47.528  1.00  0.00     0.033 A 
HETATM    7  C5  UNL     1      30.024  11.235  48.901  1.00  0.00     0.005 A 
HETATM    8  C6  UNL     1      30.639  10.261  49.659  1.00  0.00     0.029 A 
HETATM    9  C7  UNL     1      31.250   9.148  49.117  1.00  0.00     0.033 A 
HETATM   10  C8  UNL     1      31.180   9.120  47.749  1.00  0.00     0.062 A 
HETATM   11  N3  UNL     1      31.810   8.087  49.876  1.00  0.00    -0.343 N 
HETATM   12  C9  UNL     1      31.401   6.863  49.159  1.00  0.00     0.444 C 
HETATM   13  N4  UNL     1      31.786   5.804  50.150  1.00  0.00     0.122 N 
HETATM   14  N5  UNL     1      30.121   6.779  48.734  1.00  0.00    -0.233 NA
HETATM   15  C10 UNL     1      29.296   6.995  47.895  1.00  0.00     0.087 C 
HETATM   16  H7  UNL     1      32.315   8.512  50.676  1.00  0.00     0.163 HD
HETATM   17  H9  UNL     1      31.607   4.912  49.629  1.00  0.00     0.317 HD
HETATM   18  H10 UNL     1      32.809   5.944  50.327  1.00  0.00     0.317 HD
ENDROOT
BRANCH  15  19
HETATM   19  C11 UNL     1      27.967   6.531  48.233  1.00  0.00     0.011 A 
HETATM   20  C12 UNL     1      26.720   7.100  48.293  1.00  0.00     0.017 A 
HETATM   21  C13 UNL     1      25.526   6.528  48.636  1.00  0.00     0.020 A 
HETATM   22  C14 UNL     1      25.517   5.195  48.976  1.00  0.00     0.116 A 
HETATM   23  N6  UNL     1      26.687   4.542  48.950  1.00  0.00    -0.272 NA
HETATM   24  C15 UNL     1      27.807   5.191  48.601  1.00  0.00     0.130 A 
ENDBRANCH  15  19
TORSDOF 1
ENDMDL
MODEL 7
REMARK VINA RESULT:      -6.7     10.194     13.012
REMARK  1 active torsions:
REMARK  status: ('A' for Active; 'I' for Inactive)
REMARK       I    between atoms: C9_12  and  N4_13 
REMARK    1  A    between atoms: C10_15  and  C11_16 
ROOT
HETATM    1  C1  UNL     1      34.201   8.518  46.204  1.00  0.00     0.177 A 
HETATM    2  C2  UNL     1      33.419   8.138  47.196  1.00  0.00     0.055 A 
HETATM    3  N1  UNL     1      33.390   9.538  47.134  1.00  0.00    -0.168 NA
HETATM    4  N2  UNL     1      32.347  10.262  46.861  1.00  0.00    -0.194 NA
HETATM    5  C3  UNL     1      31.190   9.416  46.625  1.00  0.00     0.073 A 
HETATM    6  C4  UNL     1      30.327   9.160  45.587  1.00  0.00     0.033 A 
HETATM    7  C5  UNL     1      29.400   8.159  45.773  1.00  0.00     0.005 A 
HETATM    8  C6  UNL     1      29.343   7.446  46.951  1.00  0.00     0.029 A 
HETATM    9  C7  UNL     1      30.189   7.671  48.018  1.00  0.00     0.033 A 
HETATM   10  C8  UNL     1      31.086   8.678  47.780  1.00  0.00     0.062 A 
HETATM   11  N3  UNL     1      30.212   6.893  49.206  1.00  0.00    -0.343 N 
HETATM   12  C9  UNL     1      31.646   6.725  49.510  1.00  0.00     0.444 C 
HETATM   13  N4  UNL     1      31.594   5.686  50.593  1.00  0.00     0.122 N 
HETATM   14  N5  UNL     1      32.476   6.413  48.490  1.00  0.00    -0.233 NA
HETATM   15  C10 UNL     1      33.178   6.763  47.588  1.00  0.00     0.087 C 
HETATM   16  H7  UNL     1      29.227   6.699  49.467  1.00  0.00     0.163 HD
HETATM   17  H9  UNL     1      32.591   5.620  50.909  1.00  0.00     0.317 HD
HETATM   18  H10 UNL     1      30.983   6.092  51.341  1.00  0.00     0.317 HD
ENDROOT
BRANCH  15  19
HETATM   19  C11 UNL     1      33.809   5.677  46.868  1.00  0.00     0.011 A 
HETATM   20  C12 UNL     1      33.978   5.348  45.546  1.00  0.00     0.017 A 
HETATM   21  C13 UNL     1      34.611   4.266  45.000  1.00  0.00     0.020 A 
HETATM   22  C14 UNL     1      35.177   3.347  45.850  1.00  0.00     0.116 A 
HETATM   23  N6  UNL     1      35.071   3.573  47.167  1.00  0.00    -0.272 NA
HETATM   24  C15 UNL     1      34.429   4.664  47.607  1.00  0.00     0.130 A 
ENDBRANCH  15  19
TORSDOF 1
ENDMDL
MODEL 8
REMARK VINA RESULT:      -6.6      8.592     11.072
REMARK  1 active torsions:
REMARK  status: ('A' for Active; 'I' for Inactive)
REMARK       I    between atoms: C9_12  and  N4_13 
REMARK    1  A    between atoms: C10_15  and  C11_16 
ROOT
HETATM    1  C1  UNL     1      28.715   8.122  45.207  1.00  0.00     0.177 A 
HETATM    2  C2  UNL     1      28.835   8.673  46.400  1.00  0.00     0.055 A 
HETATM    3  N1  UNL     1      27.874   9.399  45.683  1.00  0.00    -0.168 NA
HETATM    4  N2  UNL     1      26.616   9.498  45.990  1.00  0.00    -0.194 NA
HETATM    5  C3  UNL     1      26.328   8.745  47.199  1.00  0.00     0.073 A 
HETATM    6  C4  UNL     1      25.538   7.679  47.556  1.00  0.00     0.033 A 
HETATM    7  C5  UNL     1      25.663   7.207  48.843  1.00  0.00     0.005 A 
HETATM    8  C6  UNL     1      26.545   7.780  49.734  1.00  0.00     0.029 A 
HETATM    9  C7  UNL     1      27.356   8.852  49.418  1.00  0.00     0.033 A 
HETATM   10  C8  UNL     1      27.187   9.282  48.129  1.00  0.00     0.062 A 
HETATM   11  N3  UNL     1      28.336   9.403  50.285  1.00  0.00    -0.343 N 
HETATM   12  C9  UNL     1      29.496   9.668  49.412  1.00  0.00     0.444 C 
HETATM   13  N4  UNL     1      30.557   9.982  50.425  1.00  0.00     0.122 N 
HETATM   14  N5  UNL     1      29.850   8.713  48.524  1.00  0.00    -0.233 NA
HETATM   15  C10 UNL     1      29.731   8.213  47.444  1.00  0.00     0.087 C 
HETATM   16  H7  UNL     1      27.924   9.437  51.236  1.00  0.00     0.163 HD
HETATM   17  H9  UNL     1      31.371  10.281  49.835  1.00  0.00     0.317 HD
HETATM   18  H10 UNL     1      30.180  10.782  50.988  1.00  0.00     0.317 HD
ENDROOT
BRANCH  15  19
HETATM   19  C11 UNL     1      30.578   7.060  47.224  1.00  0.00     0.011 A 
HETATM   20  C12 UNL     1      31.711   6.805  46.494  1.00  0.00     0.017 A 
HETATM   21  C13 UNL     1      32.420   5.642  46.379  1.00  0.00     0.020 A 
HETATM   22  C14 UNL     1      31.980   4.540  47.074  1.00  0.00     0.116 A 
HETATM   23  N6  UNL     1      30.877   4.681  47.822  1.00  0.00    -0.272 NA
HETATM   24  C15 UNL     1      30.250   5.864  47.871  1.00  0.00     0.130 A 
ENDBRANCH  15  19
TORSDOF 1
ENDMDL
MODEL 9
REMARK VINA RESULT:      -6.5      3.192      4.633
REMARK  1 active torsions:
REMARK  status: ('A' for Active; 'I' for Inactive)
REMARK       I    between atoms: C9_12  and  N4_13 
REMARK    1  A    between atoms: C10_15  and  C11_16 
ROOT
HETATM    1  C1  UNL     1      19.539   3.702  50.314  1.00  0.00     0.177 A 
HETATM    2  C2  UNL     1      20.603   4.193  50.922  1.00  0.00     0.055 A 
HETATM    3  N1  UNL     1      19.726   3.713  51.904  1.00  0.00    -0.168 NA
HETATM    4  N2  UNL     1      19.967   2.731  52.719  1.00  0.00    -0.194 NA
HETATM    5  C3  UNL     1      21.291   2.184  52.477  1.00  0.00     0.073 A 
HETATM    6  C4  UNL     1      21.825   0.979  52.091  1.00  0.00     0.033 A 
HETATM    7  C5  UNL     1      23.184   0.936  51.872  1.00  0.00     0.005 A 
HETATM    8  C6  UNL     1      23.972   2.055  52.032  1.00  0.00     0.029 A 
HETATM    9  C7  UNL     1      23.477   3.284  52.419  1.00  0.00     0.033 A 
HETATM   10  C8  UNL     1      22.123   3.268  52.627  1.00  0.00     0.062 A 
HETATM   11  N3  UNL     1      24.248   4.473  52.504  1.00  0.00    -0.343 N 
HETATM   12  C9  UNL     1      23.377   5.521  51.938  1.00  0.00     0.444 C 
HETATM   13  N4  UNL     1      24.343   6.663  51.811  1.00  0.00     0.122 N 
HETATM   14  N5  UNL     1      22.708   5.239  50.798  1.00  0.00    -0.233 NA
HETATM   15  C10 UNL     1      21.745   4.786  50.253  1.00  0.00     0.087 C 
HETATM   16  H7  UNL     1      25.160   4.220  52.929  1.00  0.00     0.163 HD
HETATM   17  H9  UNL     1      23.732   7.461  51.511  1.00  0.00     0.317 HD
HETATM   18  H10 UNL     1      24.724   6.817  52.775  1.00  0.00     0.317 HD
ENDROOT
BRANCH  15  19
HETATM   19  C11 UNL     1      21.785   4.867  48.808  1.00  0.00     0.011 A 
HETATM   20  C12 UNL     1      22.027   3.984  47.786  1.00  0.00     0.017 A 
HETATM   21  C13 UNL     1      22.031   4.205  46.437  1.00  0.00     0.020 A 
HETATM   22  C14 UNL     1      21.757   5.475  45.986  1.00  0.00     0.116 A 
HETATM   23  N6  UNL     1      21.505   6.418  46.904  1.00  0.00    -0.272 NA
HETATM   24  C15 UNL     1      21.525   6.103  48.207  1.00  0.00     0.130 A 
ENDBRANCH  15  19
TORSDOF 1
ENDMDL
