MODEL 1
REMARK VINA RESULT:      -8.7      0.000      0.000
REMARK  3 active torsions:
REMARK  status: ('A' for Active; 'I' for Inactive)
REMARK    1  A    between atoms: C9_9  and  N1_10 
REMARK    2  A    between atoms: N1_10  and  C10_11 
REMARK    3  A    between atoms: C10_11  and  C12_13 
ROOT
HETATM    1  N1  UNL     1      25.429   3.135  52.207  1.00  0.00    -0.385 N 
HETATM    2  H9  UNL     1      25.118   3.792  52.954  1.00  0.00     0.160 HD
ENDROOT
BRANCH   1   3
HETATM    3  C9  UNL     1      26.369   2.111  52.515  1.00  0.00     0.010 A 
HETATM    4  C8  UNL     1      26.146   0.640  52.304  1.00  0.00     0.096 A 
HETATM    5  C7  UNL     1      27.394   0.036  52.775  1.00  0.00    -0.036 A 
HETATM    6  C2  UNL     1      27.763  -1.300  52.820  1.00  0.00    -0.054 A 
HETATM    7  C6  UNL     1      28.274   1.000  53.220  1.00  0.00    -0.027 A 
HETATM    8  C1  UNL     1      26.894  -2.389  52.371  1.00  0.00     0.049 C 
HETATM    9  C3  UNL     1      29.010  -1.601  53.316  1.00  0.00     0.007 A 
HETATM   10  C4  UNL     1      29.908  -0.657  53.767  1.00  0.00     0.001 A 
HETATM   11  C5  UNL     1      29.521   0.673  53.713  1.00  0.00     0.012 A 
HETATM   12  C18 UNL     1      27.577   2.246  53.030  1.00  0.00     0.037 A 
ENDBRANCH   1   3
BRANCH   1  13
HETATM   13  C10 UNL     1      24.944   3.215  50.845  1.00  0.00     0.110 C 
HETATM   14  C11 UNL     1      23.454   3.415  50.798  1.00  0.00     0.037 C 
BRANCH  13  15
HETATM   15  C12 UNL     1      25.697   4.222  50.053  1.00  0.00    -0.036 A 
HETATM   16  C13 UNL     1      26.863   3.822  49.392  1.00  0.00     0.012 A 
HETATM   17  C14 UNL     1      27.615   4.714  48.634  1.00  0.00     0.043 A 
HETATM   18  C15 UNL     1      27.166   6.023  48.554  1.00  0.00     0.116 A 
HETATM   19  F1  UNL     1      27.867   6.929  47.826  1.00  0.00    -0.206 F 
HETATM   20  C16 UNL     1      26.030   6.441  49.189  1.00  0.00     0.043 A 
HETATM   21  C17 UNL     1      25.273   5.550  49.951  1.00  0.00     0.012 A 
ENDBRANCH  13  15
ENDBRANCH   1  13
TORSDOF 3
ENDMDL
MODEL 2
REMARK VINA RESULT:      -8.4      4.040      6.690
REMARK  3 active torsions:
REMARK  status: ('A' for Active; 'I' for Inactive)
REMARK    1  A    between atoms: C9_9  and  N1_10 
REMARK    2  A    between atoms: N1_10  and  C10_11 
REMARK    3  A    between atoms: C10_11  and  C12_13 
ROOT
HETATM    1  N1  UNL     1      25.123   1.999  52.896  1.00  0.00    -0.385 N 
HETATM    2  H9  UNL     1      25.311   2.848  53.472  1.00  0.00     0.160 HD
ENDROOT
BRANCH   1   3
HETATM    3  C9  UNL     1      23.912   1.276  53.083  1.00  0.00     0.010 A 
HETATM    4  C8  UNL     1      22.568   1.686  52.548  1.00  0.00     0.096 A 
HETATM    5  C7  UNL     1      21.678   0.619  53.012  1.00  0.00    -0.036 A 
HETATM    6  C2  UNL     1      20.313   0.465  52.817  1.00  0.00    -0.054 A 
HETATM    7  C6  UNL     1      22.373  -0.326  53.737  1.00  0.00    -0.027 A 
HETATM    8  C1  UNL     1      19.497   1.418  52.063  1.00  0.00     0.049 C 
HETATM    9  C3  UNL     1      19.712  -0.642  53.368  1.00  0.00     0.007 A 
HETATM   10  C4  UNL     1      20.383  -1.602  54.096  1.00  0.00     0.001 A 
HETATM   11  C5  UNL     1      21.746  -1.429  54.279  1.00  0.00     0.012 A 
HETATM   12  C18 UNL     1      23.734   0.143  53.738  1.00  0.00     0.037 A 
ENDBRANCH   1   3
BRANCH   1  13
HETATM   13  C10 UNL     1      26.052   1.511  51.899  1.00  0.00     0.110 C 
HETATM   14  C11 UNL     1      26.483   2.605  50.960  1.00  0.00     0.037 C 
BRANCH  13  15
HETATM   15  C12 UNL     1      27.193   0.788  52.519  1.00  0.00    -0.036 A 
HETATM   16  C13 UNL     1      27.186  -0.612  52.511  1.00  0.00     0.012 A 
HETATM   17  C14 UNL     1      28.221  -1.350  53.074  1.00  0.00     0.043 A 
HETATM   18  C15 UNL     1      29.269  -0.648  53.649  1.00  0.00     0.116 A 
HETATM   19  F1  UNL     1      30.302  -1.327  54.210  1.00  0.00    -0.206 F 
HETATM   20  C16 UNL     1      29.302   0.718  53.671  1.00  0.00     0.043 A 
HETATM   21  C17 UNL     1      28.266   1.464  53.107  1.00  0.00     0.012 A 
ENDBRANCH  13  15
ENDBRANCH   1  13
TORSDOF 3
ENDMDL
MODEL 3
REMARK VINA RESULT:      -8.3      4.241      6.097
REMARK  3 active torsions:
REMARK  status: ('A' for Active; 'I' for Inactive)
REMARK    1  A    between atoms: C9_9  and  N1_10 
REMARK    2  A    between atoms: N1_10  and  C10_11 
REMARK    3  A    between atoms: C10_11  and  C12_13 
ROOT
HETATM    1  N1  UNL     1      24.316   1.287  51.792  1.00  0.00    -0.385 N 
HETATM    2  H9  UNL     1      24.096   1.274  50.773  1.00  0.00     0.160 HD
ENDROOT
BRANCH   1   3
HETATM    3  C9  UNL     1      25.578   0.812  52.247  1.00  0.00     0.010 A 
HETATM    4  C8  UNL     1      26.658   1.666  52.850  1.00  0.00     0.096 A 
HETATM    5  C7  UNL     1      27.726   0.708  53.141  1.00  0.00    -0.036 A 
HETATM    6  C2  UNL     1      28.973   0.926  53.707  1.00  0.00    -0.054 A 
HETATM    7  C6  UNL     1      27.362  -0.569  52.769  1.00  0.00    -0.027 A 
HETATM    8  C1  UNL     1      29.444   2.246  54.131  1.00  0.00     0.049 C 
HETATM    9  C3  UNL     1      29.798  -0.163  53.872  1.00  0.00     0.007 A 
HETATM   10  C4  UNL     1      29.457  -1.449  53.508  1.00  0.00     0.001 A 
HETATM   11  C5  UNL     1      28.207  -1.645  52.944  1.00  0.00     0.012 A 
HETATM   12  C18 UNL     1      26.034  -0.427  52.229  1.00  0.00     0.037 A 
ENDBRANCH   1   3
BRANCH   1  13
HETATM   13  C10 UNL     1      23.382   1.774  52.785  1.00  0.00     0.110 C 
HETATM   14  C11 UNL     1      22.759   3.079  52.369  1.00  0.00     0.037 C 
BRANCH  13  15
HETATM   15  C12 UNL     1      22.382   0.738  53.153  1.00  0.00    -0.036 A 
HETATM   16  C13 UNL     1      21.091   0.830  52.621  1.00  0.00     0.012 A 
HETATM   17  C14 UNL     1      20.108  -0.106  52.924  1.00  0.00     0.043 A 
HETATM   18  C15 UNL     1      20.452  -1.142  53.777  1.00  0.00     0.116 A 
HETATM   19  F1  UNL     1      19.525  -2.080  54.101  1.00  0.00    -0.206 F 
HETATM   20  C16 UNL     1      21.705  -1.258  54.311  1.00  0.00     0.043 A 
HETATM   21  C17 UNL     1      22.695  -0.321  54.011  1.00  0.00     0.012 A 
ENDBRANCH  13  15
ENDBRANCH   1  13
TORSDOF 3
ENDMDL
MODEL 4
REMARK VINA RESULT:      -8.2      2.484      3.548
REMARK  3 active torsions:
REMARK  status: ('A' for Active; 'I' for Inactive)
REMARK    1  A    between atoms: C9_9  and  N1_10 
REMARK    2  A    between atoms: N1_10  and  C10_11 
REMARK    3  A    between atoms: C10_11  and  C12_13 
ROOT
HETATM    1  N1  UNL     1      25.445   3.067  52.347  1.00  0.00    -0.385 N 
HETATM    2  H9  UNL     1      24.919   3.505  53.134  1.00  0.00     0.160 HD
ENDROOT
BRANCH   1   3
HETATM    3  C9  UNL     1      26.403   2.051  52.619  1.00  0.00     0.010 A 
HETATM    4  C8  UNL     1      26.193   0.580  52.395  1.00  0.00     0.096 A 
HETATM    5  C7  UNL     1      27.459  -0.015  52.827  1.00  0.00    -0.036 A 
HETATM    6  C2  UNL     1      27.845  -1.347  52.847  1.00  0.00    -0.054 A 
HETATM    7  C6  UNL     1      28.339   0.954  53.263  1.00  0.00    -0.027 A 
HETATM    8  C1  UNL     1      26.977  -2.441  52.404  1.00  0.00     0.049 C 
HETATM    9  C3  UNL     1      29.107  -1.639  53.307  1.00  0.00     0.007 A 
HETATM   10  C4  UNL     1      30.005  -0.690  53.748  1.00  0.00     0.001 A 
HETATM   11  C5  UNL     1      29.600   0.636  53.720  1.00  0.00     0.012 A 
HETATM   12  C18 UNL     1      27.622   2.194  53.106  1.00  0.00     0.037 A 
ENDBRANCH   1   3
BRANCH   1  13
HETATM   13  C10 UNL     1      25.243   3.449  50.965  1.00  0.00     0.110 C 
HETATM   14  C11 UNL     1      26.489   3.249  50.146  1.00  0.00     0.037 C 
BRANCH  13  15
HETATM   15  C12 UNL     1      24.045   2.789  50.383  1.00  0.00    -0.036 A 
HETATM   16  C13 UNL     1      23.732   3.028  49.040  1.00  0.00     0.012 A 
HETATM   17  C14 UNL     1      22.625   2.442  48.433  1.00  0.00     0.043 A 
HETATM   18  C15 UNL     1      21.838   1.607  49.209  1.00  0.00     0.116 A 
HETATM   19  F1  UNL     1      20.748   1.013  48.659  1.00  0.00    -0.206 F 
HETATM   20  C16 UNL     1      22.120   1.355  50.522  1.00  0.00     0.043 A 
HETATM   21  C17 UNL     1      23.228   1.941  51.136  1.00  0.00     0.012 A 
ENDBRANCH  13  15
ENDBRANCH   1  13
TORSDOF 3
ENDMDL
MODEL 5
REMARK VINA RESULT:      -8.2      3.952      6.561
REMARK  3 active torsions:
REMARK  status: ('A' for Active; 'I' for Inactive)
REMARK    1  A    between atoms: C9_9  and  N1_10 
REMARK    2  A    between atoms: N1_10  and  C10_11 
REMARK    3  A    between atoms: C10_11  and  C12_13 
ROOT
HETATM    1  N1  UNL     1      24.824   2.484  52.420  1.00  0.00    -0.385 N 
HETATM    2  H9  UNL     1      24.984   3.361  52.961  1.00  0.00     0.160 HD
ENDROOT
BRANCH   1   3
HETATM    3  C9  UNL     1      23.596   1.780  52.567  1.00  0.00     0.010 A 
HETATM    4  C8  UNL     1      23.387   0.578  53.445  1.00  0.00     0.096 A 
HETATM    5  C7  UNL     1      21.975   0.247  53.238  1.00  0.00    -0.036 A 
HETATM    6  C2  UNL     1      21.221  -0.776  53.794  1.00  0.00    -0.054 A 
HETATM    7  C6  UNL     1      21.386   1.122  52.351  1.00  0.00    -0.027 A 
HETATM    8  C1  UNL     1      21.763  -1.750  54.742  1.00  0.00     0.049 C 
HETATM    9  C3  UNL     1      19.899  -0.866  53.425  1.00  0.00     0.007 A 
HETATM   10  C4  UNL     1      19.286  -0.003  52.540  1.00  0.00     0.001 A 
HETATM   11  C5  UNL     1      20.057   1.011  51.996  1.00  0.00     0.012 A 
HETATM   12  C18 UNL     1      22.439   2.033  51.982  1.00  0.00     0.037 A 
ENDBRANCH   1   3
BRANCH   1  13
HETATM   13  C10 UNL     1      25.809   1.937  51.510  1.00  0.00     0.110 C 
HETATM   14  C11 UNL     1      26.390   3.000  50.618  1.00  0.00     0.037 C 
BRANCH  13  15
HETATM   15  C12 UNL     1      26.841   1.146  52.230  1.00  0.00    -0.036 A 
HETATM   16  C13 UNL     1      27.866   1.826  52.897  1.00  0.00     0.012 A 
HETATM   17  C14 UNL     1      28.862   1.147  53.590  1.00  0.00     0.043 A 
HETATM   18  C15 UNL     1      28.806  -0.238  53.597  1.00  0.00     0.116 A 
HETATM   19  F1  UNL     1      29.758  -0.943  54.261  1.00  0.00    -0.206 F 
HETATM   20  C16 UNL     1      27.817  -0.928  52.955  1.00  0.00     0.043 A 
HETATM   21  C17 UNL     1      26.815  -0.252  52.258  1.00  0.00     0.012 A 
ENDBRANCH  13  15
ENDBRANCH   1  13
TORSDOF 3
ENDMDL
MODEL 6
REMARK VINA RESULT:      -8.1      2.440      6.652
REMARK  3 active torsions:
REMARK  status: ('A' for Active; 'I' for Inactive)
REMARK    1  A    between atoms: C9_9  and  N1_10 
REMARK    2  A    between atoms: N1_10  and  C10_11 
REMARK    3  A    between atoms: C10_11  and  C12_13 
ROOT
HETATM    1  N1  UNL     1      24.637   2.080  50.992  1.00  0.00    -0.385 N 
HETATM    2  H9  UNL     1      24.059   1.438  50.409  1.00  0.00     0.160 HD
ENDROOT
BRANCH   1   3
HETATM    3  C9  UNL     1      25.307   3.177  50.381  1.00  0.00     0.010 A 
HETATM    4  C8  UNL     1      24.809   4.594  50.364  1.00  0.00     0.096 A 
HETATM    5  C7  UNL     1      25.849   5.312  49.623  1.00  0.00    -0.036 A 
HETATM    6  C2  UNL     1      25.926   6.657  49.295  1.00  0.00    -0.054 A 
HETATM    7  C6  UNL     1      26.857   4.456  49.230  1.00  0.00    -0.027 A 
HETATM    8  C1  UNL     1      24.903   7.635  49.669  1.00  0.00     0.049 C 
HETATM    9  C3  UNL     1      27.025   7.077  48.582  1.00  0.00     0.007 A 
HETATM   10  C4  UNL     1      28.046   6.243  48.178  1.00  0.00     0.001 A 
HETATM   11  C5  UNL     1      27.949   4.902  48.516  1.00  0.00     0.012 A 
HETATM   12  C18 UNL     1      26.456   3.166  49.730  1.00  0.00     0.037 A 
ENDBRANCH   1   3
BRANCH   1  13
HETATM   13  C10 UNL     1      24.795   1.906  52.421  1.00  0.00     0.110 C 
HETATM   14  C11 UNL     1      23.591   1.249  53.037  1.00  0.00     0.037 C 
BRANCH  13  15
HETATM   15  C12 UNL     1      26.072   1.221  52.753  1.00  0.00    -0.036 A 
HETATM   16  C13 UNL     1      27.088   1.956  53.374  1.00  0.00     0.012 A 
HETATM   17  C14 UNL     1      28.306   1.376  53.711  1.00  0.00     0.043 A 
HETATM   18  C15 UNL     1      28.482   0.035  53.409  1.00  0.00     0.116 A 
HETATM   19  F1  UNL     1      29.655  -0.574  53.720  1.00  0.00    -0.206 F 
HETATM   20  C16 UNL     1      27.507  -0.707  52.803  1.00  0.00     0.043 A 
HETATM   21  C17 UNL     1      26.283  -0.130  52.462  1.00  0.00     0.012 A 
ENDBRANCH  13  15
ENDBRANCH   1  13
TORSDOF 3
ENDMDL
MODEL 7
REMARK VINA RESULT:      -8.1      2.518      6.921
REMARK  3 active torsions:
REMARK  status: ('A' for Active; 'I' for Inactive)
REMARK    1  A    between atoms: C9_9  and  N1_10 
REMARK    2  A    between atoms: N1_10  and  C10_11 
REMARK    3  A    between atoms: C10_11  and  C12_13 
ROOT
HETATM    1  N1  UNL     1      24.992   2.413  50.770  1.00  0.00    -0.385 N 
HETATM    2  H9  UNL     1      24.538   1.624  50.261  1.00  0.00     0.160 HD
ENDROOT
BRANCH   1   3
HETATM    3  C9  UNL     1      25.406   3.569  50.051  1.00  0.00     0.010 A 
HETATM    4  C8  UNL     1      26.815   3.858  49.615  1.00  0.00     0.096 A 
HETATM    5  C7  UNL     1      26.700   5.147  48.927  1.00  0.00    -0.036 A 
HETATM    6  C2  UNL     1      27.685   5.907  48.315  1.00  0.00    -0.054 A 
HETATM    7  C6  UNL     1      25.397   5.598  48.935  1.00  0.00    -0.027 A 
HETATM    8  C1  UNL     1      29.092   5.507  48.259  1.00  0.00     0.049 C 
HETATM    9  C3  UNL     1      27.304   7.095  47.735  1.00  0.00     0.007 A 
HETATM   10  C4  UNL     1      26.009   7.569  47.729  1.00  0.00     0.001 A 
HETATM   11  C5  UNL     1      25.041   6.794  48.347  1.00  0.00     0.012 A 
HETATM   12  C18 UNL     1      24.663   4.580  49.641  1.00  0.00     0.037 A 
ENDBRANCH   1   3
BRANCH   1  13
HETATM   13  C10 UNL     1      25.227   2.387  52.199  1.00  0.00     0.110 C 
HETATM   14  C11 UNL     1      23.958   2.133  52.965  1.00  0.00     0.037 C 
BRANCH  13  15
HETATM   15  C12 UNL     1      26.326   1.454  52.557  1.00  0.00    -0.036 A 
HETATM   16  C13 UNL     1      27.507   1.980  53.094  1.00  0.00     0.012 A 
HETATM   17  C14 UNL     1      28.574   1.163  53.452  1.00  0.00     0.043 A 
HETATM   18  C15 UNL     1      28.429  -0.201  53.256  1.00  0.00     0.116 A 
HETATM   19  F1  UNL     1      29.444  -1.038  53.590  1.00  0.00    -0.206 F 
HETATM   20  C16 UNL     1      27.287  -0.743  52.734  1.00  0.00     0.043 A 
HETATM   21  C17 UNL     1      26.214   0.073  52.374  1.00  0.00     0.012 A 
ENDBRANCH  13  15
ENDBRANCH   1  13
TORSDOF 3
ENDMDL
MODEL 8
REMARK VINA RESULT:      -8.1      1.690      2.811
REMARK  3 active torsions:
REMARK  status: ('A' for Active; 'I' for Inactive)
REMARK    1  A    between atoms: C9_9  and  N1_10 
REMARK    2  A    between atoms: N1_10  and  C10_11 
REMARK    3  A    between atoms: C10_11  and  C12_13 
ROOT
HETATM    1  N1  UNL     1      25.217   4.425  50.817  1.00  0.00    -0.385 N 
HETATM    2  H9  UNL     1      25.119   5.249  51.448  1.00  0.00     0.160 HD
ENDROOT
BRANCH   1   3
HETATM    3  C9  UNL     1      25.342   3.122  51.375  1.00  0.00     0.010 A 
HETATM    4  C8  UNL     1      24.253   2.383  52.100  1.00  0.00     0.096 A 
HETATM    5  C7  UNL     1      24.887   1.113  52.462  1.00  0.00    -0.036 A 
HETATM    6  C2  UNL     1      24.358   0.030  53.149  1.00  0.00    -0.054 A 
HETATM    7  C6  UNL     1      26.193   1.068  52.023  1.00  0.00    -0.027 A 
HETATM    8  C1  UNL     1      22.984  -0.009  53.651  1.00  0.00     0.049 C 
HETATM    9  C3  UNL     1      25.179  -1.053  53.360  1.00  0.00     0.007 A 
HETATM   10  C4  UNL     1      26.488  -1.123  52.932  1.00  0.00     0.001 A 
HETATM   11  C5  UNL     1      26.997  -0.031  52.248  1.00  0.00     0.012 A 
HETATM   12  C18 UNL     1      26.401   2.333  51.366  1.00  0.00     0.037 A 
ENDBRANCH   1   3
BRANCH   1  13
HETATM   13  C10 UNL     1      25.232   4.544  49.374  1.00  0.00     0.110 C 
HETATM   14  C11 UNL     1      23.940   5.109  48.850  1.00  0.00     0.037 C 
BRANCH  13  15
HETATM   15  C12 UNL     1      26.431   5.283  48.897  1.00  0.00    -0.036 A 
HETATM   16  C13 UNL     1      26.321   6.656  48.651  1.00  0.00     0.012 A 
HETATM   17  C14 UNL     1      27.404   7.406  48.204  1.00  0.00     0.043 A 
HETATM   18  C15 UNL     1      28.605   6.743  48.008  1.00  0.00     0.116 A 
HETATM   19  F1  UNL     1      29.689   7.435  47.573  1.00  0.00    -0.206 F 
HETATM   20  C16 UNL     1      28.741   5.403  48.241  1.00  0.00     0.043 A 
HETATM   21  C17 UNL     1      27.658   4.646  48.689  1.00  0.00     0.012 A 
ENDBRANCH  13  15
ENDBRANCH   1  13
TORSDOF 3
ENDMDL
MODEL 9
REMARK VINA RESULT:      -8.0      3.686      6.761
REMARK  3 active torsions:
REMARK  status: ('A' for Active; 'I' for Inactive)
REMARK    1  A    between atoms: C9_9  and  N1_10 
REMARK    2  A    between atoms: N1_10  and  C10_11 
REMARK    3  A    between atoms: C10_11  and  C12_13 
ROOT
HETATM    1  N1  UNL     1      26.195   2.116  53.542  1.00  0.00    -0.385 N 
HETATM    2  H9  UNL     1      26.124   2.541  54.491  1.00  0.00     0.160 HD
ENDROOT
BRANCH   1   3
HETATM    3  C9  UNL     1      25.010   1.797  52.822  1.00  0.00     0.010 A 
HETATM    4  C8  UNL     1      23.887   0.943  53.338  1.00  0.00     0.096 A 
HETATM    5  C7  UNL     1      22.931   0.930  52.229  1.00  0.00    -0.036 A 
HETATM    6  C2  UNL     1      21.700   0.299  52.135  1.00  0.00    -0.054 A 
HETATM    7  C6  UNL     1      23.397   1.674  51.165  1.00  0.00    -0.027 A 
HETATM    8  C1  UNL     1      21.128  -0.511  53.212  1.00  0.00     0.049 C 
HETATM    9  C3  UNL     1      20.994   0.449  50.964  1.00  0.00     0.007 A 
HETATM   10  C4  UNL     1      21.437   1.187  49.887  1.00  0.00     0.001 A 
HETATM   11  C5  UNL     1      22.669   1.811  50.001  1.00  0.00     0.012 A 
HETATM   12  C18 UNL     1      24.675   2.174  51.602  1.00  0.00     0.037 A 
ENDBRANCH   1   3
BRANCH   1  13
HETATM   13  C10 UNL     1      27.466   1.827  52.910  1.00  0.00     0.110 C 
HETATM   14  C11 UNL     1      28.561   2.714  53.436  1.00  0.00     0.037 C 
BRANCH  13  15
HETATM   15  C12 UNL     1      27.798   0.380  52.981  1.00  0.00    -0.036 A 
HETATM   16  C13 UNL     1      29.024  -0.002  53.537  1.00  0.00     0.012 A 
HETATM   17  C14 UNL     1      29.397  -1.339  53.634  1.00  0.00     0.043 A 
HETATM   18  C15 UNL     1      28.506  -2.287  53.158  1.00  0.00     0.116 A 
HETATM   19  F1  UNL     1      28.826  -3.604  53.232  1.00  0.00    -0.206 F 
HETATM   20  C16 UNL     1      27.301  -1.943  52.611  1.00  0.00     0.043 A 
HETATM   21  C17 UNL     1      26.923  -0.603  52.511  1.00  0.00     0.012 A 
ENDBRANCH  13  15
ENDBRANCH   1  13
TORSDOF 3
ENDMDL
