MODEL 1
REMARK VINA RESULT:      -7.3      0.000      0.000
REMARK  3 active torsions:
REMARK  status: ('A' for Active; 'I' for Inactive)
REMARK    1  A    between atoms: N1_1  and  C1_2 
REMARK    2  A    between atoms: C5_7  and  N3_8 
REMARK       I    between atoms: N3_8  and  C6_9 
REMARK    3  A    between atoms: C6_9  and  C7_11 
ROOT
HETATM    1  C1  UNL     1      23.547   2.570  52.167  1.00  0.00     0.148 C 
HETATM    2  N2  UNL     1      24.655   1.929  52.086  1.00  0.00    -0.241 NA
HETATM    3  C2  UNL     1      25.904   2.483  52.469  1.00  0.00     0.131 C 
HETATM    4  C3  UNL     1      26.704   1.836  51.633  1.00  0.00    -0.005 C 
HETATM    5  C4  UNL     1      26.518   0.532  51.479  1.00  0.00     0.043 C 
HETATM    6  C5  UNL     1      25.990  -0.056  52.688  1.00  0.00     0.035 C 
HETATM    7  C8  UNL     1      25.038  -0.454  53.564  1.00  0.00     0.031 C 
HETATM    8  C9  UNL     1      23.593  -0.429  53.647  1.00  0.00     0.020 C 
HETATM    9  C10 UNL     1      22.449  -0.123  53.140  1.00  0.00     0.097 C 
HETATM   10  N4  UNL     1      22.001   0.495  51.939  1.00  0.00    -0.330 N 
HETATM   11  C11 UNL     1      21.120   0.214  50.962  1.00  0.00     0.097 A 
HETATM   12  C12 UNL     1      21.069   1.191  49.989  1.00  0.00     0.020 A 
HETATM   13  C13 UNL     1      22.007   2.137  50.432  1.00  0.00     0.035 A 
HETATM   14  C14 UNL     1      22.549   1.653  51.637  1.00  0.00     0.084 A 
ENDROOT
BRANCH   6  15
HETATM   15  N3  UNL     1      27.319  -0.427  53.132  1.00  0.00    -0.326 N 
HETATM   16  C6  UNL     1      28.294  -0.129  54.099  1.00  0.00     0.235 C 
HETATM   17  O1  UNL     1      28.040   0.754  54.933  1.00  0.00    -0.272 OA
HETATM   18  H5  UNL     1      27.645  -1.197  52.465  1.00  0.00     0.169 HD
BRANCH  16  19
HETATM   19  C7  UNL     1      29.604  -0.826  54.161  1.00  0.00     0.217 C 
HETATM   20 CL1  UNL     1      29.475  -2.396  53.328  1.00  0.00    -0.121 Cl
ENDBRANCH  16  19
ENDBRANCH   6  15
BRANCH   1  21
HETATM   21  N1  UNL     1      23.212   3.875  52.608  1.00  0.00    -0.382 N 
HETATM   22  H1  UNL     1      23.076   3.668  53.644  1.00  0.00     0.157 HD
HETATM   23  H2  UNL     1      23.326   4.169  51.597  1.00  0.00     0.157 HD
ENDBRANCH   1  21
TORSDOF 3
ENDMDL
MODEL 2
REMARK VINA RESULT:      -7.1      1.982      3.385
REMARK  3 active torsions:
REMARK  status: ('A' for Active; 'I' for Inactive)
REMARK    1  A    between atoms: N1_1  and  C1_2 
REMARK    2  A    between atoms: C5_7  and  N3_8 
REMARK       I    between atoms: N3_8  and  C6_9 
REMARK    3  A    between atoms: C6_9  and  C7_11 
ROOT
HETATM    1  C1  UNL     1      23.083   2.165  51.122  1.00  0.00     0.148 C 
HETATM    2  N2  UNL     1      24.080   1.925  51.894  1.00  0.00    -0.241 NA
HETATM    3  C2  UNL     1      24.460   0.617  52.291  1.00  0.00     0.131 C 
HETATM    4  C3  UNL     1      24.974   0.882  53.484  1.00  0.00    -0.005 C 
HETATM    5  C4  UNL     1      25.786   1.926  53.591  1.00  0.00     0.043 C 
HETATM    6  C5  UNL     1      26.493   2.155  52.352  1.00  0.00     0.035 C 
HETATM    7  C8  UNL     1      26.699   2.659  51.114  1.00  0.00     0.031 C 
HETATM    8  C9  UNL     1      25.995   3.518  50.185  1.00  0.00     0.020 C 
HETATM    9  C10 UNL     1      24.971   4.242  49.887  1.00  0.00     0.097 C 
HETATM   10  N4  UNL     1      23.758   4.604  50.536  1.00  0.00    -0.330 N 
HETATM   11  C11 UNL     1      23.097   5.742  50.814  1.00  0.00     0.097 A 
HETATM   12  C12 UNL     1      21.915   5.524  51.491  1.00  0.00     0.020 A 
HETATM   13  C13 UNL     1      21.873   4.127  51.626  1.00  0.00     0.035 A 
HETATM   14  C14 UNL     1      23.035   3.615  51.019  1.00  0.00     0.084 A 
ENDROOT
BRANCH   6  15
HETATM   15  N3  UNL     1      27.629   1.384  52.815  1.00  0.00    -0.326 N 
HETATM   16  C6  UNL     1      28.767   1.460  53.637  1.00  0.00     0.235 C 
HETATM   17  O1  UNL     1      28.983   2.523  54.238  1.00  0.00    -0.272 OA
HETATM   18  H5  UNL     1      27.546   0.428  52.344  1.00  0.00     0.169 HD
BRANCH  16  19
HETATM   19  C7  UNL     1      29.711   0.326  53.811  1.00  0.00     0.217 C 
HETATM   20 CL1  UNL     1      28.922  -1.182  53.285  1.00  0.00    -0.121 Cl
ENDBRANCH  16  19
ENDBRANCH   6  15
BRANCH   1  21
HETATM   21  N1  UNL     1      22.137   1.331  50.475  1.00  0.00    -0.382 N 
HETATM   22  H1  UNL     1      21.620   2.076  49.915  1.00  0.00     0.157 HD
HETATM   23  H2  UNL     1      22.593   0.530  50.995  1.00  0.00     0.157 HD
ENDBRANCH   1  21
TORSDOF 3
ENDMDL
MODEL 3
REMARK VINA RESULT:      -6.9      4.035      6.658
REMARK  3 active torsions:
REMARK  status: ('A' for Active; 'I' for Inactive)
REMARK    1  A    between atoms: N1_1  and  C1_2 
REMARK    2  A    between atoms: C5_7  and  N3_8 
REMARK       I    between atoms: N3_8  and  C6_9 
REMARK    3  A    between atoms: C6_9  and  C7_11 
ROOT
HETATM    1  C1  UNL     1      23.946  -0.269  53.681  1.00  0.00     0.148 C 
HETATM    2  N2  UNL     1      23.235   0.306  52.781  1.00  0.00    -0.241 NA
HETATM    3  C2  UNL     1      21.818   0.234  52.745  1.00  0.00     0.131 C 
HETATM    4  C3  UNL     1      21.619   0.323  51.437  1.00  0.00    -0.005 C 
HETATM    5  C4  UNL     1      22.305   1.240  50.767  1.00  0.00     0.043 C 
HETATM    6  C5  UNL     1      22.594   2.379  51.607  1.00  0.00     0.035 C 
HETATM    7  C8  UNL     1      23.291   3.121  52.497  1.00  0.00     0.031 C 
HETATM    8  C9  UNL     1      24.521   2.998  53.253  1.00  0.00     0.020 C 
HETATM    9  C10 UNL     1      25.573   2.329  53.574  1.00  0.00     0.097 C 
HETATM   10  N4  UNL     1      26.125   1.067  53.215  1.00  0.00    -0.330 N 
HETATM   11  C11 UNL     1      27.310   0.604  52.780  1.00  0.00     0.097 A 
HETATM   12  C12 UNL     1      27.312  -0.761  52.578  1.00  0.00     0.020 A 
HETATM   13  C13 UNL     1      26.005  -1.140  52.927  1.00  0.00     0.035 A 
HETATM   14  C14 UNL     1      25.322   0.028  53.311  1.00  0.00     0.084 A 
ENDROOT
BRANCH   6  15
HETATM   15  N3  UNL     1      21.424   3.081  51.120  1.00  0.00    -0.326 N 
HETATM   16  C6  UNL     1      20.146   3.520  51.507  1.00  0.00     0.235 C 
HETATM   17  O1  UNL     1      19.772   3.279  52.665  1.00  0.00    -0.272 OA
HETATM   18  H5  UNL     1      21.639   3.338  50.104  1.00  0.00     0.169 HD
BRANCH  16  19
HETATM   19  C7  UNL     1      19.237   4.256  50.592  1.00  0.00     0.217 C 
HETATM   20 CL1  UNL     1      17.560   4.093  51.173  1.00  0.00    -0.121 Cl
ENDBRANCH  16  19
ENDBRANCH   6  15
BRANCH   1  21
HETATM   21  N1  UNL     1      23.624  -1.067  54.807  1.00  0.00    -0.382 N 
HETATM   22  H1  UNL     1      23.378  -0.291  55.493  1.00  0.00     0.157 HD
HETATM   23  H2  UNL     1      23.850  -1.899  54.192  1.00  0.00     0.157 HD
ENDBRANCH   1  21
TORSDOF 3
ENDMDL
MODEL 4
REMARK VINA RESULT:      -6.4      3.543      5.240
REMARK  3 active torsions:
REMARK  status: ('A' for Active; 'I' for Inactive)
REMARK    1  A    between atoms: N1_1  and  C1_2 
REMARK    2  A    between atoms: C5_7  and  N3_8 
REMARK       I    between atoms: N3_8  and  C6_9 
REMARK    3  A    between atoms: C6_9  and  C7_11 
ROOT
HETATM    1  C1  UNL     1      24.095   0.084  53.083  1.00  0.00     0.148 C 
HETATM    2  N2  UNL     1      24.132   1.361  52.960  1.00  0.00    -0.241 NA
HETATM    3  C2  UNL     1      25.338   2.095  52.824  1.00  0.00     0.131 C 
HETATM    4  C3  UNL     1      24.977   3.233  53.400  1.00  0.00    -0.005 C 
HETATM    5  C4  UNL     1      23.792   3.740  53.083  1.00  0.00     0.043 C 
HETATM    6  C5  UNL     1      23.427   3.381  51.733  1.00  0.00     0.035 C 
HETATM    7  C8  UNL     1      22.890   2.620  50.751  1.00  0.00     0.031 C 
HETATM    8  C9  UNL     1      22.188   1.358  50.648  1.00  0.00     0.020 C 
HETATM    9  C10 UNL     1      21.682   0.311  51.204  1.00  0.00     0.097 C 
HETATM   10  N4  UNL     1      21.570  -0.181  52.534  1.00  0.00    -0.330 N 
HETATM   11  C11 UNL     1      20.587  -0.638  53.330  1.00  0.00     0.097 A 
HETATM   12  C12 UNL     1      21.037  -1.004  54.582  1.00  0.00     0.020 A 
HETATM   13  C13 UNL     1      22.414  -0.738  54.521  1.00  0.00     0.035 A 
HETATM   14  C14 UNL     1      22.683  -0.233  53.235  1.00  0.00     0.084 A 
ENDROOT
BRANCH   6  15
HETATM   15  N3  UNL     1      23.956   4.628  51.218  1.00  0.00    -0.326 N 
HETATM   16  C6  UNL     1      24.999   5.159  50.440  1.00  0.00     0.235 C 
HETATM   17  O1  UNL     1      25.832   4.372  49.965  1.00  0.00    -0.272 OA
HETATM   18  H5  UNL     1      23.303   5.394  51.579  1.00  0.00     0.169 HD
BRANCH  16  19
HETATM   19  C7  UNL     1      25.140   6.612  50.167  1.00  0.00     0.217 C 
HETATM   20 CL1  UNL     1      23.949   7.511  51.141  1.00  0.00    -0.121 Cl
ENDBRANCH  16  19
ENDBRANCH   6  15
BRANCH   1  21
HETATM   21  N1  UNL     1      25.100  -0.915  53.119  1.00  0.00    -0.382 N 
HETATM   22  H1  UNL     1      24.828  -1.452  52.240  1.00  0.00     0.157 HD
HETATM   23  H2  UNL     1      25.439  -0.441  54.003  1.00  0.00     0.157 HD
ENDBRANCH   1  21
TORSDOF 3
ENDMDL
MODEL 5
REMARK VINA RESULT:      -6.4      8.303      9.515
REMARK  3 active torsions:
REMARK  status: ('A' for Active; 'I' for Inactive)
REMARK    1  A    between atoms: N1_1  and  C1_2 
REMARK    2  A    between atoms: C5_7  and  N3_8 
REMARK       I    between atoms: N3_8  and  C6_9 
REMARK    3  A    between atoms: C6_9  and  C7_11 
ROOT
HETATM    1  C1  UNL     1      29.662   8.925  48.924  1.00  0.00     0.148 C 
HETATM    2  N2  UNL     1      30.503   8.086  48.439  1.00  0.00    -0.241 NA
HETATM    3  C2  UNL     1      31.752   7.797  49.047  1.00  0.00     0.131 C 
HETATM    4  C3  UNL     1      32.467   7.503  47.970  1.00  0.00    -0.005 C 
HETATM    5  C4  UNL     1      31.916   6.712  47.057  1.00  0.00     0.043 C 
HETATM    6  C5  UNL     1      30.987   5.793  47.670  1.00  0.00     0.035 C 
HETATM    7  C8  UNL     1      29.796   5.361  48.146  1.00  0.00     0.031 C 
HETATM    8  C9  UNL     1      28.449   5.879  48.265  1.00  0.00     0.020 C 
HETATM    9  C10 UNL     1      27.593   6.824  48.080  1.00  0.00     0.097 C 
HETATM   10  N4  UNL     1      27.628   8.131  47.517  1.00  0.00    -0.330 N 
HETATM   11  C11 UNL     1      26.931   8.819  46.596  1.00  0.00     0.097 A 
HETATM   12  C12 UNL     1      27.397  10.107  46.422  1.00  0.00     0.020 A 
HETATM   13  C13 UNL     1      28.469  10.186  47.325  1.00  0.00     0.035 A 
HETATM   14  C14 UNL     1      28.563   8.939  47.971  1.00  0.00     0.084 A 
ENDROOT
BRANCH   6  15
HETATM   15  N3  UNL     1      32.005   4.766  47.760  1.00  0.00    -0.326 N 
HETATM   16  C6  UNL     1      32.356   3.497  47.266  1.00  0.00     0.235 C 
HETATM   17  O1  UNL     1      31.596   2.959  46.447  1.00  0.00    -0.272 OA
HETATM   18  H5  UNL     1      32.727   5.130  48.460  1.00  0.00     0.169 HD
BRANCH  16  19
HETATM   19  C7  UNL     1      33.591   2.785  47.683  1.00  0.00     0.217 C 
HETATM   20 CL1  UNL     1      33.144   1.304  48.569  1.00  0.00    -0.121 Cl
ENDBRANCH  16  19
ENDBRANCH   6  15
BRANCH   1  21
HETATM   21  N1  UNL     1      29.670   9.748  50.078  1.00  0.00    -0.382 N 
HETATM   22  H1  UNL     1      29.570   8.990  50.820  1.00  0.00     0.157 HD
HETATM   23  H2  UNL     1      29.770  10.562  49.408  1.00  0.00     0.157 HD
ENDBRANCH   1  21
TORSDOF 3
ENDMDL
MODEL 6
REMARK VINA RESULT:      -6.3      3.373      5.016
REMARK  3 active torsions:
REMARK  status: ('A' for Active; 'I' for Inactive)
REMARK    1  A    between atoms: N1_1  and  C1_2 
REMARK    2  A    between atoms: C5_7  and  N3_8 
REMARK       I    between atoms: N3_8  and  C6_9 
REMARK    3  A    between atoms: C6_9  and  C7_11 
ROOT
HETATM    1  C1  UNL     1      23.471   4.745  49.614  1.00  0.00     0.148 C 
HETATM    2  N2  UNL     1      23.685   4.031  50.658  1.00  0.00    -0.241 NA
HETATM    3  C2  UNL     1      22.880   2.921  51.020  1.00  0.00     0.131 C 
HETATM    4  C3  UNL     1      23.005   2.970  52.339  1.00  0.00    -0.005 C 
HETATM    5  C4  UNL     1      24.218   3.166  52.840  1.00  0.00     0.043 C 
HETATM    6  C5  UNL     1      25.228   2.619  51.965  1.00  0.00     0.035 C 
HETATM    7  C8  UNL     1      26.115   2.609  50.943  1.00  0.00     0.031 C 
HETATM    8  C9  UNL     1      26.572   3.530  49.923  1.00  0.00     0.020 C 
HETATM    9  C10 UNL     1      26.527   4.689  49.362  1.00  0.00     0.097 C 
HETATM   10  N4  UNL     1      25.800   5.894  49.574  1.00  0.00    -0.330 N 
HETATM   11  C11 UNL     1      26.089   7.199  49.720  1.00  0.00     0.097 A 
HETATM   12  C12 UNL     1      24.967   7.980  49.905  1.00  0.00     0.020 A 
HETATM   13  C13 UNL     1      23.916   7.049  49.865  1.00  0.00     0.035 A 
HETATM   14  C14 UNL     1      24.491   5.782  49.658  1.00  0.00     0.084 A 
ENDROOT
BRANCH   6  15
HETATM   15  N3  UNL     1      25.259   1.379  52.715  1.00  0.00    -0.326 N 
HETATM   16  C6  UNL     1      25.845   0.770  53.838  1.00  0.00     0.235 C 
HETATM   17  O1  UNL     1      26.643   1.437  54.515  1.00  0.00    -0.272 OA
HETATM   18  H5  UNL     1      24.595   0.713  52.206  1.00  0.00     0.169 HD
BRANCH  16  19
HETATM   19  C7  UNL     1      25.547  -0.628  54.242  1.00  0.00     0.217 C 
HETATM   20 CL1  UNL     1      23.787  -0.819  54.446  1.00  0.00    -0.121 Cl
ENDBRANCH  16  19
ENDBRANCH   6  15
BRANCH   1  21
HETATM   21  N1  UNL     1      22.496   4.691  48.587  1.00  0.00    -0.382 N 
HETATM   22  H1  UNL     1      23.138   4.490  47.762  1.00  0.00     0.157 HD
HETATM   23  H2  UNL     1      21.787   4.890  49.348  1.00  0.00     0.157 HD
ENDBRANCH   1  21
TORSDOF 3
ENDMDL
MODEL 7
REMARK VINA RESULT:      -6.2      3.721      5.194
REMARK  3 active torsions:
REMARK  status: ('A' for Active; 'I' for Inactive)
REMARK    1  A    between atoms: N1_1  and  C1_2 
REMARK    2  A    between atoms: C5_7  and  N3_8 
REMARK       I    between atoms: N3_8  and  C6_9 
REMARK    3  A    between atoms: C6_9  and  C7_11 
ROOT
HETATM    1  C1  UNL     1      23.548   4.969  51.674  1.00  0.00     0.148 C 
HETATM    2  N2  UNL     1      23.435   3.711  51.902  1.00  0.00    -0.241 NA
HETATM    3  C2  UNL     1      24.040   3.065  53.011  1.00  0.00     0.131 C 
HETATM    4  C3  UNL     1      24.243   1.863  52.490  1.00  0.00    -0.005 C 
HETATM    5  C4  UNL     1      23.256   1.314  51.793  1.00  0.00     0.043 C 
HETATM    6  C5  UNL     1      21.974   1.761  52.283  1.00  0.00     0.035 C 
HETATM    7  C8  UNL     1      20.891   2.567  52.375  1.00  0.00     0.031 C 
HETATM    8  C9  UNL     1      20.420   3.789  51.757  1.00  0.00     0.020 C 
HETATM    9  C10 UNL     1      20.584   4.754  50.919  1.00  0.00     0.097 C 
HETATM   10  N4  UNL     1      21.585   5.125  49.979  1.00  0.00    -0.330 N 
HETATM   11  C11 UNL     1      21.632   5.455  48.676  1.00  0.00     0.097 A 
HETATM   12  C12 UNL     1      22.910   5.742  48.241  1.00  0.00     0.020 A 
HETATM   13  C13 UNL     1      23.691   5.565  49.395  1.00  0.00     0.035 A 
HETATM   14  C14 UNL     1      22.820   5.186  50.433  1.00  0.00     0.084 A 
ENDROOT
BRANCH   6  15
HETATM   15  N3  UNL     1      21.850   0.595  53.135  1.00  0.00    -0.326 N 
HETATM   16  C6  UNL     1      20.958  -0.428  53.501  1.00  0.00     0.235 C 
HETATM   17  O1  UNL     1      19.838  -0.445  52.968  1.00  0.00    -0.272 OA
HETATM   18  H5  UNL     1      22.779   0.516  53.658  1.00  0.00     0.169 HD
BRANCH  16  19
HETATM   19  C7  UNL     1      21.303  -1.478  54.493  1.00  0.00     0.217 C 
HETATM   20 CL1  UNL     1      22.934  -1.163  55.139  1.00  0.00    -0.121 Cl
ENDBRANCH  16  19
ENDBRANCH   6  15
BRANCH   1  21
HETATM   21  N1  UNL     1      24.217   6.020  52.349  1.00  0.00    -0.382 N 
HETATM   22  H1  UNL     1      24.885   5.437  52.939  1.00  0.00     0.157 HD
HETATM   23  H2  UNL     1      23.590   6.674  51.801  1.00  0.00     0.157 HD
ENDBRANCH   1  21
TORSDOF 3
ENDMDL
MODEL 8
REMARK VINA RESULT:      -6.2      2.906      3.696
REMARK  3 active torsions:
REMARK  status: ('A' for Active; 'I' for Inactive)
REMARK    1  A    between atoms: N1_1  and  C1_2 
REMARK    2  A    between atoms: C5_7  and  N3_8 
REMARK       I    between atoms: N3_8  and  C6_9 
REMARK    3  A    between atoms: C6_9  and  C7_11 
ROOT
HETATM    1  C1  UNL     1      23.664   5.210  48.849  1.00  0.00     0.148 C 
HETATM    2  N2  UNL     1      24.663   4.558  49.321  1.00  0.00    -0.241 NA
HETATM    3  C2  UNL     1      25.905   5.164  49.642  1.00  0.00     0.131 C 
HETATM    4  C3  UNL     1      26.722   4.146  49.409  1.00  0.00    -0.005 C 
HETATM    5  C4  UNL     1      26.369   2.951  49.868  1.00  0.00     0.043 C 
HETATM    6  C5  UNL     1      25.577   3.076  51.068  1.00  0.00     0.035 C 
HETATM    7  C8  UNL     1      24.452   3.221  51.806  1.00  0.00     0.031 C 
HETATM    8  C9  UNL     1      23.031   3.359  51.561  1.00  0.00     0.020 C 
HETATM    9  C10 UNL     1      22.039   3.427  50.742  1.00  0.00     0.097 C 
HETATM   10  N4  UNL     1      21.882   3.382  49.329  1.00  0.00    -0.330 N 
HETATM   11  C11 UNL     1      21.133   2.695  48.448  1.00  0.00     0.097 A 
HETATM   12  C12 UNL     1      21.380   3.054  47.139  1.00  0.00     0.020 A 
HETATM   13  C13 UNL     1      22.368   4.045  47.257  1.00  0.00     0.035 A 
HETATM   14  C14 UNL     1      22.636   4.204  48.629  1.00  0.00     0.084 A 
ENDROOT
BRANCH   6  15
HETATM   15  N3  UNL     1      26.750   2.910  51.904  1.00  0.00    -0.326 N 
HETATM   16  C6  UNL     1      27.382   1.999  52.768  1.00  0.00     0.235 C 
HETATM   17  O1  UNL     1      26.833   0.905  52.966  1.00  0.00    -0.272 OA
HETATM   18  H5  UNL     1      27.306   3.818  51.811  1.00  0.00     0.169 HD
BRANCH  16  19
HETATM   19  C7  UNL     1      28.670   2.296  53.446  1.00  0.00     0.217 C 
HETATM   20 CL1  UNL     1      29.490   0.765  53.845  1.00  0.00    -0.121 Cl
ENDBRANCH  16  19
ENDBRANCH   6  15
BRANCH   1  21
HETATM   21  N1  UNL     1      23.463   6.575  48.526  1.00  0.00    -0.382 N 
HETATM   22  H1  UNL     1      24.142   7.010  49.222  1.00  0.00     0.157 HD
HETATM   23  H2  UNL     1      22.767   6.229  47.807  1.00  0.00     0.157 HD
ENDBRANCH   1  21
TORSDOF 3
ENDMDL
MODEL 9
REMARK VINA RESULT:      -6.0      4.884      7.422
REMARK  3 active torsions:
REMARK  status: ('A' for Active; 'I' for Inactive)
REMARK    1  A    between atoms: N1_1  and  C1_2 
REMARK    2  A    between atoms: C5_7  and  N3_8 
REMARK       I    between atoms: N3_8  and  C6_9 
REMARK    3  A    between atoms: C6_9  and  C7_11 
ROOT
HETATM    1  C1  UNL     1      25.232   3.322  51.052  1.00  0.00     0.148 C 
HETATM    2  N2  UNL     1      24.049   3.126  50.596  1.00  0.00    -0.241 NA
HETATM    3  C2  UNL     1      23.165   2.149  51.123  1.00  0.00     0.131 C 
HETATM    4  C3  UNL     1      22.479   1.850  50.029  1.00  0.00    -0.005 C 
HETATM    5  C4  UNL     1      22.063   2.852  49.264  1.00  0.00     0.043 C 
HETATM    6  C5  UNL     1      21.821   4.035  50.057  1.00  0.00     0.035 C 
HETATM    7  C8  UNL     1      22.123   5.197  50.680  1.00  0.00     0.031 C 
HETATM    8  C9  UNL     1      23.289   6.037  50.855  1.00  0.00     0.020 C 
HETATM    9  C10 UNL     1      24.535   6.280  50.637  1.00  0.00     0.097 C 
HETATM   10  N4  UNL     1      25.588   5.637  49.927  1.00  0.00    -0.330 N 
HETATM   11  C11 UNL     1      26.495   5.982  48.996  1.00  0.00     0.097 A 
HETATM   12  C12 UNL     1      27.319   4.935  48.636  1.00  0.00     0.020 A 
HETATM   13  C13 UNL     1      26.854   3.872  49.428  1.00  0.00     0.035 A 
HETATM   14  C14 UNL     1      25.788   4.365  50.202  1.00  0.00     0.084 A 
ENDROOT
BRANCH   6  15
HETATM   15  N3  UNL     1      20.413   3.711  50.176  1.00  0.00    -0.326 N 
HETATM   16  C6  UNL     1      19.409   3.435  51.121  1.00  0.00     0.235 C 
HETATM   17  O1  UNL     1      19.719   3.446  52.322  1.00  0.00    -0.272 OA
HETATM   18  H5  UNL     1      20.037   3.669  49.176  1.00  0.00     0.169 HD
BRANCH  16  19
HETATM   19  C7  UNL     1      18.005   3.136  50.739  1.00  0.00     0.217 C 
HETATM   20 CL1  UNL     1      16.900   4.032  51.812  1.00  0.00    -0.121 Cl
ENDBRANCH  16  19
ENDBRANCH   6  15
BRANCH   1  21
HETATM   21  N1  UNL     1      25.979   2.726  52.098  1.00  0.00    -0.382 N 
HETATM   22  H1  UNL     1      26.283   3.611  52.607  1.00  0.00     0.157 HD
HETATM   23  H2  UNL     1      25.724   1.798  51.655  1.00  0.00     0.157 HD
ENDBRANCH   1  21
TORSDOF 3
ENDMDL
