MODEL 1
REMARK VINA RESULT:      -7.4      0.000      0.000
REMARK  6 active torsions:
REMARK  status: ('A' for Active; 'I' for Inactive)
REMARK    1  A    between atoms: N1_2  and  C2_3 
REMARK    2  A    between atoms: C2_3  and  C3_4 
REMARK    3  A    between atoms: C2_3  and  N3_12 
REMARK    4  A    between atoms: C3_4  and  C4_5 
REMARK    5  A    between atoms: C4_5  and  C5_6 
REMARK    6  A    between atoms: N3_12  and  C10_13 
ROOT
HETATM    1  C2  UNL     1      25.538   2.679  51.133  1.00  0.00     0.183 C 
ENDROOT
BRANCH   1   2
HETATM    2  N1  UNL     1      24.227   2.259  50.815  1.00  0.00    -0.246 NA
HETATM    3  C1  UNL     1      23.394   1.717  51.631  1.00  0.00     0.152 C 
ENDBRANCH   1   2
BRANCH   1   4
HETATM    4  C3  UNL     1      26.258   3.210  50.158  1.00  0.00    -0.021 C 
BRANCH   4   5
HETATM    5  C4  UNL     1      26.838   4.076  49.384  1.00  0.00    -0.038 C 
BRANCH   5   6
HETATM    6  C5  UNL     1      27.538   5.007  48.791  1.00  0.00     0.116 A 
HETATM    7  N2  UNL     1      28.929   5.056  48.432  1.00  0.00    -0.252 NA
HETATM    8  C6  UNL     1      29.181   6.191  47.855  1.00  0.00     0.118 A 
HETATM    9  C7  UNL     1      27.950   6.991  47.787  1.00  0.00     0.029 A 
HETATM   10  C8  UNL     1      26.984   6.280  48.345  1.00  0.00    -0.023 A 
HETATM   11  C9  UNL     1      25.556   6.706  48.495  1.00  0.00     0.051 C 
ENDBRANCH   5   6
ENDBRANCH   4   5
ENDBRANCH   1   4
BRANCH   1  12
HETATM   12  N3  UNL     1      26.093   2.550  52.440  1.00  0.00    -0.334 N 
HETATM   13  H8  UNL     1      25.722   3.274  53.095  1.00  0.00     0.168 HD
BRANCH  12  14
HETATM   14  C10 UNL     1      27.040   1.556  52.809  1.00  0.00     0.035 A 
HETATM   15  C11 UNL     1      28.207   1.983  53.408  1.00  0.00     0.032 A 
HETATM   16  C12 UNL     1      29.108   0.979  53.755  1.00  0.00     0.046 A 
HETATM   17  C13 UNL     1      28.795  -0.358  53.487  1.00  0.00     0.138 A 
HETATM   18  F1  UNL     1      29.664  -1.363  53.817  1.00  0.00    -0.204 F 
HETATM   19  C14 UNL     1      27.606  -0.729  52.882  1.00  0.00     0.074 A 
HETATM   20 CL1  UNL     1      27.243  -2.404  52.561  1.00  0.00    -0.081 Cl
HETATM   21  C15 UNL     1      26.708   0.252  52.536  1.00  0.00     0.056 A 
ENDBRANCH  12  14
ENDBRANCH   1  12
TORSDOF 6
ENDMDL
MODEL 2
REMARK VINA RESULT:      -7.2      4.018      7.426
REMARK  6 active torsions:
REMARK  status: ('A' for Active; 'I' for Inactive)
REMARK    1  A    between atoms: N1_2  and  C2_3 
REMARK    2  A    between atoms: C2_3  and  C3_4 
REMARK    3  A    between atoms: C2_3  and  N3_12 
REMARK    4  A    between atoms: C3_4  and  C4_5 
REMARK    5  A    between atoms: C4_5  and  C5_6 
REMARK    6  A    between atoms: N3_12  and  C10_13 
ROOT
HETATM    1  C2  UNL     1      26.401   0.308  54.376  1.00  0.00     0.183 C 
ENDROOT
BRANCH   1   2
HETATM    2  N1  UNL     1      27.560  -0.433  54.700  1.00  0.00    -0.246 NA
HETATM    3  C1  UNL     1      28.757   0.032  54.758  1.00  0.00     0.152 C 
ENDBRANCH   1   2
BRANCH   1   4
HETATM    4  C3  UNL     1      25.276  -0.368  54.211  1.00  0.00    -0.021 C 
BRANCH   4   5
HETATM    5  C4  UNL     1      24.029  -0.652  53.982  1.00  0.00    -0.038 C 
BRANCH   5   6
HETATM    6  C5  UNL     1      22.740  -0.860  53.964  1.00  0.00     0.116 A 
HETATM    7  N2  UNL     1      21.897  -1.633  54.835  1.00  0.00    -0.252 NA
HETATM    8  C6  UNL     1      20.668  -1.549  54.424  1.00  0.00     0.118 A 
HETATM    9  C7  UNL     1      20.607  -0.698  53.228  1.00  0.00     0.029 A 
HETATM   10  C8  UNL     1      21.840  -0.296  52.964  1.00  0.00    -0.023 A 
HETATM   11  C9  UNL     1      22.249   0.593  51.830  1.00  0.00     0.051 C 
ENDBRANCH   5   6
ENDBRANCH   4   5
ENDBRANCH   1   4
BRANCH   1  12
HETATM   12  N3  UNL     1      26.410   1.726  54.227  1.00  0.00    -0.334 N 
HETATM   13  H8  UNL     1      26.930   2.196  55.001  1.00  0.00     0.168 HD
BRANCH  12  14
HETATM   14  C10 UNL     1      25.785   2.418  53.154  1.00  0.00     0.035 A 
HETATM   15  C11 UNL     1      24.576   3.028  53.412  1.00  0.00     0.032 A 
HETATM   16  C12 UNL     1      23.996   3.695  52.335  1.00  0.00     0.046 A 
HETATM   17  C13 UNL     1      24.646   3.710  51.096  1.00  0.00     0.138 A 
HETATM   18  F1  UNL     1      24.097   4.358  50.022  1.00  0.00    -0.204 F 
HETATM   19  C14 UNL     1      25.862   3.078  50.894  1.00  0.00     0.074 A 
HETATM   20 CL1  UNL     1      26.648   3.114  49.338  1.00  0.00    -0.081 Cl
HETATM   21  C15 UNL     1      26.444   2.417  51.948  1.00  0.00     0.056 A 
ENDBRANCH  12  14
ENDBRANCH   1  12
TORSDOF 6
ENDMDL
MODEL 3
REMARK VINA RESULT:      -7.1      2.331      6.173
REMARK  6 active torsions:
REMARK  status: ('A' for Active; 'I' for Inactive)
REMARK    1  A    between atoms: N1_2  and  C2_3 
REMARK    2  A    between atoms: C2_3  and  C3_4 
REMARK    3  A    between atoms: C2_3  and  N3_12 
REMARK    4  A    between atoms: C3_4  and  C4_5 
REMARK    5  A    between atoms: C4_5  and  C5_6 
REMARK    6  A    between atoms: N3_12  and  C10_13 
ROOT
HETATM    1  C2  UNL     1      25.195   2.542  52.131  1.00  0.00     0.183 C 
ENDROOT
BRANCH   1   2
HETATM    2  N1  UNL     1      25.318   2.955  50.786  1.00  0.00    -0.246 NA
HETATM    3  C1  UNL     1      26.419   3.242  50.186  1.00  0.00     0.152 C 
ENDBRANCH   1   2
BRANCH   1   4
HETATM    4  C3  UNL     1      24.005   2.120  52.529  1.00  0.00    -0.021 C 
BRANCH   4   5
HETATM    5  C4  UNL     1      23.005   1.344  52.819  1.00  0.00    -0.038 C 
BRANCH   5   6
HETATM    6  C5  UNL     1      22.134   0.483  53.274  1.00  0.00     0.116 A 
HETATM    7  N2  UNL     1      20.719   0.366  53.051  1.00  0.00    -0.252 NA
HETATM    8  C6  UNL     1      20.265  -0.653  53.716  1.00  0.00     0.118 A 
HETATM    9  C7  UNL     1      21.370  -1.297  54.440  1.00  0.00     0.029 A 
HETATM   10  C8  UNL     1      22.472  -0.616  54.171  1.00  0.00    -0.023 A 
HETATM   11  C9  UNL     1      23.841  -0.919  54.697  1.00  0.00     0.051 C 
ENDBRANCH   5   6
ENDBRANCH   4   5
ENDBRANCH   1   4
BRANCH   1  12
HETATM   12  N3  UNL     1      26.286   2.567  53.048  1.00  0.00    -0.334 N 
HETATM   13  H8  UNL     1      26.321   3.460  53.589  1.00  0.00     0.168 HD
BRANCH  12  14
HETATM   14  C10 UNL     1      27.216   1.503  53.209  1.00  0.00     0.035 A 
HETATM   15  C11 UNL     1      28.454   1.817  53.728  1.00  0.00     0.032 A 
HETATM   16  C12 UNL     1      29.336   0.748  53.870  1.00  0.00     0.046 A 
HETATM   17  C13 UNL     1      28.935  -0.538  53.492  1.00  0.00     0.138 A 
HETATM   18  F1  UNL     1      29.783  -1.605  53.621  1.00  0.00    -0.204 F 
HETATM   19  C14 UNL     1      27.676  -0.795  52.975  1.00  0.00     0.074 A 
HETATM   20 CL1  UNL     1      27.204  -2.409  52.513  1.00  0.00    -0.081 Cl
HETATM   21  C15 UNL     1      26.797   0.251  52.831  1.00  0.00     0.056 A 
ENDBRANCH  12  14
ENDBRANCH   1  12
TORSDOF 6
ENDMDL
MODEL 4
REMARK VINA RESULT:      -7.0      4.823      6.983
REMARK  6 active torsions:
REMARK  status: ('A' for Active; 'I' for Inactive)
REMARK    1  A    between atoms: N1_2  and  C2_3 
REMARK    2  A    between atoms: C2_3  and  C3_4 
REMARK    3  A    between atoms: C2_3  and  N3_12 
REMARK    4  A    between atoms: C3_4  and  C4_5 
REMARK    5  A    between atoms: C4_5  and  C5_6 
REMARK    6  A    between atoms: N3_12  and  C10_13 
ROOT
HETATM    1  C2  UNL     1      22.800  -0.375  53.584  1.00  0.00     0.183 C 
ENDROOT
BRANCH   1   2
HETATM    2  N1  UNL     1      21.964  -1.411  54.058  1.00  0.00    -0.246 NA
HETATM    3  C1  UNL     1      20.681  -1.369  54.122  1.00  0.00     0.152 C 
ENDBRANCH   1   2
BRANCH   1   4
HETATM    4  C3  UNL     1      24.107  -0.574  53.647  1.00  0.00    -0.021 C 
BRANCH   4   5
HETATM    5  C4  UNL     1      25.373  -0.393  53.871  1.00  0.00    -0.038 C 
BRANCH   5   6
HETATM    6  C5  UNL     1      26.623  -0.024  53.967  1.00  0.00     0.116 A 
HETATM    7  N2  UNL     1      27.604  -0.275  54.987  1.00  0.00    -0.252 NA
HETATM    8  C6  UNL     1      28.722   0.295  54.653  1.00  0.00     0.118 A 
HETATM    9  C7  UNL     1      28.559   0.977  53.362  1.00  0.00     0.029 A 
HETATM   10  C8  UNL     1      27.312   0.781  52.965  1.00  0.00    -0.023 A 
HETATM   11  C9  UNL     1      26.703   1.298  51.698  1.00  0.00     0.051 C 
ENDBRANCH   5   6
ENDBRANCH   4   5
ENDBRANCH   1   4
BRANCH   1  12
HETATM   12  N3  UNL     1      22.290   0.846  53.054  1.00  0.00    -0.334 N 
HETATM   13  H8  UNL     1      21.938   1.480  53.805  1.00  0.00     0.168 HD
BRANCH  12  14
HETATM   14  C10 UNL     1      22.263   1.163  51.668  1.00  0.00     0.035 A 
HETATM   15  C11 UNL     1      21.351   0.492  50.882  1.00  0.00     0.032 A 
HETATM   16  C12 UNL     1      21.356   0.831  49.531  1.00  0.00     0.046 A 
HETATM   17  C13 UNL     1      22.251   1.797  49.061  1.00  0.00     0.138 A 
HETATM   18  F1  UNL     1      22.276   2.148  47.738  1.00  0.00    -0.204 F 
HETATM   19  C14 UNL     1      23.147   2.441  49.898  1.00  0.00     0.074 A 
HETATM   20 CL1  UNL     1      24.251   3.642  49.283  1.00  0.00    -0.081 Cl
HETATM   21  C15 UNL     1      23.152   2.116  51.233  1.00  0.00     0.056 A 
ENDBRANCH  12  14
ENDBRANCH   1  12
TORSDOF 6
ENDMDL
MODEL 5
REMARK VINA RESULT:      -7.0      4.374      6.692
REMARK  6 active torsions:
REMARK  status: ('A' for Active; 'I' for Inactive)
REMARK    1  A    between atoms: N1_2  and  C2_3 
REMARK    2  A    between atoms: C2_3  and  C3_4 
REMARK    3  A    between atoms: C2_3  and  N3_12 
REMARK    4  A    between atoms: C3_4  and  C4_5 
REMARK    5  A    between atoms: C4_5  and  C5_6 
REMARK    6  A    between atoms: N3_12  and  C10_13 
ROOT
HETATM    1  C2  UNL     1      23.803  -0.036  53.408  1.00  0.00     0.183 C 
ENDROOT
BRANCH   1   2
HETATM    2  N1  UNL     1      22.739  -0.887  53.785  1.00  0.00    -0.246 NA
HETATM    3  C1  UNL     1      22.447  -1.236  54.987  1.00  0.00     0.152 C 
ENDBRANCH   1   2
BRANCH   1   4
HETATM    4  C3  UNL     1      25.017  -0.564  53.370  1.00  0.00    -0.021 C 
BRANCH   4   5
HETATM    5  C4  UNL     1      26.309  -0.687  53.387  1.00  0.00    -0.038 C 
BRANCH   5   6
HETATM    6  C5  UNL     1      27.609  -0.593  53.470  1.00  0.00     0.116 A 
HETATM    7  N2  UNL     1      28.626  -1.608  53.536  1.00  0.00    -0.252 NA
HETATM    8  C6  UNL     1      29.791  -1.040  53.609  1.00  0.00     0.118 A 
HETATM    9  C7  UNL     1      29.627   0.420  53.595  1.00  0.00     0.029 A 
HETATM   10  C8  UNL     1      28.331   0.673  53.513  1.00  0.00    -0.023 A 
HETATM   11  C9  UNL     1      27.704   2.032  53.469  1.00  0.00     0.051 C 
ENDBRANCH   5   6
ENDBRANCH   4   5
ENDBRANCH   1   4
BRANCH   1  12
HETATM   12  N3  UNL     1      23.612   1.337  53.077  1.00  0.00    -0.334 N 
HETATM   13  H8  UNL     1      23.564   1.940  53.927  1.00  0.00     0.168 HD
BRANCH  12  14
HETATM   14  C10 UNL     1      23.500   1.827  51.747  1.00  0.00     0.035 A 
HETATM   15  C11 UNL     1      24.450   2.731  51.322  1.00  0.00     0.032 A 
HETATM   16  C12 UNL     1      24.305   3.188  50.014  1.00  0.00     0.046 A 
HETATM   17  C13 UNL     1      23.243   2.724  49.230  1.00  0.00     0.138 A 
HETATM   18  F1  UNL     1      23.079   3.157  47.942  1.00  0.00    -0.204 F 
HETATM   19  C14 UNL     1      22.317   1.813  49.710  1.00  0.00     0.074 A 
HETATM   20 CL1  UNL     1      21.004   1.252  48.709  1.00  0.00    -0.081 Cl
HETATM   21  C15 UNL     1      22.449   1.355  50.999  1.00  0.00     0.056 A 
ENDBRANCH  12  14
ENDBRANCH   1  12
TORSDOF 6
ENDMDL
MODEL 6
REMARK VINA RESULT:      -6.9      2.816      4.131
REMARK  6 active torsions:
REMARK  status: ('A' for Active; 'I' for Inactive)
REMARK    1  A    between atoms: N1_2  and  C2_3 
REMARK    2  A    between atoms: C2_3  and  C3_4 
REMARK    3  A    between atoms: C2_3  and  N3_12 
REMARK    4  A    between atoms: C3_4  and  C4_5 
REMARK    5  A    between atoms: C4_5  and  C5_6 
REMARK    6  A    between atoms: N3_12  and  C10_13 
ROOT
HETATM    1  C2  UNL     1      23.327  -0.249  53.427  1.00  0.00     0.183 C 
ENDROOT
BRANCH   1   2
HETATM    2  N1  UNL     1      22.219  -1.121  53.343  1.00  0.00    -0.246 NA
HETATM    3  C1  UNL     1      21.570  -1.608  54.341  1.00  0.00     0.152 C 
ENDBRANCH   1   2
BRANCH   1   4
HETATM    4  C3  UNL     1      23.339   0.796  52.615  1.00  0.00    -0.021 C 
BRANCH   4   5
HETATM    5  C4  UNL     1      23.755   1.759  51.849  1.00  0.00    -0.038 C 
BRANCH   5   6
HETATM    6  C5  UNL     1      24.161   2.573  50.911  1.00  0.00     0.116 A 
HETATM    7  N2  UNL     1      23.423   3.366  49.966  1.00  0.00    -0.252 NA
HETATM    8  C6  UNL     1      24.255   4.026  49.220  1.00  0.00     0.118 A 
HETATM    9  C7  UNL     1      25.632   3.713  49.626  1.00  0.00     0.029 A 
HETATM   10  C8  UNL     1      25.564   2.851  50.628  1.00  0.00    -0.023 A 
HETATM   11  C9  UNL     1      26.731   2.258  51.356  1.00  0.00     0.051 C 
ENDBRANCH   5   6
ENDBRANCH   4   5
ENDBRANCH   1   4
BRANCH   1  12
HETATM   12  N3  UNL     1      24.405  -0.456  54.336  1.00  0.00    -0.334 N 
HETATM   13  H8  UNL     1      24.077  -0.502  55.327  1.00  0.00     0.168 HD
BRANCH  12  14
HETATM   14  C10 UNL     1      25.766  -0.585  53.944  1.00  0.00     0.035 A 
HETATM   15  C11 UNL     1      26.069  -1.560  53.018  1.00  0.00     0.032 A 
HETATM   16  C12 UNL     1      27.412  -1.655  52.660  1.00  0.00     0.046 A 
HETATM   17  C13 UNL     1      28.347  -0.788  53.237  1.00  0.00     0.138 A 
HETATM   18  F1  UNL     1      29.672  -0.860  52.902  1.00  0.00    -0.204 F 
HETATM   19  C14 UNL     1      27.984   0.175  54.164  1.00  0.00     0.074 A 
HETATM   20 CL1  UNL     1      29.172   1.241  54.867  1.00  0.00    -0.081 Cl
HETATM   21  C15 UNL     1      26.663   0.277  54.525  1.00  0.00     0.056 A 
ENDBRANCH  12  14
ENDBRANCH   1  12
TORSDOF 6
ENDMDL
MODEL 7
REMARK VINA RESULT:      -6.9      2.825      6.453
REMARK  6 active torsions:
REMARK  status: ('A' for Active; 'I' for Inactive)
REMARK    1  A    between atoms: N1_2  and  C2_3 
REMARK    2  A    between atoms: C2_3  and  C3_4 
REMARK    3  A    between atoms: C2_3  and  N3_12 
REMARK    4  A    between atoms: C3_4  and  C4_5 
REMARK    5  A    between atoms: C4_5  and  C5_6 
REMARK    6  A    between atoms: N3_12  and  C10_13 
ROOT
HETATM    1  C2  UNL     1      24.709   2.636  51.607  1.00  0.00     0.183 C 
ENDROOT
BRANCH   1   2
HETATM    2  N1  UNL     1      24.522   4.026  51.430  1.00  0.00    -0.246 NA
HETATM    3  C1  UNL     1      24.675   4.669  50.328  1.00  0.00     0.152 C 
ENDBRANCH   1   2
BRANCH   1   4
HETATM    4  C3  UNL     1      23.745   1.968  52.220  1.00  0.00    -0.021 C 
BRANCH   4   5
HETATM    5  C4  UNL     1      22.998   0.997  52.650  1.00  0.00    -0.038 C 
BRANCH   5   6
HETATM    6  C5  UNL     1      22.326   0.076  53.289  1.00  0.00     0.116 A 
HETATM    7  N2  UNL     1      20.941  -0.303  53.214  1.00  0.00    -0.252 NA
HETATM    8  C6  UNL     1      20.722  -1.279  54.041  1.00  0.00     0.118 A 
HETATM    9  C7  UNL     1      21.970  -1.625  54.736  1.00  0.00     0.029 A 
HETATM   10  C8  UNL     1      22.913  -0.815  54.283  1.00  0.00    -0.023 A 
HETATM   11  C9  UNL     1      24.347  -0.811  54.714  1.00  0.00     0.051 C 
ENDBRANCH   5   6
ENDBRANCH   4   5
ENDBRANCH   1   4
BRANCH   1  12
HETATM   12  N3  UNL     1      25.875   1.951  51.155  1.00  0.00    -0.334 N 
HETATM   13  H8  UNL     1      26.005   2.042  50.123  1.00  0.00     0.168 HD
BRANCH  12  14
HETATM   14  C10 UNL     1      26.755   1.230  52.007  1.00  0.00     0.035 A 
HETATM   15  C11 UNL     1      26.665  -0.146  51.993  1.00  0.00     0.032 A 
HETATM   16  C12 UNL     1      27.544  -0.816  52.841  1.00  0.00     0.046 A 
HETATM   17  C13 UNL     1      28.437  -0.086  53.633  1.00  0.00     0.138 A 
HETATM   18  F1  UNL     1      29.311  -0.720  54.474  1.00  0.00    -0.204 F 
HETATM   19  C14 UNL     1      28.484   1.298  53.606  1.00  0.00     0.074 A 
HETATM   20 CL1  UNL     1      29.609   2.181  54.603  1.00  0.00    -0.081 Cl
HETATM   21  C15 UNL     1      27.622   1.970  52.773  1.00  0.00     0.056 A 
ENDBRANCH  12  14
ENDBRANCH   1  12
TORSDOF 6
ENDMDL
MODEL 8
REMARK VINA RESULT:      -6.7      4.617      6.318
REMARK  6 active torsions:
REMARK  status: ('A' for Active; 'I' for Inactive)
REMARK    1  A    between atoms: N1_2  and  C2_3 
REMARK    2  A    between atoms: C2_3  and  C3_4 
REMARK    3  A    between atoms: C2_3  and  N3_12 
REMARK    4  A    between atoms: C3_4  and  C4_5 
REMARK    5  A    between atoms: C4_5  and  C5_6 
REMARK    6  A    between atoms: N3_12  and  C10_13 
ROOT
HETATM    1  C2  UNL     1      23.894   2.787  52.005  1.00  0.00     0.183 C 
ENDROOT
BRANCH   1   2
HETATM    2  N1  UNL     1      23.335   4.084  52.032  1.00  0.00    -0.246 NA
HETATM    3  C1  UNL     1      22.098   4.364  52.242  1.00  0.00     0.152 C 
ENDBRANCH   1   2
BRANCH   1   4
HETATM    4  C3  UNL     1      25.125   2.648  52.471  1.00  0.00    -0.021 C 
BRANCH   4   5
HETATM    5  C4  UNL     1      26.191   2.133  53.004  1.00  0.00    -0.038 C 
BRANCH   5   6
HETATM    6  C5  UNL     1      27.374   1.786  53.436  1.00  0.00     0.116 A 
HETATM    7  N2  UNL     1      28.399   2.549  54.096  1.00  0.00    -0.252 NA
HETATM    8  C6  UNL     1      29.414   1.778  54.340  1.00  0.00     0.118 A 
HETATM    9  C7  UNL     1      29.129   0.421  53.852  1.00  0.00     0.029 A 
HETATM   10  C8  UNL     1      27.919   0.438  53.319  1.00  0.00    -0.023 A 
HETATM   11  C9  UNL     1      27.218  -0.731  52.697  1.00  0.00     0.051 C 
ENDBRANCH   5   6
ENDBRANCH   4   5
ENDBRANCH   1   4
BRANCH   1  12
HETATM   12  N3  UNL     1      23.189   1.653  51.504  1.00  0.00    -0.334 N 
HETATM   13  H8  UNL     1      23.223   1.602  50.462  1.00  0.00     0.168 HD
BRANCH  12  14
HETATM   14  C10 UNL     1      22.519   0.706  52.325  1.00  0.00     0.035 A 
HETATM   15  C11 UNL     1      23.287  -0.030  53.201  1.00  0.00     0.032 A 
HETATM   16  C12 UNL     1      22.593  -0.948  53.987  1.00  0.00     0.046 A 
HETATM   17  C13 UNL     1      21.206  -1.070  53.851  1.00  0.00     0.138 A 
HETATM   18  F1  UNL     1      20.501  -1.963  54.611  1.00  0.00    -0.204 F 
HETATM   19  C14 UNL     1      20.484  -0.302  52.952  1.00  0.00     0.074 A 
HETATM   20 CL1  UNL     1      18.756  -0.476  52.804  1.00  0.00    -0.081 Cl
HETATM   21  C15 UNL     1      21.157   0.606  52.171  1.00  0.00     0.056 A 
ENDBRANCH  12  14
ENDBRANCH   1  12
TORSDOF 6
ENDMDL
MODEL 9
REMARK VINA RESULT:      -6.6      3.834      6.627
REMARK  6 active torsions:
REMARK  status: ('A' for Active; 'I' for Inactive)
REMARK    1  A    between atoms: N1_2  and  C2_3 
REMARK    2  A    between atoms: C2_3  and  C3_4 
REMARK    3  A    between atoms: C2_3  and  N3_12 
REMARK    4  A    between atoms: C3_4  and  C4_5 
REMARK    5  A    between atoms: C4_5  and  C5_6 
REMARK    6  A    between atoms: N3_12  and  C10_13 
ROOT
HETATM    1  C2  UNL     1      24.046   0.937  52.345  1.00  0.00     0.183 C 
ENDROOT
BRANCH   1   2
HETATM    2  N1  UNL     1      23.120   0.390  53.261  1.00  0.00    -0.246 NA
HETATM    3  C1  UNL     1      21.841   0.397  53.129  1.00  0.00     0.152 C 
ENDBRANCH   1   2
BRANCH   1   4
HETATM    4  C3  UNL     1      25.329   0.701  52.566  1.00  0.00    -0.021 C 
BRANCH   4   5
HETATM    5  C4  UNL     1      26.447   0.084  52.803  1.00  0.00    -0.038 C 
BRANCH   5   6
HETATM    6  C5  UNL     1      27.648  -0.332  53.104  1.00  0.00     0.116 A 
HETATM    7  N2  UNL     1      28.201  -1.658  53.158  1.00  0.00    -0.252 NA
HETATM    8  C6  UNL     1      29.449  -1.586  53.509  1.00  0.00     0.118 A 
HETATM    9  C7  UNL     1      29.820  -0.180  53.716  1.00  0.00     0.029 A 
HETATM   10  C8  UNL     1      28.746   0.554  53.474  1.00  0.00    -0.023 A 
HETATM   11  C9  UNL     1      28.665   2.047  53.562  1.00  0.00     0.051 C 
ENDBRANCH   5   6
ENDBRANCH   4   5
ENDBRANCH   1   4
BRANCH   1  12
HETATM   12  N3  UNL     1      23.649   1.717  51.220  1.00  0.00    -0.334 N 
HETATM   13  H8  UNL     1      23.054   1.171  50.557  1.00  0.00     0.168 HD
BRANCH  12  14
HETATM   14  C10 UNL     1      24.019   3.075  51.021  1.00  0.00     0.035 A 
HETATM   15  C11 UNL     1      23.311   4.033  51.715  1.00  0.00     0.032 A 
HETATM   16  C12 UNL     1      23.703   5.351  51.492  1.00  0.00     0.046 A 
HETATM   17  C13 UNL     1      24.755   5.623  50.610  1.00  0.00     0.138 A 
HETATM   18  F1  UNL     1      25.159   6.909  50.375  1.00  0.00    -0.204 F 
HETATM   19  C14 UNL     1      25.432   4.619  49.939  1.00  0.00     0.074 A 
HETATM   20 CL1  UNL     1      26.739   4.988  48.846  1.00  0.00    -0.081 Cl
HETATM   21  C15 UNL     1      25.054   3.315  50.150  1.00  0.00     0.056 A 
ENDBRANCH  12  14
ENDBRANCH   1  12
TORSDOF 6
ENDMDL
