MODEL 1
REMARK VINA RESULT:      -8.2      0.000      0.000
REMARK  6 active torsions:
REMARK  status: ('A' for Active; 'I' for Inactive)
REMARK    1  A    between atoms: S1_2  and  C2_3 
REMARK    2  A    between atoms: C2_3  and  C3_4 
REMARK    3  A    between atoms: C5_6  and  C6_7 
REMARK    4  A    between atoms: C17_19  and  S2_20 
REMARK    5  A    between atoms: S2_20  and  C18_21 
REMARK    6  A    between atoms: C19_23  and  O2_24 
ROOT
HETATM    1  C3  UNL     1      26.792   1.857  52.496  1.00  0.00    -0.014 A 
HETATM    2  C4  UNL     1      25.951   0.938  53.074  1.00  0.00     0.022 A 
HETATM    3  C5  UNL     1      24.628   0.732  52.659  1.00  0.00    -0.034 A 
HETATM    4  C16 UNL     1      24.234   1.540  51.607  1.00  0.00     0.033 A 
HETATM    5  C17 UNL     1      25.036   2.472  50.998  1.00  0.00     0.042 A 
HETATM    6  C19 UNL     1      26.310   2.617  51.454  1.00  0.00     0.089 A 
ENDROOT
BRANCH   3   7
HETATM    7  C6  UNL     1      23.736  -0.227  53.284  1.00  0.00     0.021 C 
HETATM    8  C7  UNL     1      22.481  -0.535  53.218  1.00  0.00    -0.023 C 
HETATM    9  C8  UNL     1      21.349  -0.040  52.454  1.00  0.00    -0.005 A 
HETATM   10  C14 UNL     1      21.889  -1.629  54.071  1.00  0.00     0.112 C 
HETATM   11  C9  UNL     1      21.323   0.719  51.391  1.00  0.00    -0.012 A 
HETATM   12  C13 UNL     1      20.089  -0.512  53.015  1.00  0.00     0.035 A 
HETATM   13  C10 UNL     1      20.100   1.166  50.688  1.00  0.00     0.032 A 
HETATM   14  C11 UNL     1      18.820   0.671  51.267  1.00  0.00     0.033 A 
HETATM   15  C12 UNL     1      18.951  -0.174  52.457  1.00  0.00     0.004 A 
HETATM   16  N1  UNL     1      20.481  -1.299  54.130  1.00  0.00    -0.381 N 
HETATM   17  H14 UNL     1      19.850  -1.608  54.895  1.00  0.00     0.160 HD
HETATM   18  C15 UNL     1      22.499  -1.463  55.465  1.00  0.00     0.037 C 
ENDBRANCH   3   7
BRANCH   1  19
HETATM   19  C2  UNL     1      28.198   1.936  53.037  1.00  0.00     0.115 C 
BRANCH  19  20
HETATM   20  S1  UNL     1      28.509   0.631  54.231  1.00  0.00    -0.169 SA
HETATM   21  C1  UNL     1      29.768  -0.520  53.697  1.00  0.00     0.090 C 
ENDBRANCH  19  20
ENDBRANCH   1  19
BRANCH   5  22
HETATM   22  S2  UNL     1      24.559   3.532  49.646  1.00  0.00    -0.059 SA
BRANCH  22  23
HETATM   23  C18 UNL     1      23.164   2.775  48.826  1.00  0.00     0.309 C 
HETATM   24  O1  UNL     1      22.352   2.176  48.102  1.00  0.00    -0.295 OA
ENDBRANCH  22  23
ENDBRANCH   5  22
BRANCH   6  25
HETATM   25  O2  UNL     1      27.194   3.533  50.903  1.00  0.00    -0.359 OA
HETATM   26  H21 UNL     1      27.957   3.831  51.499  1.00  0.00     0.217 HD
ENDBRANCH   6  25
TORSDOF 6
ENDMDL
MODEL 2
REMARK VINA RESULT:      -8.1      1.653      3.990
REMARK  6 active torsions:
REMARK  status: ('A' for Active; 'I' for Inactive)
REMARK    1  A    between atoms: S1_2  and  C2_3 
REMARK    2  A    between atoms: C2_3  and  C3_4 
REMARK    3  A    between atoms: C5_6  and  C6_7 
REMARK    4  A    between atoms: C17_19  and  S2_20 
REMARK    5  A    between atoms: S2_20  and  C18_21 
REMARK    6  A    between atoms: C19_23  and  O2_24 
ROOT
HETATM    1  C3  UNL     1      25.031   2.570  50.855  1.00  0.00    -0.014 A 
HETATM    2  C4  UNL     1      24.067   1.767  51.413  1.00  0.00     0.022 A 
HETATM    3  C5  UNL     1      24.275   0.993  52.563  1.00  0.00    -0.034 A 
HETATM    4  C16 UNL     1      25.547   1.105  53.096  1.00  0.00     0.033 A 
HETATM    5  C17 UNL     1      26.544   1.892  52.574  1.00  0.00     0.042 A 
HETATM    6  C19 UNL     1      26.269   2.617  51.456  1.00  0.00     0.089 A 
ENDROOT
BRANCH   3   7
HETATM    7  C6  UNL     1      23.260   0.132  53.140  1.00  0.00     0.021 C 
HETATM    8  C7  UNL     1      22.022  -0.162  52.904  1.00  0.00    -0.023 C 
HETATM    9  C8  UNL     1      21.049   0.252  51.908  1.00  0.00    -0.005 A 
HETATM   10  C14 UNL     1      21.260  -1.134  53.771  1.00  0.00     0.112 C 
HETATM   11  C9  UNL     1      21.224   0.874  50.773  1.00  0.00    -0.012 A 
HETATM   12  C13 UNL     1      19.698  -0.128  52.305  1.00  0.00     0.035 A 
HETATM   13  C10 UNL     1      20.149   1.250  49.829  1.00  0.00     0.032 A 
HETATM   14  C11 UNL     1      18.774   0.850  50.242  1.00  0.00     0.033 A 
HETATM   15  C12 UNL     1      18.679   0.156  51.529  1.00  0.00     0.004 A 
HETATM   16  N1  UNL     1      19.874  -0.777  53.555  1.00  0.00    -0.381 N 
HETATM   17  H14 UNL     1      19.117  -0.979  54.235  1.00  0.00     0.160 HD
HETATM   18  C15 UNL     1      21.641  -0.806  55.217  1.00  0.00     0.037 C 
ENDBRANCH   3   7
BRANCH   1  19
HETATM   19  C2  UNL     1      24.640   3.365  49.634  1.00  0.00     0.115 C 
BRANCH  19  20
HETATM   20  S1  UNL     1      23.245   4.443  49.980  1.00  0.00    -0.169 SA
HETATM   21  C1  UNL     1      23.526   5.524  51.377  1.00  0.00     0.090 C 
ENDBRANCH  19  20
ENDBRANCH   1  19
BRANCH   5  22
HETATM   22  S2  UNL     1      28.193   2.055  53.232  1.00  0.00    -0.059 SA
BRANCH  22  23
HETATM   23  C18 UNL     1      28.453   0.720  54.390  1.00  0.00     0.309 C 
HETATM   24  O1  UNL     1      28.472  -0.317  55.072  1.00  0.00    -0.295 OA
ENDBRANCH  22  23
ENDBRANCH   5  22
BRANCH   6  25
HETATM   25  O2  UNL     1      27.211   3.438  50.855  1.00  0.00    -0.359 OA
HETATM   26  H21 UNL     1      28.178   3.261  51.097  1.00  0.00     0.217 HD
ENDBRANCH   6  25
TORSDOF 6
ENDMDL
MODEL 3
REMARK VINA RESULT:      -7.9      2.630      4.995
REMARK  6 active torsions:
REMARK  status: ('A' for Active; 'I' for Inactive)
REMARK    1  A    between atoms: S1_2  and  C2_3 
REMARK    2  A    between atoms: C2_3  and  C3_4 
REMARK    3  A    between atoms: C5_6  and  C6_7 
REMARK    4  A    between atoms: C17_19  and  S2_20 
REMARK    5  A    between atoms: S2_20  and  C18_21 
REMARK    6  A    between atoms: C19_23  and  O2_24 
ROOT
HETATM    1  C3  UNL     1      23.230   3.066  49.877  1.00  0.00    -0.014 A 
HETATM    2  C4  UNL     1      23.807   2.144  50.716  1.00  0.00     0.022 A 
HETATM    3  C5  UNL     1      25.143   2.211  51.137  1.00  0.00    -0.034 A 
HETATM    4  C16 UNL     1      25.841   3.293  50.631  1.00  0.00     0.033 A 
HETATM    5  C17 UNL     1      25.309   4.238  49.789  1.00  0.00     0.042 A 
HETATM    6  C19 UNL     1      24.005   4.110  49.423  1.00  0.00     0.089 A 
ENDROOT
BRANCH   3   7
HETATM    7  C6  UNL     1      25.754   1.226  52.011  1.00  0.00     0.021 C 
HETATM    8  C7  UNL     1      25.356   0.360  52.886  1.00  0.00    -0.023 C 
HETATM    9  C8  UNL     1      24.061  -0.038  53.410  1.00  0.00    -0.005 A 
HETATM   10  C14 UNL     1      26.332  -0.513  53.635  1.00  0.00     0.112 C 
HETATM   11  C9  UNL     1      22.862   0.199  52.949  1.00  0.00    -0.012 A 
HETATM   12  C13 UNL     1      24.206  -0.823  54.629  1.00  0.00     0.035 A 
HETATM   13  C10 UNL     1      21.600  -0.259  53.570  1.00  0.00     0.032 A 
HETATM   14  C11 UNL     1      21.762  -1.066  54.812  1.00  0.00     0.033 A 
HETATM   15  C12 UNL     1      23.144  -1.280  55.250  1.00  0.00     0.004 A 
HETATM   16  N1  UNL     1      25.610  -0.892  54.831  1.00  0.00    -0.381 N 
HETATM   17  H14 UNL     1      26.073  -1.177  55.715  1.00  0.00     0.160 HD
HETATM   18  C15 UNL     1      27.504   0.391  54.024  1.00  0.00     0.037 C 
ENDBRANCH   3   7
BRANCH   1  19
HETATM   19  C2  UNL     1      21.773   2.871  49.542  1.00  0.00     0.115 C 
BRANCH  19  20
HETATM   20  S1  UNL     1      20.723   3.867  50.606  1.00  0.00    -0.169 SA
HETATM   21  C1  UNL     1      20.571   3.202  52.260  1.00  0.00     0.090 C 
ENDBRANCH  19  20
ENDBRANCH   1  19
BRANCH   5  22
HETATM   22  S2  UNL     1      26.181   5.640  49.116  1.00  0.00    -0.059 SA
BRANCH  22  23
HETATM   23  C18 UNL     1      27.786   5.074  48.571  1.00  0.00     0.309 C 
HETATM   24  O1  UNL     1      28.982   4.857  48.317  1.00  0.00    -0.295 OA
ENDBRANCH  22  23
ENDBRANCH   5  22
BRANCH   6  25
HETATM   25  O2  UNL     1      23.381   5.013  48.576  1.00  0.00    -0.359 OA
HETATM   26  H21 UNL     1      23.162   5.919  48.972  1.00  0.00     0.217 HD
ENDBRANCH   6  25
TORSDOF 6
ENDMDL
MODEL 4
REMARK VINA RESULT:      -7.7      3.470      5.965
REMARK  6 active torsions:
REMARK  status: ('A' for Active; 'I' for Inactive)
REMARK    1  A    between atoms: S1_2  and  C2_3 
REMARK    2  A    between atoms: C2_3  and  C3_4 
REMARK    3  A    between atoms: C5_6  and  C6_7 
REMARK    4  A    between atoms: C17_19  and  S2_20 
REMARK    5  A    between atoms: S2_20  and  C18_21 
REMARK    6  A    between atoms: C19_23  and  O2_24 
ROOT
HETATM    1  C3  UNL     1      25.671   0.332  52.556  1.00  0.00    -0.014 A 
HETATM    2  C4  UNL     1      25.015   1.258  51.782  1.00  0.00     0.022 A 
HETATM    3  C5  UNL     1      23.644   1.528  51.895  1.00  0.00    -0.034 A 
HETATM    4  C16 UNL     1      22.998   0.775  52.859  1.00  0.00     0.033 A 
HETATM    5  C17 UNL     1      23.609  -0.162  53.655  1.00  0.00     0.042 A 
HETATM    6  C19 UNL     1      24.944  -0.370  53.490  1.00  0.00     0.089 A 
ENDROOT
BRANCH   3   7
HETATM    7  C6  UNL     1      22.950   2.494  51.064  1.00  0.00     0.021 C 
HETATM    8  C7  UNL     1      23.272   3.450  50.253  1.00  0.00    -0.023 C 
HETATM    9  C8  UNL     1      24.528   4.009  49.785  1.00  0.00    -0.005 A 
HETATM   10  C14 UNL     1      22.225   4.283  49.556  1.00  0.00     0.112 C 
HETATM   11  C9  UNL     1      25.740   3.526  49.859  1.00  0.00    -0.012 A 
HETATM   12  C13 UNL     1      24.321   5.301  49.141  1.00  0.00     0.035 A 
HETATM   13  C10 UNL     1      26.958   4.189  49.344  1.00  0.00     0.032 A 
HETATM   14  C11 UNL     1      26.732   5.504  48.681  1.00  0.00     0.033 A 
HETATM   15  C12 UNL     1      25.341   5.962  48.647  1.00  0.00     0.004 A 
HETATM   16  N1  UNL     1      22.919   5.510  49.229  1.00  0.00    -0.381 N 
HETATM   17  H14 UNL     1      22.440   6.418  49.078  1.00  0.00     0.160 HD
HETATM   18  C15 UNL     1      21.149   4.582  50.603  1.00  0.00     0.037 C 
ENDBRANCH   3   7
BRANCH   1  19
HETATM   19  C2  UNL     1      27.155   0.182  52.334  1.00  0.00     0.115 C 
BRANCH  19  20
HETATM   20  S1  UNL     1      28.088   1.268  53.420  1.00  0.00    -0.169 SA
HETATM   21  C1  UNL     1      28.713   0.435  54.874  1.00  0.00     0.090 C 
ENDBRANCH  19  20
ENDBRANCH   1  19
BRANCH   5  22
HETATM   22  S2  UNL     1      22.807  -1.152  54.902  1.00  0.00    -0.059 SA
BRANCH  22  23
HETATM   23  C18 UNL     1      21.161  -1.531  54.321  1.00  0.00     0.309 C 
HETATM   24  O1  UNL     1      19.980  -1.567  53.937  1.00  0.00    -0.295 OA
ENDBRANCH  22  23
ENDBRANCH   5  22
BRANCH   6  25
HETATM   25  O2  UNL     1      25.648  -1.295  54.245  1.00  0.00    -0.359 OA
HETATM   26  H21 UNL     1      25.556  -2.264  53.964  1.00  0.00     0.217 HD
ENDBRANCH   6  25
TORSDOF 6
ENDMDL
MODEL 5
REMARK VINA RESULT:      -7.7      3.177      6.102
REMARK  6 active torsions:
REMARK  status: ('A' for Active; 'I' for Inactive)
REMARK    1  A    between atoms: S1_2  and  C2_3 
REMARK    2  A    between atoms: C2_3  and  C3_4 
REMARK    3  A    between atoms: C5_6  and  C6_7 
REMARK    4  A    between atoms: C17_19  and  S2_20 
REMARK    5  A    between atoms: S2_20  and  C18_21 
REMARK    6  A    between atoms: C19_23  and  O2_24 
ROOT
HETATM    1  C3  UNL     1      24.420   0.166  53.278  1.00  0.00    -0.014 A 
HETATM    2  C4  UNL     1      24.181   1.299  52.539  1.00  0.00     0.022 A 
HETATM    3  C5  UNL     1      25.197   2.129  52.045  1.00  0.00    -0.034 A 
HETATM    4  C16 UNL     1      26.476   1.710  52.367  1.00  0.00     0.033 A 
HETATM    5  C17 UNL     1      26.765   0.587  53.103  1.00  0.00     0.042 A 
HETATM    6  C19 UNL     1      25.727  -0.172  53.549  1.00  0.00     0.089 A 
ENDROOT
BRANCH   3   7
HETATM    7  C6  UNL     1      24.941   3.335  51.279  1.00  0.00     0.021 C 
HETATM    8  C7  UNL     1      24.154   3.696  50.318  1.00  0.00    -0.023 C 
HETATM    9  C8  UNL     1      23.125   3.030  49.539  1.00  0.00    -0.005 A 
HETATM   10  C14 UNL     1      24.190   5.093  49.749  1.00  0.00     0.112 C 
HETATM   11  C9  UNL     1      22.501   1.905  49.763  1.00  0.00    -0.012 A 
HETATM   12  C13 UNL     1      22.786   3.801  48.348  1.00  0.00     0.035 A 
HETATM   13  C10 UNL     1      21.460   1.315  48.892  1.00  0.00     0.032 A 
HETATM   14  C11 UNL     1      21.118   2.116  47.683  1.00  0.00     0.033 A 
HETATM   15  C12 UNL     1      21.869   3.363  47.518  1.00  0.00     0.004 A 
HETATM   16  N1  UNL     1      23.628   4.942  48.423  1.00  0.00    -0.381 N 
HETATM   17  H14 UNL     1      23.823   5.593  47.639  1.00  0.00     0.160 HD
HETATM   18  C15 UNL     1      25.669   5.466  49.624  1.00  0.00     0.037 C 
ENDBRANCH   3   7
BRANCH   1  19
HETATM   19  C2  UNL     1      23.220  -0.638  53.709  1.00  0.00     0.115 C 
BRANCH  19  20
HETATM   20  S1  UNL     1      21.739   0.377  53.750  1.00  0.00    -0.169 SA
HETATM   21  C1  UNL     1      20.610   0.022  52.409  1.00  0.00     0.090 C 
ENDBRANCH  19  20
ENDBRANCH   1  19
BRANCH   5  22
HETATM   22  S2  UNL     1      28.398   0.022  53.541  1.00  0.00    -0.059 SA
BRANCH  22  23
HETATM   23  C18 UNL     1      29.183   1.310  54.498  1.00  0.00     0.309 C 
HETATM   24  O1  UNL     1      29.654   2.346  54.995  1.00  0.00    -0.295 OA
ENDBRANCH  22  23
ENDBRANCH   5  22
BRANCH   6  25
HETATM   25  O2  UNL     1      25.920  -1.321  54.300  1.00  0.00    -0.359 OA
HETATM   26  H21 UNL     1      26.090  -2.172  53.779  1.00  0.00     0.217 HD
ENDBRANCH   6  25
TORSDOF 6
ENDMDL
MODEL 6
REMARK VINA RESULT:      -7.7      2.830      4.794
REMARK  6 active torsions:
REMARK  status: ('A' for Active; 'I' for Inactive)
REMARK    1  A    between atoms: S1_2  and  C2_3 
REMARK    2  A    between atoms: C2_3  and  C3_4 
REMARK    3  A    between atoms: C5_6  and  C6_7 
REMARK    4  A    between atoms: C17_19  and  S2_20 
REMARK    5  A    between atoms: S2_20  and  C18_21 
REMARK    6  A    between atoms: C19_23  and  O2_24 
ROOT
HETATM    1  C3  UNL     1      25.720   4.700  49.480  1.00  0.00    -0.014 A 
HETATM    2  C4  UNL     1      26.403   3.745  50.194  1.00  0.00     0.022 A 
HETATM    3  C5  UNL     1      25.789   2.623  50.767  1.00  0.00    -0.034 A 
HETATM    4  C16 UNL     1      24.424   2.554  50.553  1.00  0.00     0.033 A 
HETATM    5  C17 UNL     1      23.699   3.483  49.849  1.00  0.00     0.042 A 
HETATM    6  C19 UNL     1      24.361   4.547  49.319  1.00  0.00     0.089 A 
ENDROOT
BRANCH   3   7
HETATM    7  C6  UNL     1      26.511   1.625  51.536  1.00  0.00     0.021 C 
HETATM    8  C7  UNL     1      26.225   0.718  52.414  1.00  0.00    -0.023 C 
HETATM    9  C8  UNL     1      25.000   0.267  53.051  1.00  0.00    -0.005 A 
HETATM   10  C14 UNL     1      27.293  -0.154  53.026  1.00  0.00     0.112 C 
HETATM   11  C9  UNL     1      23.755   0.486  52.723  1.00  0.00    -0.012 A 
HETATM   12  C13 UNL     1      25.288  -0.557  54.219  1.00  0.00     0.035 A 
HETATM   13  C10 UNL     1      22.574  -0.028  53.452  1.00  0.00     0.032 A 
HETATM   14  C11 UNL     1      22.882  -0.874  54.639  1.00  0.00     0.033 A 
HETATM   15  C12 UNL     1      24.306  -1.065  54.926  1.00  0.00     0.004 A 
HETATM   16  N1  UNL     1      26.707  -0.594  54.274  1.00  0.00    -0.381 N 
HETATM   17  H14 UNL     1      27.264  -0.897  55.095  1.00  0.00     0.160 HD
HETATM   18  C15 UNL     1      28.476   0.768  53.328  1.00  0.00     0.037 C 
ENDBRANCH   3   7
BRANCH   1  19
HETATM   19  C2  UNL     1      26.530   5.832  48.899  1.00  0.00     0.115 C 
BRANCH  19  20
HETATM   20  S1  UNL     1      28.186   5.290  48.464  1.00  0.00    -0.169 SA
HETATM   21  C1  UNL     1      29.171   6.581  47.715  1.00  0.00     0.090 C 
ENDBRANCH  19  20
ENDBRANCH   1  19
BRANCH   5  22
HETATM   22  S2  UNL     1      21.940   3.428  49.560  1.00  0.00    -0.059 SA
BRANCH  22  23
HETATM   23  C18 UNL     1      21.548   1.821  48.885  1.00  0.00     0.309 C 
HETATM   24  O1  UNL     1      21.505   0.678  48.401  1.00  0.00    -0.295 OA
ENDBRANCH  22  23
ENDBRANCH   5  22
BRANCH   6  25
HETATM   25  O2  UNL     1      23.715   5.536  48.594  1.00  0.00    -0.359 OA
HETATM   26  H21 UNL     1      24.295   6.086  47.972  1.00  0.00     0.217 HD
ENDBRANCH   6  25
TORSDOF 6
ENDMDL
MODEL 7
REMARK VINA RESULT:      -7.6      3.248      6.531
REMARK  6 active torsions:
REMARK  status: ('A' for Active; 'I' for Inactive)
REMARK    1  A    between atoms: S1_2  and  C2_3 
REMARK    2  A    between atoms: C2_3  and  C3_4 
REMARK    3  A    between atoms: C5_6  and  C6_7 
REMARK    4  A    between atoms: C17_19  and  S2_20 
REMARK    5  A    between atoms: S2_20  and  C18_21 
REMARK    6  A    between atoms: C19_23  and  O2_24 
ROOT
HETATM    1  C3  UNL     1      23.657  -0.212  53.768  1.00  0.00    -0.014 A 
HETATM    2  C4  UNL     1      23.008   0.594  52.865  1.00  0.00     0.022 A 
HETATM    3  C5  UNL     1      23.669   1.334  51.874  1.00  0.00    -0.034 A 
HETATM    4  C16 UNL     1      25.044   1.186  51.882  1.00  0.00     0.033 A 
HETATM    5  C17 UNL     1      25.737   0.395  52.764  1.00  0.00     0.042 A 
HETATM    6  C19 UNL     1      25.029  -0.296  53.699  1.00  0.00     0.089 A 
ENDROOT
BRANCH   3   7
HETATM    7  C6  UNL     1      22.982   2.198  50.932  1.00  0.00     0.021 C 
HETATM    8  C7  UNL     1      23.302   3.141  50.105  1.00  0.00    -0.023 C 
HETATM    9  C8  UNL     1      24.547   3.786  49.727  1.00  0.00    -0.005 A 
HETATM   10  C14 UNL     1      22.263   3.847  49.270  1.00  0.00     0.112 C 
HETATM   11  C9  UNL     1      25.782   3.413  49.939  1.00  0.00    -0.012 A 
HETATM   12  C13 UNL     1      24.298   5.023  48.999  1.00  0.00     0.035 A 
HETATM   13  C10 UNL     1      26.986   4.155  49.506  1.00  0.00     0.032 A 
HETATM   14  C11 UNL     1      26.718   5.415  48.756  1.00  0.00     0.033 A 
HETATM   15  C12 UNL     1      25.304   5.748  48.567  1.00  0.00     0.004 A 
HETATM   16  N1  UNL     1      22.882   5.113  48.944  1.00  0.00    -0.381 N 
HETATM   17  H14 UNL     1      22.347   5.969  48.700  1.00  0.00     0.160 HD
HETATM   18  C15 UNL     1      21.069   4.098  50.194  1.00  0.00     0.037 C 
ENDBRANCH   3   7
BRANCH   1  19
HETATM   19  C2  UNL     1      22.800  -0.968  54.752  1.00  0.00     0.115 C 
BRANCH  19  20
HETATM   20  S1  UNL     1      21.453  -1.818  53.922  1.00  0.00    -0.169 SA
HETATM   21  C1  UNL     1      19.988  -0.807  53.750  1.00  0.00     0.090 C 
ENDBRANCH  19  20
ENDBRANCH   1  19
BRANCH   5  22
HETATM   22  S2  UNL     1      27.507   0.186  52.805  1.00  0.00    -0.059 SA
BRANCH  22  23
HETATM   23  C18 UNL     1      28.222   1.702  53.422  1.00  0.00     0.309 C 
HETATM   24  O1  UNL     1      28.730   2.644  54.052  1.00  0.00    -0.295 OA
ENDBRANCH  22  23
ENDBRANCH   5  22
BRANCH   6  25
HETATM   25  O2  UNL     1      25.640  -1.119  54.632  1.00  0.00    -0.359 OA
HETATM   26  H21 UNL     1      26.516  -0.786  55.016  1.00  0.00     0.217 HD
ENDBRANCH   6  25
TORSDOF 6
ENDMDL
MODEL 8
REMARK VINA RESULT:      -7.3      2.956      4.758
REMARK  6 active torsions:
REMARK  status: ('A' for Active; 'I' for Inactive)
REMARK    1  A    between atoms: S1_2  and  C2_3 
REMARK    2  A    between atoms: C2_3  and  C3_4 
REMARK    3  A    between atoms: C5_6  and  C6_7 
REMARK    4  A    between atoms: C17_19  and  S2_20 
REMARK    5  A    between atoms: S2_20  and  C18_21 
REMARK    6  A    between atoms: C19_23  and  O2_24 
ROOT
HETATM    1  C3  UNL     1      24.068   5.323  50.349  1.00  0.00    -0.014 A 
HETATM    2  C4  UNL     1      24.734   4.262  50.914  1.00  0.00     0.022 A 
HETATM    3  C5  UNL     1      24.398   2.922  50.674  1.00  0.00    -0.034 A 
HETATM    4  C16 UNL     1      23.329   2.754  49.813  1.00  0.00     0.033 A 
HETATM    5  C17 UNL     1      22.632   3.781  49.225  1.00  0.00     0.042 A 
HETATM    6  C19 UNL     1      23.015   5.057  49.504  1.00  0.00     0.089 A 
ENDROOT
BRANCH   3   7
HETATM    7  C6  UNL     1      25.092   1.804  51.286  1.00  0.00     0.021 C 
HETATM    8  C7  UNL     1      24.811   0.862  52.127  1.00  0.00    -0.023 C 
HETATM    9  C8  UNL     1      23.622   0.479  52.869  1.00  0.00    -0.005 A 
HETATM   10  C14 UNL     1      25.844  -0.152  52.553  1.00  0.00     0.112 C 
HETATM   11  C9  UNL     1      22.378   0.840  52.702  1.00  0.00    -0.012 A 
HETATM   12  C13 UNL     1      23.949  -0.457  53.938  1.00  0.00     0.035 A 
HETATM   13  C10 UNL     1      21.237   0.383  53.525  1.00  0.00     0.032 A 
HETATM   14  C11 UNL     1      21.583  -0.579  54.609  1.00  0.00     0.033 A 
HETATM   15  C12 UNL     1      23.002  -0.924  54.717  1.00  0.00     0.004 A 
HETATM   16  N1  UNL     1      25.354  -0.632  53.827  1.00  0.00    -0.381 N 
HETATM   17  H14 UNL     1      25.963  -1.050  54.557  1.00  0.00     0.160 HD
HETATM   18  C15 UNL     1      27.141   0.628  52.778  1.00  0.00     0.037 C 
ENDBRANCH   3   7
BRANCH   1  19
HETATM   19  C2  UNL     1      24.571   6.705  50.683  1.00  0.00     0.115 C 
BRANCH  19  20
HETATM   20  S1  UNL     1      26.001   7.135  49.685  1.00  0.00    -0.169 SA
HETATM   21  C1  UNL     1      26.692   8.730  50.103  1.00  0.00     0.090 C 
ENDBRANCH  19  20
ENDBRANCH   1  19
BRANCH   5  22
HETATM   22  S2  UNL     1      21.248   3.599  48.116  1.00  0.00    -0.059 SA
BRANCH  22  23
HETATM   23  C18 UNL     1      21.880   3.626  46.446  1.00  0.00     0.309 C 
HETATM   24  O1  UNL     1      22.151   3.491  45.242  1.00  0.00    -0.295 OA
ENDBRANCH  22  23
ENDBRANCH   5  22
BRANCH   6  25
HETATM   25  O2  UNL     1      22.372   6.158  48.960  1.00  0.00    -0.359 OA
HETATM   26  H21 UNL     1      22.364   6.217  47.949  1.00  0.00     0.217 HD
ENDBRANCH   6  25
TORSDOF 6
ENDMDL
MODEL 9
REMARK VINA RESULT:      -7.2      3.391      5.416
REMARK  6 active torsions:
REMARK  status: ('A' for Active; 'I' for Inactive)
REMARK    1  A    between atoms: S1_2  and  C2_3 
REMARK    2  A    between atoms: C2_3  and  C3_4 
REMARK    3  A    between atoms: C5_6  and  C6_7 
REMARK    4  A    between atoms: C17_19  and  S2_20 
REMARK    5  A    between atoms: S2_20  and  C18_21 
REMARK    6  A    between atoms: C19_23  and  O2_24 
ROOT
HETATM    1  C3  UNL     1      25.806   1.039  52.443  1.00  0.00    -0.014 A 
HETATM    2  C4  UNL     1      25.370   2.269  52.014  1.00  0.00     0.022 A 
HETATM    3  C5  UNL     1      24.047   2.712  52.152  1.00  0.00    -0.034 A 
HETATM    4  C16 UNL     1      23.206   1.798  52.761  1.00  0.00     0.033 A 
HETATM    5  C17 UNL     1      23.594   0.558  53.205  1.00  0.00     0.042 A 
HETATM    6  C19 UNL     1      24.895   0.195  53.038  1.00  0.00     0.089 A 
ENDROOT
BRANCH   3   7
HETATM    7  C6  UNL     1      23.586   4.005  51.682  1.00  0.00     0.021 C 
HETATM    8  C7  UNL     1      23.097   4.496  50.589  1.00  0.00    -0.023 C 
HETATM    9  C8  UNL     1      22.770   3.949  49.283  1.00  0.00    -0.005 A 
HETATM   10  C14 UNL     1      22.736   5.956  50.470  1.00  0.00     0.112 C 
HETATM   11  C9  UNL     1      22.639   2.706  48.904  1.00  0.00    -0.012 A 
HETATM   12  C13 UNL     1      22.565   5.011  48.306  1.00  0.00     0.035 A 
HETATM   13  C10 UNL     1      22.301   2.261  47.534  1.00  0.00     0.032 A 
HETATM   14  C11 UNL     1      22.087   3.356  46.547  1.00  0.00     0.033 A 
HETATM   15  C12 UNL     1      22.255   4.715  47.066  1.00  0.00     0.004 A 
HETATM   16  N1  UNL     1      22.773   6.206  49.045  1.00  0.00    -0.381 N 
HETATM   17  H14 UNL     1      22.930   7.145  48.630  1.00  0.00     0.160 HD
HETATM   18  C15 UNL     1      23.869   6.733  51.143  1.00  0.00     0.037 C 
ENDBRANCH   3   7
BRANCH   1  19
HETATM   19  C2  UNL     1      27.268   0.723  52.250  1.00  0.00     0.115 C 
BRANCH  19  20
HETATM   20  S1  UNL     1      28.257   1.372  53.602  1.00  0.00    -0.169 SA
HETATM   21  C1  UNL     1      28.691   0.128  54.811  1.00  0.00     0.090 C 
ENDBRANCH  19  20
ENDBRANCH   1  19
BRANCH   5  22
HETATM   22  S2  UNL     1      22.536  -0.645  53.988  1.00  0.00    -0.059 SA
BRANCH  22  23
HETATM   23  C18 UNL     1      20.871  -0.368  53.405  1.00  0.00     0.309 C 
HETATM   24  O1  UNL     1      19.657  -0.181  53.225  1.00  0.00    -0.295 OA
ENDBRANCH  22  23
ENDBRANCH   5  22
BRANCH   6  25
HETATM   25  O2  UNL     1      25.380  -1.036  53.452  1.00  0.00    -0.359 OA
HETATM   26  H21 UNL     1      26.387  -1.138  53.467  1.00  0.00     0.217 HD
ENDBRANCH   6  25
TORSDOF 6
ENDMDL
