MODEL 1
REMARK VINA RESULT:      -9.4      0.000      0.000
REMARK  3 active torsions:
REMARK  status: ('A' for Active; 'I' for Inactive)
REMARK    1  A    between atoms: O1_2  and  C2_3 
REMARK    2  A    between atoms: C12_16  and  N4_17 
REMARK    3  A    between atoms: C16_21  and  C17_22 
ROOT
HETATM    1  C2  UNL     1      26.261   0.322  53.963  1.00  0.00     0.069 A 
HETATM    2  C3  UNL     1      24.965  -0.105  53.899  1.00  0.00     0.039 A 
HETATM    3  C4  UNL     1      24.192   0.411  52.872  1.00  0.00     0.040 A 
HETATM    4  C5  UNL     1      24.692   1.321  51.941  1.00  0.00     0.086 A 
HETATM    5  C6  UNL     1      25.990   1.743  52.015  1.00  0.00    -0.004 A 
HETATM    6  C7  UNL     1      26.747   1.222  53.040  1.00  0.00     0.048 A 
HETATM    7  C8  UNL     1      26.796   2.693  51.177  1.00  0.00     0.161 C 
HETATM    8  N1  UNL     1      25.987   3.849  50.846  1.00  0.00    -0.379 N 
HETATM    9  C9  UNL     1      24.697   3.834  50.199  1.00  0.00     0.129 A 
HETATM   10  C10 UNL     1      23.679   2.875  50.283  1.00  0.00     0.202 A 
HETATM   11  N2  UNL     1      22.514   3.031  49.620  1.00  0.00    -0.215 NA
HETATM   12  C11 UNL     1      22.428   4.177  48.884  1.00  0.00     0.238 A 
HETATM   13  N3  UNL     1      23.365   5.160  48.746  1.00  0.00    -0.222 NA
HETATM   14  C12 UNL     1      24.530   4.985  49.419  1.00  0.00     0.162 A 
HETATM   15  O2  UNL     1      23.715   1.678  51.024  1.00  0.00    -0.289 OA
HETATM   16  H9  UNL     1      26.219   4.869  51.034  1.00  0.00     0.160 HD
ENDROOT
BRANCH  14  17
HETATM   17  N4  UNL     1      25.532   5.979  49.270  1.00  0.00    -0.336 N 
HETATM   18  C13 UNL     1      25.158   7.234  49.844  1.00  0.00     0.093 A 
HETATM   19  C14 UNL     1      26.044   8.232  49.787  1.00  0.00     0.018 A 
HETATM   20  C15 UNL     1      27.320   7.994  49.155  1.00  0.00     0.011 A 
HETATM   21  C16 UNL     1      27.701   6.853  48.610  1.00  0.00    -0.030 A 
HETATM   22  C23 UNL     1      26.770   5.703  48.614  1.00  0.00     0.169 A 
BRANCH  21  23
HETATM   23  C17 UNL     1      29.001   6.648  47.980  1.00  0.00    -0.028 A 
HETATM   24  C18 UNL     1      29.765   5.521  48.193  1.00  0.00     0.012 A 
HETATM   25  C19 UNL     1      30.996   5.290  47.617  1.00  0.00     0.001 A 
HETATM   26  C20 UNL     1      31.519   6.240  46.763  1.00  0.00     0.000 A 
HETATM   27  C21 UNL     1      30.811   7.394  46.501  1.00  0.00     0.001 A 
HETATM   28  C22 UNL     1      29.589   7.549  47.117  1.00  0.00     0.012 A 
ENDBRANCH  21  23
ENDBRANCH  14  17
BRANCH   1  29
HETATM   29  O1  UNL     1      27.112  -0.134  54.950  1.00  0.00    -0.356 OA
HETATM   30  C1  UNL     1      28.499   0.086  54.960  1.00  0.00     0.210 C 
ENDBRANCH   1  29
TORSDOF 3
ENDMDL
MODEL 2
REMARK VINA RESULT:      -9.4      2.816      8.055
REMARK  3 active torsions:
REMARK  status: ('A' for Active; 'I' for Inactive)
REMARK    1  A    between atoms: O1_2  and  C2_3 
REMARK    2  A    between atoms: C12_16  and  N4_17 
REMARK    3  A    between atoms: C16_21  and  C17_22 
ROOT
HETATM    1  C2  UNL     1      28.488   5.472  48.253  1.00  0.00     0.069 A 
HETATM    2  C3  UNL     1      28.126   6.755  47.959  1.00  0.00     0.039 A 
HETATM    3  C4  UNL     1      26.867   7.157  48.377  1.00  0.00     0.040 A 
HETATM    4  C5  UNL     1      26.000   6.309  49.064  1.00  0.00     0.086 A 
HETATM    5  C6  UNL     1      26.372   5.025  49.353  1.00  0.00    -0.004 A 
HETATM    6  C7  UNL     1      27.625   4.640  48.932  1.00  0.00     0.048 A 
HETATM    7  C8  UNL     1      25.671   3.903  50.063  1.00  0.00     0.161 C 
HETATM    8  N1  UNL     1      24.282   3.866  49.653  1.00  0.00    -0.379 N 
HETATM    9  C9  UNL     1      23.338   4.956  49.725  1.00  0.00     0.129 A 
HETATM   10  C10 UNL     1      23.568   6.332  49.587  1.00  0.00     0.202 A 
HETATM   11  N2  UNL     1      22.555   7.221  49.663  1.00  0.00    -0.215 NA
HETATM   12  C11 UNL     1      21.327   6.666  49.879  1.00  0.00     0.238 A 
HETATM   13  N3  UNL     1      21.015   5.346  50.026  1.00  0.00    -0.222 NA
HETATM   14  C12 UNL     1      22.045   4.467  49.947  1.00  0.00     0.162 A 
HETATM   15  O2  UNL     1      24.811   6.955  49.363  1.00  0.00    -0.289 OA
HETATM   16  H9  UNL     1      23.758   3.040  49.236  1.00  0.00     0.160 HD
ENDROOT
BRANCH  14  17
HETATM   17  N4  UNL     1      21.751   3.090  50.123  1.00  0.00    -0.336 N 
HETATM   18  C13 UNL     1      21.188   2.489  48.954  1.00  0.00     0.093 A 
HETATM   19  C14 UNL     1      20.903   1.185  49.002  1.00  0.00     0.018 A 
HETATM   20  C15 UNL     1      21.174   0.457  50.219  1.00  0.00     0.011 A 
HETATM   21  C16 UNL     1      21.689   0.976  51.319  1.00  0.00    -0.030 A 
HETATM   22  C23 UNL     1      22.015   2.419  51.356  1.00  0.00     0.169 A 
BRANCH  21  23
HETATM   23  C17 UNL     1      21.951   0.209  52.532  1.00  0.00    -0.028 A 
HETATM   24  C18 UNL     1      20.951  -0.397  53.264  1.00  0.00     0.012 A 
HETATM   25  C19 UNL     1      21.158  -1.130  54.413  1.00  0.00     0.001 A 
HETATM   26  C20 UNL     1      22.447  -1.281  54.883  1.00  0.00     0.000 A 
HETATM   27  C21 UNL     1      23.499  -0.703  54.204  1.00  0.00     0.001 A 
HETATM   28  C22 UNL     1      23.208   0.014  53.064  1.00  0.00     0.012 A 
ENDBRANCH  21  23
ENDBRANCH  14  17
BRANCH   1  29
HETATM   29  O1  UNL     1      29.722   4.977  47.880  1.00  0.00    -0.356 OA
HETATM   30  C1  UNL     1      30.916   5.714  47.929  1.00  0.00     0.210 C 
ENDBRANCH   1  29
TORSDOF 3
ENDMDL
MODEL 3
REMARK VINA RESULT:      -9.2      4.113      7.380
REMARK  3 active torsions:
REMARK  status: ('A' for Active; 'I' for Inactive)
REMARK    1  A    between atoms: O1_2  and  C2_3 
REMARK    2  A    between atoms: C12_16  and  N4_17 
REMARK    3  A    between atoms: C16_21  and  C17_22 
ROOT
HETATM    1  C2  UNL     1      17.673   0.363  50.468  1.00  0.00     0.069 A 
HETATM    2  C3  UNL     1      17.185  -0.518  51.391  1.00  0.00     0.039 A 
HETATM    3  C4  UNL     1      18.004  -0.804  52.470  1.00  0.00     0.040 A 
HETATM    4  C5  UNL     1      19.266  -0.232  52.625  1.00  0.00     0.086 A 
HETATM    5  C6  UNL     1      19.746   0.648  51.695  1.00  0.00    -0.004 A 
HETATM    6  C7  UNL     1      18.921   0.923  50.628  1.00  0.00     0.048 A 
HETATM    7  C8  UNL     1      21.037   1.408  51.591  1.00  0.00     0.161 C 
HETATM    8  N1  UNL     1      22.137   0.547  51.975  1.00  0.00    -0.379 N 
HETATM    9  C9  UNL     1      22.266  -0.175  53.218  1.00  0.00     0.129 A 
HETATM   10  C10 UNL     1      21.263  -0.734  54.022  1.00  0.00     0.202 A 
HETATM   11  N2  UNL     1      21.566  -1.400  55.156  1.00  0.00    -0.215 NA
HETATM   12  C11 UNL     1      22.900  -1.475  55.432  1.00  0.00     0.238 A 
HETATM   13  N3  UNL     1      23.939  -0.962  54.709  1.00  0.00    -0.222 NA
HETATM   14  C12 UNL     1      23.615  -0.294  53.573  1.00  0.00     0.162 A 
HETATM   15  O2  UNL     1      19.876  -0.686  53.785  1.00  0.00    -0.289 OA
HETATM   16  H9  UNL     1      23.000   0.315  51.400  1.00  0.00     0.160 HD
ENDROOT
BRANCH  14  17
HETATM   17  N4  UNL     1      24.675   0.271  52.818  1.00  0.00    -0.336 N 
HETATM   18  C13 UNL     1      25.874  -0.505  52.875  1.00  0.00     0.093 A 
HETATM   19  C14 UNL     1      26.925  -0.077  52.171  1.00  0.00     0.018 A 
HETATM   20  C15 UNL     1      26.798   1.135  51.398  1.00  0.00     0.011 A 
HETATM   21  C16 UNL     1      25.711   1.882  51.322  1.00  0.00    -0.030 A 
HETATM   22  C23 UNL     1      24.508   1.488  52.088  1.00  0.00     0.169 A 
BRANCH  21  23
HETATM   23  C17 UNL     1      25.618   3.102  50.529  1.00  0.00    -0.028 A 
HETATM   24  C18 UNL     1      24.450   3.825  50.404  1.00  0.00     0.012 A 
HETATM   25  C19 UNL     1      24.322   4.982  49.665  1.00  0.00     0.001 A 
HETATM   26  C20 UNL     1      25.427   5.469  48.995  1.00  0.00     0.000 A 
HETATM   27  C21 UNL     1      26.629   4.800  49.073  1.00  0.00     0.001 A 
HETATM   28  C22 UNL     1      26.674   3.651  49.832  1.00  0.00     0.012 A 
ENDBRANCH  21  23
ENDBRANCH  14  17
BRANCH   1  29
HETATM   29  O1  UNL     1      16.932   0.713  49.357  1.00  0.00    -0.356 OA
HETATM   30  C1  UNL     1      16.810   2.024  48.869  1.00  0.00     0.210 C 
ENDBRANCH   1  29
TORSDOF 3
ENDMDL
MODEL 4
REMARK VINA RESULT:      -9.1      5.041      8.704
REMARK  3 active torsions:
REMARK  status: ('A' for Active; 'I' for Inactive)
REMARK    1  A    between atoms: O1_2  and  C2_3 
REMARK    2  A    between atoms: C12_16  and  N4_17 
REMARK    3  A    between atoms: C16_21  and  C17_22 
ROOT
HETATM    1  C2  UNL     1      27.319  -0.726  53.273  1.00  0.00     0.069 A 
HETATM    2  C3  UNL     1      27.973   0.445  53.530  1.00  0.00     0.039 A 
HETATM    3  C4  UNL     1      27.192   1.584  53.629  1.00  0.00     0.040 A 
HETATM    4  C5  UNL     1      25.806   1.558  53.479  1.00  0.00     0.086 A 
HETATM    5  C6  UNL     1      25.161   0.380  53.221  1.00  0.00    -0.004 A 
HETATM    6  C7  UNL     1      25.949  -0.744  53.125  1.00  0.00     0.048 A 
HETATM    7  C8  UNL     1      23.712   0.043  53.014  1.00  0.00     0.161 C 
HETATM    8  N1  UNL     1      23.093   1.062  52.190  1.00  0.00    -0.379 N 
HETATM    9  C9  UNL     1      23.078   2.482  52.449  1.00  0.00     0.129 A 
HETATM   10  C10 UNL     1      24.049   3.273  53.079  1.00  0.00     0.202 A 
HETATM   11  N2  UNL     1      23.880   4.605  53.221  1.00  0.00    -0.215 NA
HETATM   12  C11 UNL     1      22.711   5.088  52.709  1.00  0.00     0.238 A 
HETATM   13  N3  UNL     1      21.716   4.393  52.084  1.00  0.00    -0.222 NA
HETATM   14  C12 UNL     1      21.902   3.056  51.951  1.00  0.00     0.162 A 
HETATM   15  O2  UNL     1      25.268   2.827  53.624  1.00  0.00    -0.289 OA
HETATM   16  H9  UNL     1      22.568   0.916  51.277  1.00  0.00     0.160 HD
ENDROOT
BRANCH  14  17
HETATM   17  N4  UNL     1      20.870   2.306  51.329  1.00  0.00    -0.336 N 
HETATM   18  C13 UNL     1      20.713   2.622  49.943  1.00  0.00     0.093 A 
HETATM   19  C14 UNL     1      19.788   1.948  49.255  1.00  0.00     0.018 A 
HETATM   20  C15 UNL     1      19.002   0.948  49.938  1.00  0.00     0.011 A 
HETATM   21  C16 UNL     1      19.114   0.631  51.215  1.00  0.00    -0.030 A 
HETATM   22  C23 UNL     1      20.102   1.344  52.054  1.00  0.00     0.169 A 
BRANCH  21  23
HETATM   23  C17 UNL     1      18.303  -0.388  51.873  1.00  0.00    -0.028 A 
HETATM   24  C18 UNL     1      16.996  -0.648  51.515  1.00  0.00     0.012 A 
HETATM   25  C19 UNL     1      16.198  -1.601  52.110  1.00  0.00     0.001 A 
HETATM   26  C20 UNL     1      16.721  -2.359  53.138  1.00  0.00     0.000 A 
HETATM   27  C21 UNL     1      18.021  -2.156  53.550  1.00  0.00     0.001 A 
HETATM   28  C22 UNL     1      18.753  -1.184  52.904  1.00  0.00     0.012 A 
ENDBRANCH  21  23
ENDBRANCH  14  17
BRANCH   1  29
HETATM   29  O1  UNL     1      28.009  -1.916  53.156  1.00  0.00    -0.356 OA
HETATM   30  C1  UNL     1      29.390  -2.053  53.371  1.00  0.00     0.210 C 
ENDBRANCH   1  29
TORSDOF 3
ENDMDL
MODEL 5
REMARK VINA RESULT:      -8.9      3.534      9.292
REMARK  3 active torsions:
REMARK  status: ('A' for Active; 'I' for Inactive)
REMARK    1  A    between atoms: O1_2  and  C2_3 
REMARK    2  A    between atoms: C12_16  and  N4_17 
REMARK    3  A    between atoms: C16_21  and  C17_22 
ROOT
HETATM    1  C2  UNL     1      24.611   5.448  48.947  1.00  0.00     0.069 A 
HETATM    2  C3  UNL     1      25.969   5.522  49.073  1.00  0.00     0.039 A 
HETATM    3  C4  UNL     1      26.599   4.437  49.661  1.00  0.00     0.040 A 
HETATM    4  C5  UNL     1      25.900   3.317  50.107  1.00  0.00     0.086 A 
HETATM    5  C6  UNL     1      24.540   3.253  49.977  1.00  0.00    -0.004 A 
HETATM    6  C7  UNL     1      23.928   4.338  49.392  1.00  0.00     0.048 A 
HETATM    7  C8  UNL     1      23.535   2.203  50.355  1.00  0.00     0.161 C 
HETATM    8  N1  UNL     1      23.868   1.661  51.656  1.00  0.00    -0.379 N 
HETATM    9  C9  UNL     1      25.131   1.079  52.044  1.00  0.00     0.129 A 
HETATM   10  C10 UNL     1      26.423   1.402  51.607  1.00  0.00     0.202 A 
HETATM   11  N2  UNL     1      27.506   0.763  52.095  1.00  0.00    -0.215 NA
HETATM   12  C11 UNL     1      27.229  -0.197  53.025  1.00  0.00     0.238 A 
HETATM   13  N3  UNL     1      26.009  -0.575  53.505  1.00  0.00    -0.222 NA
HETATM   14  C12 UNL     1      24.931   0.078  53.003  1.00  0.00     0.162 A 
HETATM   15  O2  UNL     1      26.764   2.380  50.653  1.00  0.00    -0.289 OA
HETATM   16  H9  UNL     1      23.240   1.620  52.513  1.00  0.00     0.160 HD
ENDROOT
BRANCH  14  17
HETATM   17  N4  UNL     1      23.649  -0.315  53.466  1.00  0.00    -0.336 N 
HETATM   18  C13 UNL     1      23.685  -0.903  54.769  1.00  0.00     0.093 A 
HETATM   19  C14 UNL     1      22.524  -1.279  55.312  1.00  0.00     0.018 A 
HETATM   20  C15 UNL     1      21.307  -1.077  54.564  1.00  0.00     0.011 A 
HETATM   21  C16 UNL     1      21.231  -0.542  53.359  1.00  0.00    -0.030 A 
HETATM   22  C23 UNL     1      22.474  -0.116  52.678  1.00  0.00     0.169 A 
BRANCH  21  23
HETATM   23  C17 UNL     1      19.981  -0.351  52.632  1.00  0.00    -0.028 A 
HETATM   24  C18 UNL     1      19.897   0.391  51.472  1.00  0.00     0.012 A 
HETATM   25  C19 UNL     1      18.737   0.594  50.757  1.00  0.00     0.001 A 
HETATM   26  C20 UNL     1      17.565   0.025  51.214  1.00  0.00     0.000 A 
HETATM   27  C21 UNL     1      17.572  -0.731  52.367  1.00  0.00     0.001 A 
HETATM   28  C22 UNL     1      18.773  -0.886  53.024  1.00  0.00     0.012 A 
ENDBRANCH  21  23
ENDBRANCH  14  17
BRANCH   1  29
HETATM   29  O1  UNL     1      23.892   6.479  48.375  1.00  0.00    -0.356 OA
HETATM   30  C1  UNL     1      22.561   6.368  47.943  1.00  0.00     0.210 C 
ENDBRANCH   1  29
TORSDOF 3
ENDMDL
MODEL 6
REMARK VINA RESULT:      -8.8      3.313      7.237
REMARK  3 active torsions:
REMARK  status: ('A' for Active; 'I' for Inactive)
REMARK    1  A    between atoms: O1_2  and  C2_3 
REMARK    2  A    between atoms: C12_16  and  N4_17 
REMARK    3  A    between atoms: C16_21  and  C17_22 
ROOT
HETATM    1  C2  UNL     1      25.615   8.588  49.636  1.00  0.00     0.069 A 
HETATM    2  C3  UNL     1      25.141   8.594  48.356  1.00  0.00     0.039 A 
HETATM    3  C4  UNL     1      24.293   7.557  48.002  1.00  0.00     0.040 A 
HETATM    4  C5  UNL     1      23.932   6.548  48.893  1.00  0.00     0.086 A 
HETATM    5  C6  UNL     1      24.413   6.550  50.173  1.00  0.00    -0.004 A 
HETATM    6  C7  UNL     1      25.254   7.587  50.511  1.00  0.00     0.048 A 
HETATM    7  C8  UNL     1      24.208   5.620  51.334  1.00  0.00     0.161 C 
HETATM    8  N1  UNL     1      24.238   4.249  50.866  1.00  0.00    -0.379 N 
HETATM    9  C9  UNL     1      23.415   3.681  49.825  1.00  0.00     0.129 A 
HETATM   10  C10 UNL     1      22.905   4.292  48.672  1.00  0.00     0.202 A 
HETATM   11  N2  UNL     1      22.161   3.600  47.784  1.00  0.00    -0.215 NA
HETATM   12  C11 UNL     1      21.961   2.290  48.109  1.00  0.00     0.238 A 
HETATM   13  N3  UNL     1      22.418   1.617  49.206  1.00  0.00    -0.222 NA
HETATM   14  C12 UNL     1      23.163   2.329  50.088  1.00  0.00     0.162 A 
HETATM   15  O2  UNL     1      23.079   5.637  48.289  1.00  0.00    -0.289 OA
HETATM   16  H9  UNL     1      24.870   3.468  51.212  1.00  0.00     0.160 HD
ENDROOT
BRANCH  14  17
HETATM   17  N4  UNL     1      23.627   1.660  51.249  1.00  0.00    -0.336 N 
HETATM   18  C13 UNL     1      22.565   1.247  52.114  1.00  0.00     0.093 A 
HETATM   19  C14 UNL     1      22.891   0.578  53.222  1.00  0.00     0.018 A 
HETATM   20  C15 UNL     1      24.284   0.309  53.489  1.00  0.00     0.011 A 
HETATM   21  C16 UNL     1      25.293   0.676  52.719  1.00  0.00    -0.030 A 
HETATM   22  C23 UNL     1      25.018   1.439  51.481  1.00  0.00     0.169 A 
BRANCH  21  23
HETATM   23  C17 UNL     1      26.690   0.385  53.020  1.00  0.00    -0.028 A 
HETATM   24  C18 UNL     1      27.223  -0.885  52.941  1.00  0.00     0.012 A 
HETATM   25  C19 UNL     1      28.537  -1.200  53.216  1.00  0.00     0.001 A 
HETATM   26  C20 UNL     1      29.397  -0.190  53.598  1.00  0.00     0.000 A 
HETATM   27  C21 UNL     1      28.936   1.105  53.699  1.00  0.00     0.001 A 
HETATM   28  C22 UNL     1      27.609   1.337  53.407  1.00  0.00     0.012 A 
ENDBRANCH  21  23
ENDBRANCH  14  17
BRANCH   1  29
HETATM   29  O1  UNL     1      26.466   9.579  50.085  1.00  0.00    -0.356 OA
HETATM   30  C1  UNL     1      27.861   9.552  49.930  1.00  0.00     0.210 C 
ENDBRANCH   1  29
TORSDOF 3
ENDMDL
MODEL 7
REMARK VINA RESULT:      -8.6      2.608      5.013
REMARK  3 active torsions:
REMARK  status: ('A' for Active; 'I' for Inactive)
REMARK    1  A    between atoms: O1_2  and  C2_3 
REMARK    2  A    between atoms: C12_16  and  N4_17 
REMARK    3  A    between atoms: C16_21  and  C17_22 
ROOT
HETATM    1  C2  UNL     1      24.207   3.415  50.689  1.00  0.00     0.069 A 
HETATM    2  C3  UNL     1      23.217   4.287  50.338  1.00  0.00     0.039 A 
HETATM    3  C4  UNL     1      23.570   5.314  49.477  1.00  0.00     0.040 A 
HETATM    4  C5  UNL     1      24.865   5.466  48.984  1.00  0.00     0.086 A 
HETATM    5  C6  UNL     1      25.849   4.586  49.342  1.00  0.00    -0.004 A 
HETATM    6  C7  UNL     1      25.484   3.571  50.197  1.00  0.00     0.048 A 
HETATM    7  C8  UNL     1      27.304   4.493  48.982  1.00  0.00     0.161 C 
HETATM    8  N1  UNL     1      27.889   5.818  48.988  1.00  0.00    -0.379 N 
HETATM    9  C9  UNL     1      27.426   6.962  48.239  1.00  0.00     0.129 A 
HETATM   10  C10 UNL     1      26.118   7.305  47.871  1.00  0.00     0.202 A 
HETATM   11  N2  UNL     1      25.859   8.435  47.181  1.00  0.00    -0.215 NA
HETATM   12  C11 UNL     1      26.960   9.186  46.887  1.00  0.00     0.238 A 
HETATM   13  N3  UNL     1      28.262   8.929  47.204  1.00  0.00    -0.222 NA
HETATM   14  C12 UNL     1      28.504   7.788  47.897  1.00  0.00     0.162 A 
HETATM   15  O2  UNL     1      24.950   6.568  48.147  1.00  0.00    -0.289 OA
HETATM   16  H9  UNL     1      28.734   6.144  49.545  1.00  0.00     0.160 HD
ENDROOT
BRANCH  14  17
HETATM   17  N4  UNL     1      29.853   7.485  48.215  1.00  0.00    -0.336 N 
HETATM   18  C13 UNL     1      30.447   8.447  49.090  1.00  0.00     0.093 A 
HETATM   19  C14 UNL     1      31.708   8.237  49.478  1.00  0.00     0.018 A 
HETATM   20  C15 UNL     1      32.398   7.064  49.000  1.00  0.00     0.011 A 
HETATM   21  C16 UNL     1      31.886   6.155  48.189  1.00  0.00    -0.030 A 
HETATM   22  C23 UNL     1      30.501   6.323  47.697  1.00  0.00     0.169 A 
BRANCH  21  23
HETATM   23  C17 UNL     1      32.614   4.979  47.726  1.00  0.00    -0.028 A 
HETATM   24  C18 UNL     1      33.971   4.817  47.915  1.00  0.00     0.012 A 
HETATM   25  C19 UNL     1      34.694   3.722  47.493  1.00  0.00     0.001 A 
HETATM   26  C20 UNL     1      34.035   2.703  46.834  1.00  0.00     0.000 A 
HETATM   27  C21 UNL     1      32.678   2.795  46.609  1.00  0.00     0.001 A 
HETATM   28  C22 UNL     1      32.028   3.922  47.061  1.00  0.00     0.012 A 
ENDBRANCH  21  23
ENDBRANCH  14  17
BRANCH   1  29
HETATM   29  O1  UNL     1      23.955   2.358  51.541  1.00  0.00    -0.356 OA
HETATM   30  C1  UNL     1      24.898   1.375  51.882  1.00  0.00     0.210 C 
ENDBRANCH   1  29
TORSDOF 3
ENDMDL
MODEL 8
REMARK VINA RESULT:      -8.3      4.868      9.907
REMARK  3 active torsions:
REMARK  status: ('A' for Active; 'I' for Inactive)
REMARK    1  A    between atoms: O1_2  and  C2_3 
REMARK    2  A    between atoms: C12_16  and  N4_17 
REMARK    3  A    between atoms: C16_21  and  C17_22 
ROOT
HETATM    1  C2  UNL     1      21.648   4.136  45.149  1.00  0.00     0.069 A 
HETATM    2  C3  UNL     1      21.859   5.467  45.369  1.00  0.00     0.039 A 
HETATM    3  C4  UNL     1      22.374   5.819  46.606  1.00  0.00     0.040 A 
HETATM    4  C5  UNL     1      22.670   4.877  47.590  1.00  0.00     0.086 A 
HETATM    5  C6  UNL     1      22.454   3.546  47.360  1.00  0.00    -0.004 A 
HETATM    6  C7  UNL     1      21.942   3.211  46.127  1.00  0.00     0.048 A 
HETATM    7  C8  UNL     1      22.669   2.324  48.206  1.00  0.00     0.161 C 
HETATM    8  N1  UNL     1      22.250   2.599  49.566  1.00  0.00    -0.379 N 
HETATM    9  C9  UNL     1      22.715   3.679  50.403  1.00  0.00     0.129 A 
HETATM   10  C10 UNL     1      23.116   4.970  50.036  1.00  0.00     0.202 A 
HETATM   11  N2  UNL     1      23.506   5.872  50.961  1.00  0.00    -0.215 NA
HETATM   12  C11 UNL     1      23.472   5.417  52.247  1.00  0.00     0.238 A 
HETATM   13  N3  UNL     1      23.097   4.182  52.693  1.00  0.00    -0.222 NA
HETATM   14  C12 UNL     1      22.709   3.289  51.748  1.00  0.00     0.162 A 
HETATM   15  O2  UNL     1      23.171   5.490  48.728  1.00  0.00    -0.289 OA
HETATM   16  H9  UNL     1      21.540   2.055  50.140  1.00  0.00     0.160 HD
ENDROOT
BRANCH  14  17
HETATM   17  N4  UNL     1      22.341   1.989  52.183  1.00  0.00    -0.336 N 
HETATM   18  C13 UNL     1      23.447   1.239  52.691  1.00  0.00     0.093 A 
HETATM   19  C14 UNL     1      23.203   0.012  53.157  1.00  0.00     0.018 A 
HETATM   20  C15 UNL     1      21.850  -0.490  53.124  1.00  0.00     0.011 A 
HETATM   21  C16 UNL     1      20.803   0.169  52.660  1.00  0.00    -0.030 A 
HETATM   22  C23 UNL     1      20.991   1.528  52.106  1.00  0.00     0.169 A 
BRANCH  21  23
HETATM   23  C17 UNL     1      19.448  -0.370  52.643  1.00  0.00    -0.028 A 
HETATM   24  C18 UNL     1      18.473   0.090  51.783  1.00  0.00     0.012 A 
HETATM   25  C19 UNL     1      17.182  -0.393  51.735  1.00  0.00     0.001 A 
HETATM   26  C20 UNL     1      16.818  -1.406  52.599  1.00  0.00     0.000 A 
HETATM   27  C21 UNL     1      17.741  -1.917  53.487  1.00  0.00     0.001 A 
HETATM   28  C22 UNL     1      19.010  -1.380  53.472  1.00  0.00     0.012 A 
ENDBRANCH  21  23
ENDBRANCH  14  17
BRANCH   1  29
HETATM   29  O1  UNL     1      21.138   3.685  43.948  1.00  0.00    -0.356 OA
HETATM   30  C1  UNL     1      20.241   4.412  43.148  1.00  0.00     0.210 C 
ENDBRANCH   1  29
TORSDOF 3
ENDMDL
MODEL 9
REMARK VINA RESULT:      -8.3      2.815      7.876
REMARK  3 active torsions:
REMARK  status: ('A' for Active; 'I' for Inactive)
REMARK    1  A    between atoms: O1_2  and  C2_3 
REMARK    2  A    between atoms: C12_16  and  N4_17 
REMARK    3  A    between atoms: C16_21  and  C17_22 
ROOT
HETATM    1  C2  UNL     1      30.340   6.251  47.282  1.00  0.00     0.069 A 
HETATM    2  C3  UNL     1      30.199   7.608  47.336  1.00  0.00     0.039 A 
HETATM    3  C4  UNL     1      29.088   8.092  48.008  1.00  0.00     0.040 A 
HETATM    4  C5  UNL     1      28.150   7.251  48.607  1.00  0.00     0.086 A 
HETATM    5  C6  UNL     1      28.300   5.894  48.546  1.00  0.00    -0.004 A 
HETATM    6  C7  UNL     1      29.408   5.428  47.875  1.00  0.00     0.048 A 
HETATM    7  C8  UNL     1      27.475   4.758  49.082  1.00  0.00     0.161 C 
HETATM    8  N1  UNL     1      26.070   5.045  48.878  1.00  0.00    -0.379 N 
HETATM    9  C9  UNL     1      25.362   6.221  49.325  1.00  0.00     0.129 A 
HETATM   10  C10 UNL     1      25.832   7.534  49.465  1.00  0.00     0.202 A 
HETATM   11  N2  UNL     1      25.019   8.527  49.881  1.00  0.00    -0.215 NA
HETATM   12  C11 UNL     1      23.737   8.141  50.143  1.00  0.00     0.238 A 
HETATM   13  N3  UNL     1      23.197   6.892  50.035  1.00  0.00    -0.222 NA
HETATM   14  C12 UNL     1      24.029   5.905  49.616  1.00  0.00     0.162 A 
HETATM   15  O2  UNL     1      27.141   7.986  49.210  1.00  0.00    -0.289 OA
HETATM   16  H9  UNL     1      25.360   4.441  48.367  1.00  0.00     0.160 HD
ENDROOT
BRANCH  14  17
HETATM   17  N4  UNL     1      23.499   4.593  49.521  1.00  0.00    -0.336 N 
HETATM   18  C13 UNL     1      22.960   4.303  48.229  1.00  0.00     0.093 A 
HETATM   19  C14 UNL     1      22.464   3.081  48.023  1.00  0.00     0.018 A 
HETATM   20  C15 UNL     1      22.495   2.125  49.104  1.00  0.00     0.011 A 
HETATM   21  C16 UNL     1      22.979   2.354  50.311  1.00  0.00    -0.030 A 
HETATM   22  C23 UNL     1      23.530   3.691  50.628  1.00  0.00     0.169 A 
BRANCH  21  23
HETATM   23  C17 UNL     1      22.995   1.363  51.381  1.00  0.00    -0.028 A 
HETATM   24  C18 UNL     1      21.905   0.575  51.686  1.00  0.00     0.012 A 
HETATM   25  C19 UNL     1      21.880  -0.372  52.688  1.00  0.00     0.001 A 
HETATM   26  C20 UNL     1      23.015  -0.562  53.451  1.00  0.00     0.000 A 
HETATM   27  C21 UNL     1      24.144   0.189  53.204  1.00  0.00     0.001 A 
HETATM   28  C22 UNL     1      24.087   1.115  52.185  1.00  0.00     0.012 A 
ENDBRANCH  21  23
ENDBRANCH  14  17
BRANCH   1  29
HETATM   29  O1  UNL     1      31.413   5.672  46.635  1.00  0.00    -0.356 OA
HETATM   30  C1  UNL     1      32.551   6.375  46.208  1.00  0.00     0.210 C 
ENDBRANCH   1  29
TORSDOF 3
ENDMDL
