MODEL 1
REMARK VINA RESULT:      -7.1      0.000      0.000
REMARK  7 active torsions:
REMARK  status: ('A' for Active; 'I' for Inactive)
REMARK    1  A    between atoms: C2_2  and  C3_3 
REMARK    2  A    between atoms: C3_3  and  N1_4 
REMARK    3  A    between atoms: C3_3  and  N2_5 
REMARK    4  A    between atoms: N2_5  and  C4_6 
REMARK    5  A    between atoms: C8_13  and  C9_14 
REMARK    6  A    between atoms: C9_14  and  N6_15 
REMARK    7  A    between atoms: C12_18  and  N7_19 
ROOT
HETATM    1  C4  UNL     1      25.004  -0.376  53.895  1.00  0.00     0.156 A 
HETATM    2  N3  UNL     1      25.180  -1.090  55.017  1.00  0.00    -0.221 NA
HETATM    3  C5  UNL     1      24.215  -1.538  55.810  1.00  0.00     0.258 A 
HETATM    4  N4  UNL     1      22.948  -1.232  55.431  1.00  0.00    -0.161 NA
HETATM    5  N5  UNL     1      22.728  -0.523  54.319  1.00  0.00    -0.240 N 
HETATM    6  C6  UNL     1      21.523  -0.163  53.849  1.00  0.00     0.119 A 
HETATM    7  C7  UNL     1      21.809   0.543  52.701  1.00  0.00     0.030 A 
HETATM    8  C8  UNL     1      23.191   0.615  52.469  1.00  0.00     0.004 A 
HETATM    9  C15 UNL     1      23.705  -0.085  53.540  1.00  0.00     0.111 A 
ENDROOT
BRANCH   8  10
HETATM   10  C9  UNL     1      23.829   1.290  51.340  1.00  0.00     0.313 C 
BRANCH  10  11
HETATM   11  N6  UNL     1      23.931   2.726  51.471  1.00  0.00     0.092 N 
HETATM   12  C10 UNL     1      25.211   3.037  52.060  1.00  0.00     0.275 C 
HETATM   13  C11 UNL     1      26.350   2.899  51.081  1.00  0.00     0.065 C 
HETATM   14  C12 UNL     1      26.050   3.555  49.757  1.00  0.00     0.221 C 
HETATM   15  C13 UNL     1      24.813   4.410  49.976  1.00  0.00     0.065 C 
HETATM   16  C14 UNL     1      23.676   3.420  50.245  1.00  0.00     0.275 C 
BRANCH  14  17
HETATM   17  N7  UNL     1      27.106   4.392  49.275  1.00  0.00     0.083 N 
HETATM   18  H20 UNL     1      26.779   5.050  48.533  1.00  0.00     0.313 HD
HETATM   19  H21 UNL     1      27.817   3.769  48.828  1.00  0.00     0.313 HD
ENDBRANCH  14  17
ENDBRANCH  10  11
ENDBRANCH   8  10
BRANCH   1  20
HETATM   20  N2  UNL     1      26.145   0.013  53.141  1.00  0.00    -0.344 N 
HETATM   21  H9  UNL     1      26.225   0.897  52.618  1.00  0.00     0.163 HD
BRANCH  20  22
HETATM   22  C3  UNL     1      27.343  -0.741  52.993  1.00  0.00     0.317 C 
BRANCH  22  23
HETATM   23  C2  UNL     1      28.482  -0.401  53.892  1.00  0.00     0.052 C 
HETATM   24  C1  UNL     1      29.831  -0.886  53.517  1.00  0.00     0.009 C 
ENDBRANCH  22  23
BRANCH  22  25
HETATM   25  N1  UNL     1      27.079  -2.187  53.019  1.00  0.00     0.101 N 
HETATM   26  H7  UNL     1      26.349  -2.470  52.351  1.00  0.00     0.315 HD
HETATM   27  H8  UNL     1      26.861  -2.477  54.018  1.00  0.00     0.315 HD
ENDBRANCH  22  25
ENDBRANCH  20  22
ENDBRANCH   1  20
TORSDOF 7
ENDMDL
MODEL 2
REMARK VINA RESULT:      -7.0      1.965      4.940
REMARK  7 active torsions:
REMARK  status: ('A' for Active; 'I' for Inactive)
REMARK    1  A    between atoms: C2_2  and  C3_3 
REMARK    2  A    between atoms: C3_3  and  N1_4 
REMARK    3  A    between atoms: C3_3  and  N2_5 
REMARK    4  A    between atoms: N2_5  and  C4_6 
REMARK    5  A    between atoms: C8_13  and  C9_14 
REMARK    6  A    between atoms: C9_14  and  N6_15 
REMARK    7  A    between atoms: C12_18  and  N7_19 
ROOT
HETATM    1  C4  UNL     1      23.385   3.013  52.036  1.00  0.00     0.156 A 
HETATM    2  N3  UNL     1      22.254   3.722  51.910  1.00  0.00    -0.221 NA
HETATM    3  C5  UNL     1      21.038   3.312  52.248  1.00  0.00     0.258 A 
HETATM    4  N4  UNL     1      20.960   2.058  52.765  1.00  0.00    -0.161 NA
HETATM    5  N5  UNL     1      22.063   1.318  52.909  1.00  0.00    -0.240 N 
HETATM    6  C6  UNL     1      22.105   0.072  53.406  1.00  0.00     0.119 A 
HETATM    7  C7  UNL     1      23.440  -0.264  53.353  1.00  0.00     0.030 A 
HETATM    8  C8  UNL     1      24.215   0.778  52.823  1.00  0.00     0.004 A 
HETATM    9  C15 UNL     1      23.267   1.746  52.566  1.00  0.00     0.111 A 
ENDROOT
BRANCH   8  10
HETATM   10  C9  UNL     1      25.664   0.747  52.630  1.00  0.00     0.313 C 
BRANCH  10  11
HETATM   11  N6  UNL     1      26.431   1.313  53.717  1.00  0.00     0.092 N 
HETATM   12  C10 UNL     1      26.967   0.230  54.506  1.00  0.00     0.275 C 
HETATM   13  C11 UNL     1      28.136  -0.451  53.840  1.00  0.00     0.065 C 
HETATM   14  C12 UNL     1      29.140   0.534  53.297  1.00  0.00     0.221 C 
HETATM   15  C13 UNL     1      28.775   1.885  53.891  1.00  0.00     0.065 C 
HETATM   16  C14 UNL     1      27.421   2.249  53.275  1.00  0.00     0.275 C 
BRANCH  14  17
HETATM   17  N7  UNL     1      30.494   0.231  53.645  1.00  0.00     0.083 N 
HETATM   18  H20 UNL     1      31.171   0.567  52.924  1.00  0.00     0.313 HD
HETATM   19  H21 UNL     1      30.582  -0.810  53.673  1.00  0.00     0.313 HD
ENDBRANCH  14  17
ENDBRANCH  10  11
ENDBRANCH   8  10
BRANCH   1  20
HETATM   20  N2  UNL     1      24.617   3.605  51.645  1.00  0.00    -0.344 N 
HETATM   21  H9  UNL     1      25.354   3.903  52.300  1.00  0.00     0.163 HD
BRANCH  20  22
HETATM   22  C3  UNL     1      25.027   3.870  50.308  1.00  0.00     0.317 C 
BRANCH  22  23
HETATM   23  C2  UNL     1      26.419   3.496  49.931  1.00  0.00     0.052 C 
HETATM   24  C1  UNL     1      27.130   4.358  48.958  1.00  0.00     0.009 C 
ENDBRANCH  22  23
BRANCH  22  25
HETATM   25  N1  UNL     1      24.066   3.336  49.332  1.00  0.00     0.101 N 
HETATM   26  H7  UNL     1      23.620   4.073  48.769  1.00  0.00     0.315 HD
HETATM   27  H8  UNL     1      23.364   2.723  49.843  1.00  0.00     0.315 HD
ENDBRANCH  22  25
ENDBRANCH  20  22
ENDBRANCH   1  20
TORSDOF 7
ENDMDL
MODEL 3
REMARK VINA RESULT:      -7.0      1.854      5.776
REMARK  7 active torsions:
REMARK  status: ('A' for Active; 'I' for Inactive)
REMARK    1  A    between atoms: C2_2  and  C3_3 
REMARK    2  A    between atoms: C3_3  and  N1_4 
REMARK    3  A    between atoms: C3_3  and  N2_5 
REMARK    4  A    between atoms: N2_5  and  C4_6 
REMARK    5  A    between atoms: C8_13  and  C9_14 
REMARK    6  A    between atoms: C9_14  and  N6_15 
REMARK    7  A    between atoms: C12_18  and  N7_19 
ROOT
HETATM    1  C4  UNL     1      26.953   1.819  53.586  1.00  0.00     0.156 A 
HETATM    2  N3  UNL     1      28.076   2.470  53.924  1.00  0.00    -0.221 NA
HETATM    3  C5  UNL     1      29.284   1.932  54.031  1.00  0.00     0.258 A 
HETATM    4  N4  UNL     1      29.362   0.601  53.770  1.00  0.00    -0.161 NA
HETATM    5  N5  UNL     1      28.268  -0.086  53.429  1.00  0.00    -0.240 N 
HETATM    6  C6  UNL     1      28.227  -1.398  53.150  1.00  0.00     0.119 A 
HETATM    7  C7  UNL     1      26.902  -1.637  52.859  1.00  0.00     0.030 A 
HETATM    8  C8  UNL     1      26.131  -0.470  52.961  1.00  0.00     0.004 A 
HETATM    9  C15 UNL     1      27.071   0.470  53.327  1.00  0.00     0.111 A 
ENDROOT
BRANCH   8  10
HETATM   10  C9  UNL     1      24.693  -0.377  52.719  1.00  0.00     0.313 C 
BRANCH  10  11
HETATM   11  N6  UNL     1      23.915   0.072  53.852  1.00  0.00     0.092 N 
HETATM   12  C10 UNL     1      22.722   0.716  53.356  1.00  0.00     0.275 C 
HETATM   13  C11 UNL     1      21.697  -0.270  52.855  1.00  0.00     0.065 C 
HETATM   14  C12 UNL     1      21.484  -1.414  53.814  1.00  0.00     0.221 C 
HETATM   15  C13 UNL     1      22.159  -1.009  55.115  1.00  0.00     0.065 C 
HETATM   16  C14 UNL     1      23.657  -0.968  54.801  1.00  0.00     0.275 C 
BRANCH  14  17
HETATM   17  N7  UNL     1      20.107  -1.696  54.081  1.00  0.00     0.083 N 
HETATM   18  H20 UNL     1      19.754  -1.182  54.918  1.00  0.00     0.313 HD
HETATM   19  H21 UNL     1      20.037  -2.715  54.305  1.00  0.00     0.313 HD
ENDBRANCH  14  17
ENDBRANCH  10  11
ENDBRANCH   8  10
BRANCH   1  20
HETATM   20  N2  UNL     1      25.736   2.547  53.493  1.00  0.00    -0.344 N 
HETATM   21  H9  UNL     1      25.008   2.562  54.223  1.00  0.00     0.163 HD
BRANCH  20  22
HETATM   22  C3  UNL     1      25.334   3.365  52.400  1.00  0.00     0.317 C 
BRANCH  22  23
HETATM   23  C2  UNL     1      25.312   2.739  51.048  1.00  0.00     0.052 C 
HETATM   24  C1  UNL     1      26.387   3.105  50.096  1.00  0.00     0.009 C 
ENDBRANCH  22  23
BRANCH  22  25
HETATM   25  N1  UNL     1      24.061   4.047  52.675  1.00  0.00     0.101 N 
HETATM   26  H7  UNL     1      23.242   3.473  52.434  1.00  0.00     0.315 HD
HETATM   27  H8  UNL     1      24.065   4.990  52.183  1.00  0.00     0.315 HD
ENDBRANCH  22  25
ENDBRANCH  20  22
ENDBRANCH   1  20
TORSDOF 7
ENDMDL
MODEL 4
REMARK VINA RESULT:      -6.9      1.826      4.741
REMARK  7 active torsions:
REMARK  status: ('A' for Active; 'I' for Inactive)
REMARK    1  A    between atoms: C2_2  and  C3_3 
REMARK    2  A    between atoms: C3_3  and  N1_4 
REMARK    3  A    between atoms: C3_3  and  N2_5 
REMARK    4  A    between atoms: N2_5  and  C4_6 
REMARK    5  A    between atoms: C8_13  and  C9_14 
REMARK    6  A    between atoms: C9_14  and  N6_15 
REMARK    7  A    between atoms: C12_18  and  N7_19 
ROOT
HETATM    1  C4  UNL     1      22.537   1.371  51.779  1.00  0.00     0.156 A 
HETATM    2  N3  UNL     1      21.288   1.744  51.460  1.00  0.00    -0.221 NA
HETATM    3  C5  UNL     1      20.181   1.357  52.081  1.00  0.00     0.258 A 
HETATM    4  N4  UNL     1      20.355   0.510  53.128  1.00  0.00    -0.161 NA
HETATM    5  N5  UNL     1      21.582   0.115  53.480  1.00  0.00    -0.240 N 
HETATM    6  C6  UNL     1      21.873  -0.716  54.493  1.00  0.00     0.119 A 
HETATM    7  C7  UNL     1      23.246  -0.819  54.458  1.00  0.00     0.030 A 
HETATM    8  C8  UNL     1      23.796  -0.050  53.422  1.00  0.00     0.004 A 
HETATM    9  C15 UNL     1      22.675   0.512  52.848  1.00  0.00     0.111 A 
ENDROOT
BRANCH   8  10
HETATM   10  C9  UNL     1      25.220   0.063  53.110  1.00  0.00     0.313 C 
BRANCH  10  11
HETATM   11  N6  UNL     1      25.939   1.032  53.905  1.00  0.00     0.092 N 
HETATM   12  C10 UNL     1      26.769   0.319  54.847  1.00  0.00     0.275 C 
HETATM   13  C11 UNL     1      27.994  -0.281  54.203  1.00  0.00     0.065 C 
HETATM   14  C12 UNL     1      28.703   0.695  53.299  1.00  0.00     0.221 C 
HETATM   15  C13 UNL     1      28.107   2.062  53.596  1.00  0.00     0.065 C 
HETATM   16  C14 UNL     1      26.656   1.986  53.112  1.00  0.00     0.275 C 
BRANCH  14  17
HETATM   17  N7  UNL     1      30.117   0.757  53.512  1.00  0.00     0.083 N 
HETATM   18  H20 UNL     1      30.378   1.481  54.218  1.00  0.00     0.313 HD
HETATM   19  H21 UNL     1      30.554   1.050  52.609  1.00  0.00     0.313 HD
ENDBRANCH  14  17
ENDBRANCH  10  11
ENDBRANCH   8  10
BRANCH   1  20
HETATM   20  N2  UNL     1      23.624   1.892  51.026  1.00  0.00    -0.344 N 
HETATM   21  H9  UNL     1      24.265   1.321  50.455  1.00  0.00     0.163 HD
BRANCH  20  22
HETATM   22  C3  UNL     1      23.994   3.263  50.934  1.00  0.00     0.317 C 
BRANCH  22  23
HETATM   23  C2  UNL     1      24.757   3.688  49.727  1.00  0.00     0.052 C 
HETATM   24  C1  UNL     1      26.208   3.391  49.683  1.00  0.00     0.009 C 
ENDBRANCH  22  23
BRANCH  22  25
HETATM   25  N1  UNL     1      22.842   4.149  51.154  1.00  0.00     0.101 N 
HETATM   26  H7  UNL     1      22.343   3.944  52.031  1.00  0.00     0.315 HD
HETATM   27  H8  UNL     1      22.211   4.110  50.300  1.00  0.00     0.315 HD
ENDBRANCH  22  25
ENDBRANCH  20  22
ENDBRANCH   1  20
TORSDOF 7
ENDMDL
MODEL 5
REMARK VINA RESULT:      -6.8      2.088      5.260
REMARK  7 active torsions:
REMARK  status: ('A' for Active; 'I' for Inactive)
REMARK    1  A    between atoms: C2_2  and  C3_3 
REMARK    2  A    between atoms: C3_3  and  N1_4 
REMARK    3  A    between atoms: C3_3  and  N2_5 
REMARK    4  A    between atoms: N2_5  and  C4_6 
REMARK    5  A    between atoms: C8_13  and  C9_14 
REMARK    6  A    between atoms: C9_14  and  N6_15 
REMARK    7  A    between atoms: C12_18  and  N7_19 
ROOT
HETATM    1  C4  UNL     1      26.831   1.937  52.390  1.00  0.00     0.156 A 
HETATM    2  N3  UNL     1      28.060   2.416  52.631  1.00  0.00    -0.221 NA
HETATM    3  C5  UNL     1      28.821   2.110  53.675  1.00  0.00     0.258 A 
HETATM    4  N4  UNL     1      28.284   1.233  54.561  1.00  0.00    -0.161 NA
HETATM    5  N5  UNL     1      27.062   0.731  54.358  1.00  0.00    -0.240 N 
HETATM    6  C6  UNL     1      26.434  -0.140  55.164  1.00  0.00     0.119 A 
HETATM    7  C7  UNL     1      25.222  -0.355  54.544  1.00  0.00     0.030 A 
HETATM    8  C8  UNL     1      25.110   0.385  53.357  1.00  0.00     0.004 A 
HETATM    9  C15 UNL     1      26.319   1.048  53.310  1.00  0.00     0.111 A 
ENDROOT
BRANCH   8  10
HETATM   10  C9  UNL     1      23.956   0.385  52.462  1.00  0.00     0.313 C 
BRANCH  10  11
HETATM   11  N6  UNL     1      22.875   1.257  52.865  1.00  0.00     0.092 N 
HETATM   12  C10 UNL     1      22.401   1.960  51.697  1.00  0.00     0.275 C 
HETATM   13  C11 UNL     1      21.558   1.089  50.798  1.00  0.00     0.065 C 
HETATM   14  C12 UNL     1      20.526   0.302  51.566  1.00  0.00     0.221 C 
HETATM   15  C13 UNL     1      20.484   0.903  52.962  1.00  0.00     0.065 C 
HETATM   16  C14 UNL     1      21.844   0.575  53.586  1.00  0.00     0.275 C 
BRANCH  14  17
HETATM   17  N7  UNL     1      19.213   0.367  51.000  1.00  0.00     0.083 N 
HETATM   18  H20 UNL     1      18.467   0.331  51.731  1.00  0.00     0.313 HD
HETATM   19  H21 UNL     1      19.088  -0.485  50.406  1.00  0.00     0.313 HD
ENDBRANCH  14  17
ENDBRANCH  10  11
ENDBRANCH   8  10
BRANCH   1  20
HETATM   20  N2  UNL     1      26.151   2.348  51.211  1.00  0.00    -0.344 N 
HETATM   21  H9  UNL     1      25.594   1.722  50.611  1.00  0.00     0.163 HD
BRANCH  20  22
HETATM   22  C3  UNL     1      26.123   3.669  50.683  1.00  0.00     0.317 C 
BRANCH  22  23
HETATM   23  C2  UNL     1      26.336   3.825  49.216  1.00  0.00     0.052 C 
HETATM   24  C1  UNL     1      27.435   4.712  48.765  1.00  0.00     0.009 C 
ENDBRANCH  22  23
BRANCH  22  25
HETATM   25  N1  UNL     1      24.920   4.397  51.110  1.00  0.00     0.101 N 
HETATM   26  H7  UNL     1      24.051   3.883  50.908  1.00  0.00     0.315 HD
HETATM   27  H8  UNL     1      24.935   5.368  50.678  1.00  0.00     0.315 HD
ENDBRANCH  22  25
ENDBRANCH  20  22
ENDBRANCH   1  20
TORSDOF 7
ENDMDL
MODEL 6
REMARK VINA RESULT:      -6.8      1.936      5.813
REMARK  7 active torsions:
REMARK  status: ('A' for Active; 'I' for Inactive)
REMARK    1  A    between atoms: C2_2  and  C3_3 
REMARK    2  A    between atoms: C3_3  and  N1_4 
REMARK    3  A    between atoms: C3_3  and  N2_5 
REMARK    4  A    between atoms: N2_5  and  C4_6 
REMARK    5  A    between atoms: C8_13  and  C9_14 
REMARK    6  A    between atoms: C9_14  and  N6_15 
REMARK    7  A    between atoms: C12_18  and  N7_19 
ROOT
HETATM    1  C4  UNL     1      23.693   2.945  52.299  1.00  0.00     0.156 A 
HETATM    2  N3  UNL     1      22.674   3.817  52.307  1.00  0.00    -0.221 NA
HETATM    3  C5  UNL     1      22.589   4.918  51.571  1.00  0.00     0.258 A 
HETATM    4  N4  UNL     1      23.640   5.159  50.744  1.00  0.00    -0.161 NA
HETATM    5  N5  UNL     1      24.675   4.314  50.704  1.00  0.00    -0.240 N 
HETATM    6  C6  UNL     1      25.762   4.451  49.930  1.00  0.00     0.119 A 
HETATM    7  C7  UNL     1      26.533   3.351  50.238  1.00  0.00     0.030 A 
HETATM    8  C8  UNL     1      25.915   2.541  51.203  1.00  0.00     0.004 A 
HETATM    9  C15 UNL     1      24.741   3.221  51.447  1.00  0.00     0.111 A 
ENDROOT
BRANCH   8  10
HETATM   10  C9  UNL     1      26.464   1.301  51.749  1.00  0.00     0.313 C 
BRANCH  10  11
HETATM   11  N6  UNL     1      26.933   1.396  53.114  1.00  0.00     0.092 N 
HETATM   12  C10 UNL     1      26.783   0.101  53.734  1.00  0.00     0.275 C 
HETATM   13  C11 UNL     1      27.834  -0.883  53.286  1.00  0.00     0.065 C 
HETATM   14  C12 UNL     1      29.221  -0.291  53.310  1.00  0.00     0.221 C 
HETATM   15  C13 UNL     1      29.114   1.012  54.086  1.00  0.00     0.065 C 
HETATM   16  C14 UNL     1      28.255   1.934  53.216  1.00  0.00     0.275 C 
BRANCH  14  17
HETATM   17  N7  UNL     1      30.194  -1.125  53.947  1.00  0.00     0.083 N 
HETATM   18  H20 UNL     1      31.170  -0.859  53.688  1.00  0.00     0.313 HD
HETATM   19  H21 UNL     1      30.047  -2.098  53.594  1.00  0.00     0.313 HD
ENDBRANCH  14  17
ENDBRANCH  10  11
ENDBRANCH   8  10
BRANCH   1  20
HETATM   20  N2  UNL     1      23.624   1.797  53.136  1.00  0.00    -0.344 N 
HETATM   21  H9  UNL     1      24.224   1.638  53.958  1.00  0.00     0.163 HD
BRANCH  20  22
HETATM   22  C3  UNL     1      22.724   0.705  52.980  1.00  0.00     0.317 C 
BRANCH  22  23
HETATM   23  C2  UNL     1      23.004  -0.530  53.765  1.00  0.00     0.052 C 
HETATM   24  C1  UNL     1      21.953  -1.017  54.689  1.00  0.00     0.009 C 
ENDBRANCH  22  23
BRANCH  22  25
HETATM   25  N1  UNL     1      21.327   1.126  53.158  1.00  0.00     0.101 N 
HETATM   26  H7  UNL     1      20.918   0.783  54.038  1.00  0.00     0.315 HD
HETATM   27  H8  UNL     1      20.770   0.836  52.301  1.00  0.00     0.315 HD
ENDBRANCH  22  25
ENDBRANCH  20  22
ENDBRANCH   1  20
TORSDOF 7
ENDMDL
MODEL 7
REMARK VINA RESULT:      -6.8      1.680      2.314
REMARK  7 active torsions:
REMARK  status: ('A' for Active; 'I' for Inactive)
REMARK    1  A    between atoms: C2_2  and  C3_3 
REMARK    2  A    between atoms: C3_3  and  N1_4 
REMARK    3  A    between atoms: C3_3  and  N2_5 
REMARK    4  A    between atoms: N2_5  and  C4_6 
REMARK    5  A    between atoms: C8_13  and  C9_14 
REMARK    6  A    between atoms: C9_14  and  N6_15 
REMARK    7  A    between atoms: C12_18  and  N7_19 
ROOT
HETATM    1  C4  UNL     1      23.073  -0.013  53.335  1.00  0.00     0.156 A 
HETATM    2  N3  UNL     1      22.798  -0.744  54.426  1.00  0.00    -0.221 NA
HETATM    3  C5  UNL     1      21.607  -1.226  54.757  1.00  0.00     0.258 A 
HETATM    4  N4  UNL     1      20.594  -0.940  53.898  1.00  0.00    -0.161 NA
HETATM    5  N5  UNL     1      20.825  -0.216  52.799  1.00  0.00    -0.240 N 
HETATM    6  C6  UNL     1      19.905   0.126  51.884  1.00  0.00     0.119 A 
HETATM    7  C7  UNL     1      20.612   0.859  50.956  1.00  0.00     0.030 A 
HETATM    8  C8  UNL     1      21.967   0.965  51.304  1.00  0.00     0.004 A 
HETATM    9  C15 UNL     1      22.021   0.257  52.486  1.00  0.00     0.111 A 
ENDROOT
BRANCH   8  10
HETATM   10  C9  UNL     1      22.989   1.673  50.537  1.00  0.00     0.313 C 
BRANCH  10  11
HETATM   11  N6  UNL     1      22.604   2.992  50.086  1.00  0.00     0.092 N 
HETATM   12  C10 UNL     1      22.729   3.905  51.197  1.00  0.00     0.275 C 
HETATM   13  C11 UNL     1      24.163   4.265  51.494  1.00  0.00     0.065 C 
HETATM   14  C12 UNL     1      24.934   4.625  50.248  1.00  0.00     0.221 C 
HETATM   15  C13 UNL     1      23.901   4.804  49.146  1.00  0.00     0.065 C 
HETATM   16  C14 UNL     1      23.309   3.411  48.913  1.00  0.00     0.275 C 
BRANCH  14  17
HETATM   17  N7  UNL     1      25.692   5.832  50.366  1.00  0.00     0.083 N 
HETATM   18  H20 UNL     1      26.138   5.927  51.306  1.00  0.00     0.313 HD
HETATM   19  H21 UNL     1      25.022   6.630  50.274  1.00  0.00     0.313 HD
ENDBRANCH  14  17
ENDBRANCH  10  11
ENDBRANCH   8  10
BRANCH   1  20
HETATM   20  N2  UNL     1      24.410   0.414  53.112  1.00  0.00    -0.344 N 
HETATM   21  H9  UNL     1      24.701   1.398  53.020  1.00  0.00     0.163 HD
BRANCH  20  22
HETATM   22  C3  UNL     1      25.546  -0.435  52.987  1.00  0.00     0.317 C 
BRANCH  22  23
HETATM   23  C2  UNL     1      26.743   0.119  52.295  1.00  0.00     0.052 C 
HETATM   24  C1  UNL     1      26.600   1.415  51.591  1.00  0.00     0.009 C 
ENDBRANCH  22  23
BRANCH  22  25
HETATM   25  N1  UNL     1      25.924  -1.025  54.279  1.00  0.00     0.101 N 
HETATM   26  H7  UNL     1      25.803  -0.373  55.066  1.00  0.00     0.315 HD
HETATM   27  H8  UNL     1      26.914  -1.406  54.206  1.00  0.00     0.315 HD
ENDBRANCH  22  25
ENDBRANCH  20  22
ENDBRANCH   1  20
TORSDOF 7
ENDMDL
MODEL 8
REMARK VINA RESULT:      -6.8      1.544      2.340
REMARK  7 active torsions:
REMARK  status: ('A' for Active; 'I' for Inactive)
REMARK    1  A    between atoms: C2_2  and  C3_3 
REMARK    2  A    between atoms: C3_3  and  N1_4 
REMARK    3  A    between atoms: C3_3  and  N2_5 
REMARK    4  A    between atoms: N2_5  and  C4_6 
REMARK    5  A    between atoms: C8_13  and  C9_14 
REMARK    6  A    between atoms: C9_14  and  N6_15 
REMARK    7  A    between atoms: C12_18  and  N7_19 
ROOT
HETATM    1  C4  UNL     1      24.263   0.590  53.318  1.00  0.00     0.156 A 
HETATM    2  N3  UNL     1      23.902  -0.548  53.930  1.00  0.00    -0.221 NA
HETATM    3  C5  UNL     1      22.657  -0.960  54.130  1.00  0.00     0.258 A 
HETATM    4  N4  UNL     1      21.681  -0.140  53.664  1.00  0.00    -0.161 NA
HETATM    5  N5  UNL     1      21.996   1.003  53.047  1.00  0.00    -0.240 N 
HETATM    6  C6  UNL     1      21.118   1.887  52.548  1.00  0.00     0.119 A 
HETATM    7  C7  UNL     1      21.911   2.884  52.020  1.00  0.00     0.030 A 
HETATM    8  C8  UNL     1      23.275   2.608  52.198  1.00  0.00     0.004 A 
HETATM    9  C15 UNL     1      23.245   1.397  52.857  1.00  0.00     0.111 A 
ENDROOT
BRANCH   8  10
HETATM   10  C9  UNL     1      24.378   3.458  51.756  1.00  0.00     0.313 C 
BRANCH  10  11
HETATM   11  N6  UNL     1      25.006   3.043  50.522  1.00  0.00     0.092 N 
HETATM   12  C10 UNL     1      24.337   3.706  49.428  1.00  0.00     0.275 C 
HETATM   13  C11 UNL     1      24.722   5.159  49.306  1.00  0.00     0.065 C 
HETATM   14  C12 UNL     1      26.213   5.367  49.397  1.00  0.00     0.221 C 
HETATM   15  C13 UNL     1      26.844   3.990  49.265  1.00  0.00     0.065 C 
HETATM   16  C14 UNL     1      26.426   3.228  50.526  1.00  0.00     0.275 C 
BRANCH  14  17
HETATM   17  N7  UNL     1      26.741   6.213  48.371  1.00  0.00     0.083 N 
HETATM   18  H20 UNL     1      27.159   5.666  47.586  1.00  0.00     0.313 HD
HETATM   19  H21 UNL     1      27.521   6.766  48.796  1.00  0.00     0.313 HD
ENDBRANCH  14  17
ENDBRANCH  10  11
ENDBRANCH   8  10
BRANCH   1  20
HETATM   20  N2  UNL     1      25.646   0.880  53.163  1.00  0.00    -0.344 N 
HETATM   21  H9  UNL     1      26.146   0.874  52.262  1.00  0.00     0.163 HD
BRANCH  20  22
HETATM   22  C3  UNL     1      26.547   1.227  54.209  1.00  0.00     0.317 C 
BRANCH  22  23
HETATM   23  C2  UNL     1      27.556   0.207  54.610  1.00  0.00     0.052 C 
HETATM   24  C1  UNL     1      28.420  -0.369  53.553  1.00  0.00     0.009 C 
ENDBRANCH  22  23
BRANCH  22  25
HETATM   25  N1  UNL     1      27.194   2.523  53.957  1.00  0.00     0.101 N 
HETATM   26  H7  UNL     1      27.653   2.908  54.794  1.00  0.00     0.315 HD
HETATM   27  H8  UNL     1      26.480   3.186  53.534  1.00  0.00     0.315 HD
ENDBRANCH  22  25
ENDBRANCH  20  22
ENDBRANCH   1  20
TORSDOF 7
ENDMDL
MODEL 9
REMARK VINA RESULT:      -6.7      2.124      5.547
REMARK  7 active torsions:
REMARK  status: ('A' for Active; 'I' for Inactive)
REMARK    1  A    between atoms: C2_2  and  C3_3 
REMARK    2  A    between atoms: C3_3  and  N1_4 
REMARK    3  A    between atoms: C3_3  and  N2_5 
REMARK    4  A    between atoms: N2_5  and  C4_6 
REMARK    5  A    between atoms: C8_13  and  C9_14 
REMARK    6  A    between atoms: C9_14  and  N6_15 
REMARK    7  A    between atoms: C12_18  and  N7_19 
ROOT
HETATM    1  C4  UNL     1      26.095   2.778  50.865  1.00  0.00     0.156 A 
HETATM    2  N3  UNL     1      26.954   3.303  49.979  1.00  0.00    -0.221 NA
HETATM    3  C5  UNL     1      26.815   4.468  49.359  1.00  0.00     0.258 A 
HETATM    4  N4  UNL     1      25.694   5.171  49.667  1.00  0.00    -0.161 NA
HETATM    5  N5  UNL     1      24.812   4.684  50.545  1.00  0.00    -0.240 N 
HETATM    6  C6  UNL     1      23.675   5.289  50.924  1.00  0.00     0.119 A 
HETATM    7  C7  UNL     1      23.115   4.412  51.828  1.00  0.00     0.030 A 
HETATM    8  C8  UNL     1      23.911   3.270  52.002  1.00  0.00     0.004 A 
HETATM    9  C15 UNL     1      24.969   3.519  51.153  1.00  0.00     0.111 A 
ENDROOT
BRANCH   8  10
HETATM   10  C9  UNL     1      23.607   2.149  52.888  1.00  0.00     0.313 C 
BRANCH  10  11
HETATM   11  N6  UNL     1      23.134   0.958  52.218  1.00  0.00     0.092 N 
HETATM   12  C10 UNL     1      23.178  -0.137  53.157  1.00  0.00     0.275 C 
HETATM   13  C11 UNL     1      22.058  -0.083  54.166  1.00  0.00     0.065 C 
HETATM   14  C12 UNL     1      20.721   0.189  53.525  1.00  0.00     0.221 C 
HETATM   15  C13 UNL     1      20.920   0.001  52.029  1.00  0.00     0.065 C 
HETATM   16  C14 UNL     1      21.855   1.135  51.598  1.00  0.00     0.275 C 
BRANCH  14  17
HETATM   17  N7  UNL     1      19.681  -0.690  53.963  1.00  0.00     0.083 N 
HETATM   18  H20 UNL     1      19.341  -0.452  54.921  1.00  0.00     0.313 HD
HETATM   19  H21 UNL     1      20.091  -1.650  54.022  1.00  0.00     0.313 HD
ENDBRANCH  14  17
ENDBRANCH  10  11
ENDBRANCH   8  10
BRANCH   1  20
HETATM   20  N2  UNL     1      26.400   1.523  51.459  1.00  0.00    -0.344 N 
HETATM   21  H9  UNL     1      26.199   0.609  51.028  1.00  0.00     0.163 HD
BRANCH  20  22
HETATM   22  C3  UNL     1      27.028   1.329  52.721  1.00  0.00     0.317 C 
BRANCH  22  23
HETATM   23  C2  UNL     1      27.697   0.020  52.960  1.00  0.00     0.052 C 
HETATM   24  C1  UNL     1      26.914  -1.215  52.718  1.00  0.00     0.009 C 
ENDBRANCH  22  23
BRANCH  22  25
HETATM   25  N1  UNL     1      27.933   2.440  53.051  1.00  0.00     0.101 N 
HETATM   26  H7  UNL     1      28.431   2.805  52.228  1.00  0.00     0.315 HD
HETATM   27  H8  UNL     1      28.588   2.128  53.828  1.00  0.00     0.315 HD
ENDBRANCH  22  25
ENDBRANCH  20  22
ENDBRANCH   1  20
TORSDOF 7
ENDMDL
