MODEL 1
REMARK VINA RESULT:      -7.0      0.000      0.000
REMARK  8 active torsions:
REMARK  status: ('A' for Active; 'I' for Inactive)
REMARK    1  A    between atoms: C2_2  and  N1_3 
REMARK    2  A    between atoms: N1_3  and  C3_4 
REMARK    3  A    between atoms: N1_3  and  N2_14 
REMARK    4  A    between atoms: C3_4  and  C4_5 
REMARK    5  A    between atoms: C5_6  and  O1_7 
REMARK    6  A    between atoms: O1_7  and  C6_8 
REMARK    7  A    between atoms: N2_14  and  C12_15 
REMARK    8  A    between atoms: C12_15  and  C13_16 
ROOT
HETATM    1  N1  UNL     1      23.646   2.954  51.348  1.00  0.00    -0.337 N 
ENDROOT
BRANCH   1   2
HETATM    2  C2  UNL     1      24.499   3.009  50.235  1.00  0.00     0.133 C 
HETATM    3  C1  UNL     1      23.912   3.944  49.195  1.00  0.00     0.028 C 
ENDBRANCH   1   2
BRANCH   1   4
HETATM    4  C3  UNL     1      23.957   3.666  52.519  1.00  0.00     0.232 C 
BRANCH   4   5
HETATM    5  C4  UNL     1      24.910   2.850  53.281  1.00  0.00    -0.055 C 
HETATM    6  C5  UNL     1      25.679   2.179  53.924  1.00  0.00     0.061 C 
BRANCH   6   7
HETATM    7  O1  UNL     1      26.537   1.416  54.670  1.00  0.00    -0.261 OA
BRANCH   7   8
HETATM    8  C6  UNL     1      27.277   0.353  54.126  1.00  0.00     0.087 A 
HETATM    9  C7  UNL     1      26.614  -0.533  53.324  1.00  0.00     0.038 A 
HETATM   10  C8  UNL     1      27.282  -1.606  52.754  1.00  0.00     0.003 A 
HETATM   11  C9  UNL     1      28.623  -1.696  53.056  1.00  0.00     0.000 A 
HETATM   12  C10 UNL     1      29.300  -0.830  53.850  1.00  0.00     0.003 A 
HETATM   13  C11 UNL     1      28.636   0.257  54.432  1.00  0.00     0.038 A 
ENDBRANCH   7   8
ENDBRANCH   6   7
ENDBRANCH   4   5
ENDBRANCH   1   4
BRANCH   1  14
HETATM   14  N2  UNL     1      22.361   2.540  51.192  1.00  0.00    -0.238 NA
HETATM   15  H13 UNL     1      21.989   2.955  50.294  1.00  0.00     0.146 HD
BRANCH  14  16
HETATM   16  C12 UNL     1      22.233   1.104  51.036  1.00  0.00     0.148 C 
BRANCH  16  17
HETATM   17  C13 UNL     1      21.968   0.550  52.387  1.00  0.00    -0.044 A 
HETATM   18  C14 UNL     1      22.924  -0.332  52.901  1.00  0.00     0.008 A 
HETATM   19  C15 UNL     1      22.830  -0.934  54.146  1.00  0.00     0.001 A 
HETATM   20  C16 UNL     1      21.741  -0.661  54.939  1.00  0.00     0.000 A 
HETATM   21  C17 UNL     1      20.793   0.208  54.442  1.00  0.00     0.001 A 
HETATM   22  C18 UNL     1      20.883   0.806  53.207  1.00  0.00     0.008 A 
ENDBRANCH  16  17
ENDBRANCH  14  16
ENDBRANCH   1  14
TORSDOF 8
ENDMDL
MODEL 2
REMARK VINA RESULT:      -6.9      2.627      5.487
REMARK  8 active torsions:
REMARK  status: ('A' for Active; 'I' for Inactive)
REMARK    1  A    between atoms: C2_2  and  N1_3 
REMARK    2  A    between atoms: N1_3  and  C3_4 
REMARK    3  A    between atoms: N1_3  and  N2_14 
REMARK    4  A    between atoms: C3_4  and  C4_5 
REMARK    5  A    between atoms: C5_6  and  O1_7 
REMARK    6  A    between atoms: O1_7  and  C6_8 
REMARK    7  A    between atoms: N2_14  and  C12_15 
REMARK    8  A    between atoms: C12_15  and  C13_16 
ROOT
HETATM    1  N1  UNL     1      27.173   0.432  53.827  1.00  0.00    -0.337 N 
ENDROOT
BRANCH   1   2
HETATM    2  C2  UNL     1      28.313   0.211  54.614  1.00  0.00     0.133 C 
HETATM    3  C1  UNL     1      29.442  -0.296  53.737  1.00  0.00     0.028 C 
ENDBRANCH   1   2
BRANCH   1   4
HETATM    4  C3  UNL     1      27.211   0.210  52.440  1.00  0.00     0.232 C 
BRANCH   4   5
HETATM    5  C4  UNL     1      26.512   1.334  51.804  1.00  0.00    -0.055 C 
HETATM    6  C5  UNL     1      25.923   2.256  51.296  1.00  0.00     0.061 C 
BRANCH   6   7
HETATM    7  O1  UNL     1      25.241   3.304  50.739  1.00  0.00    -0.261 OA
BRANCH   7   8
HETATM    8  C6  UNL     1      25.875   4.316  50.000  1.00  0.00     0.087 A 
HETATM    9  C7  UNL     1      27.003   3.979  49.305  1.00  0.00     0.038 A 
HETATM   10  C8  UNL     1      27.680   4.928  48.554  1.00  0.00     0.003 A 
HETATM   11  C9  UNL     1      27.134   6.192  48.569  1.00  0.00     0.000 A 
HETATM   12  C10 UNL     1      26.018   6.550  49.251  1.00  0.00     0.003 A 
HETATM   13  C11 UNL     1      25.327   5.600  50.014  1.00  0.00     0.038 A 
ENDBRANCH   7   8
ENDBRANCH   6   7
ENDBRANCH   4   5
ENDBRANCH   1   4
BRANCH   1  14
HETATM   14  N2  UNL     1      25.949   0.492  54.417  1.00  0.00    -0.238 NA
HETATM   15  H13 UNL     1      25.341   1.140  53.846  1.00  0.00     0.146 HD
BRANCH  14  16
HETATM   16  C12 UNL     1      25.253  -0.781  54.428  1.00  0.00     0.148 C 
BRANCH  16  17
HETATM   17  C13 UNL     1      23.829  -0.491  54.134  1.00  0.00    -0.044 A 
HETATM   18  C14 UNL     1      22.879  -1.194  54.883  1.00  0.00     0.008 A 
HETATM   19  C15 UNL     1      21.509  -1.039  54.735  1.00  0.00     0.001 A 
HETATM   20  C16 UNL     1      21.035  -0.146  53.803  1.00  0.00     0.000 A 
HETATM   21  C17 UNL     1      21.963   0.553  53.060  1.00  0.00     0.001 A 
HETATM   22  C18 UNL     1      23.323   0.401  53.205  1.00  0.00     0.008 A 
ENDBRANCH  16  17
ENDBRANCH  14  16
ENDBRANCH   1  14
TORSDOF 8
ENDMDL
MODEL 3
REMARK VINA RESULT:      -6.8      2.250      5.384
REMARK  8 active torsions:
REMARK  status: ('A' for Active; 'I' for Inactive)
REMARK    1  A    between atoms: C2_2  and  N1_3 
REMARK    2  A    between atoms: N1_3  and  C3_4 
REMARK    3  A    between atoms: N1_3  and  N2_14 
REMARK    4  A    between atoms: C3_4  and  C4_5 
REMARK    5  A    between atoms: C5_6  and  O1_7 
REMARK    6  A    between atoms: O1_7  and  C6_8 
REMARK    7  A    between atoms: N2_14  and  C12_15 
REMARK    8  A    between atoms: C12_15  and  C13_16 
ROOT
HETATM    1  N1  UNL     1      24.121   3.423  51.389  1.00  0.00    -0.337 N 
ENDROOT
BRANCH   1   2
HETATM    2  C2  UNL     1      24.024   2.472  50.362  1.00  0.00     0.133 C 
HETATM    3  C1  UNL     1      22.582   2.024  50.222  1.00  0.00     0.028 C 
ENDBRANCH   1   2
BRANCH   1   4
HETATM    4  C3  UNL     1      23.801   3.078  52.713  1.00  0.00     0.232 C 
BRANCH   4   5
HETATM    5  C4  UNL     1      25.030   2.571  53.336  1.00  0.00    -0.055 C 
HETATM    6  C5  UNL     1      26.032   2.135  53.846  1.00  0.00     0.061 C 
BRANCH   6   7
HETATM    7  O1  UNL     1      27.162   1.619  54.422  1.00  0.00    -0.261 OA
BRANCH   7   8
HETATM    8  C6  UNL     1      27.773   0.438  53.971  1.00  0.00     0.087 A 
HETATM    9  C7  UNL     1      29.114   0.295  54.195  1.00  0.00     0.038 A 
HETATM   10  C8  UNL     1      29.782  -0.845  53.776  1.00  0.00     0.003 A 
HETATM   11  C9  UNL     1      29.004  -1.786  53.140  1.00  0.00     0.000 A 
HETATM   12  C10 UNL     1      27.674  -1.665  52.906  1.00  0.00     0.003 A 
HETATM   13  C11 UNL     1      26.988  -0.517  53.323  1.00  0.00     0.038 A 
ENDBRANCH   7   8
ENDBRANCH   6   7
ENDBRANCH   4   5
ENDBRANCH   1   4
BRANCH   1  14
HETATM   14  N2  UNL     1      24.866   4.545  51.199  1.00  0.00    -0.238 NA
HETATM   15  H13 UNL     1      25.874   4.252  51.073  1.00  0.00     0.146 HD
BRANCH  14  16
HETATM   16  C12 UNL     1      24.520   5.268  49.990  1.00  0.00     0.148 C 
BRANCH  16  17
HETATM   17  C13 UNL     1      25.797   5.650  49.340  1.00  0.00    -0.044 A 
HETATM   18  C14 UNL     1      26.736   4.629  49.157  1.00  0.00     0.008 A 
HETATM   19  C15 UNL     1      27.976   4.816  48.564  1.00  0.00     0.001 A 
HETATM   20  C16 UNL     1      28.322   6.071  48.123  1.00  0.00     0.000 A 
HETATM   21  C17 UNL     1      27.404   7.084  48.299  1.00  0.00     0.001 A 
HETATM   22  C18 UNL     1      26.173   6.902  48.886  1.00  0.00     0.008 A 
ENDBRANCH  16  17
ENDBRANCH  14  16
ENDBRANCH   1  14
TORSDOF 8
ENDMDL
MODEL 4
REMARK VINA RESULT:      -6.6      1.962      4.805
REMARK  8 active torsions:
REMARK  status: ('A' for Active; 'I' for Inactive)
REMARK    1  A    between atoms: C2_2  and  N1_3 
REMARK    2  A    between atoms: N1_3  and  C3_4 
REMARK    3  A    between atoms: N1_3  and  N2_14 
REMARK    4  A    between atoms: C3_4  and  C4_5 
REMARK    5  A    between atoms: C5_6  and  O1_7 
REMARK    6  A    between atoms: O1_7  and  C6_8 
REMARK    7  A    between atoms: N2_14  and  C12_15 
REMARK    8  A    between atoms: C12_15  and  C13_16 
ROOT
HETATM    1  N1  UNL     1      24.742   4.486  50.728  1.00  0.00    -0.337 N 
ENDROOT
BRANCH   1   2
HETATM    2  C2  UNL     1      25.127   4.377  49.383  1.00  0.00     0.133 C 
HETATM    3  C1  UNL     1      25.877   5.629  48.969  1.00  0.00     0.028 C 
ENDBRANCH   1   2
BRANCH   1   4
HETATM    4  C3  UNL     1      23.523   5.095  51.072  1.00  0.00     0.232 C 
BRANCH   4   5
HETATM    5  C4  UNL     1      22.651   4.043  51.608  1.00  0.00    -0.055 C 
HETATM    6  C5  UNL     1      21.924   3.178  52.030  1.00  0.00     0.061 C 
BRANCH   6   7
HETATM    7  O1  UNL     1      21.089   2.194  52.489  1.00  0.00    -0.261 OA
BRANCH   7   8
HETATM    8  C6  UNL     1      21.559   1.037  53.130  1.00  0.00     0.087 A 
HETATM    9  C7  UNL     1      22.749   0.517  52.704  1.00  0.00     0.038 A 
HETATM   10  C8  UNL     1      23.273  -0.624  53.293  1.00  0.00     0.003 A 
HETATM   11  C9  UNL     1      22.516  -1.166  54.308  1.00  0.00     0.000 A 
HETATM   12  C10 UNL     1      21.333  -0.669  54.746  1.00  0.00     0.003 A 
HETATM   13  C11 UNL     1      20.794   0.483  54.158  1.00  0.00     0.038 A 
ENDBRANCH   7   8
ENDBRANCH   6   7
ENDBRANCH   4   5
ENDBRANCH   1   4
BRANCH   1  14
HETATM   14  N2  UNL     1      25.330   3.693  51.663  1.00  0.00    -0.238 NA
HETATM   15  H13 UNL     1      24.567   3.260  52.252  1.00  0.00     0.146 HD
BRANCH  14  16
HETATM   16  C12 UNL     1      26.059   2.576  51.094  1.00  0.00     0.148 C 
BRANCH  16  17
HETATM   17  C13 UNL     1      26.303   1.617  52.200  1.00  0.00    -0.044 A 
HETATM   18  C14 UNL     1      26.644   0.311  51.833  1.00  0.00     0.008 A 
HETATM   19  C15 UNL     1      26.906  -0.703  52.742  1.00  0.00     0.001 A 
HETATM   20  C16 UNL     1      26.833  -0.430  54.087  1.00  0.00     0.000 A 
HETATM   21  C17 UNL     1      26.499   0.855  54.459  1.00  0.00     0.001 A 
HETATM   22  C18 UNL     1      26.238   1.863  53.560  1.00  0.00     0.008 A 
ENDBRANCH  16  17
ENDBRANCH  14  16
ENDBRANCH   1  14
TORSDOF 8
ENDMDL
MODEL 5
REMARK VINA RESULT:      -6.6      1.556      2.394
REMARK  8 active torsions:
REMARK  status: ('A' for Active; 'I' for Inactive)
REMARK    1  A    between atoms: C2_2  and  N1_3 
REMARK    2  A    between atoms: N1_3  and  C3_4 
REMARK    3  A    between atoms: N1_3  and  N2_14 
REMARK    4  A    between atoms: C3_4  and  C4_5 
REMARK    5  A    between atoms: C5_6  and  O1_7 
REMARK    6  A    between atoms: O1_7  and  C6_8 
REMARK    7  A    between atoms: N2_14  and  C12_15 
REMARK    8  A    between atoms: C12_15  and  C13_16 
ROOT
HETATM    1  N1  UNL     1      22.534   2.823  50.114  1.00  0.00    -0.337 N 
ENDROOT
BRANCH   1   2
HETATM    2  C2  UNL     1      21.346   2.464  49.459  1.00  0.00     0.133 C 
HETATM    3  C1  UNL     1      21.621   1.317  48.506  1.00  0.00     0.028 C 
ENDBRANCH   1   2
BRANCH   1   4
HETATM    4  C3  UNL     1      23.539   3.529  49.431  1.00  0.00     0.232 C 
BRANCH   4   5
HETATM    5  C4  UNL     1      24.802   3.269  50.132  1.00  0.00    -0.055 C 
HETATM    6  C5  UNL     1      25.850   3.063  50.692  1.00  0.00     0.061 C 
BRANCH   6   7
HETATM    7  O1  UNL     1      27.052   2.838  51.309  1.00  0.00    -0.261 OA
BRANCH   7   8
HETATM    8  C6  UNL     1      27.266   1.762  52.185  1.00  0.00     0.087 A 
HETATM    9  C7  UNL     1      26.793   0.536  51.809  1.00  0.00     0.038 A 
HETATM   10  C8  UNL     1      26.970  -0.570  52.625  1.00  0.00     0.003 A 
HETATM   11  C9  UNL     1      27.640  -0.334  53.804  1.00  0.00     0.000 A 
HETATM   12  C10 UNL     1      28.116   0.873  54.199  1.00  0.00     0.003 A 
HETATM   13  C11 UNL     1      27.943   1.998  53.384  1.00  0.00     0.038 A 
ENDBRANCH   7   8
ENDBRANCH   6   7
ENDBRANCH   4   5
ENDBRANCH   1   4
BRANCH   1  14
HETATM   14  N2  UNL     1      22.576   2.836  51.473  1.00  0.00    -0.238 NA
HETATM   15  H13 UNL     1      22.549   3.843  51.793  1.00  0.00     0.146 HD
BRANCH  14  16
HETATM   16  C12 UNL     1      21.426   2.203  52.091  1.00  0.00     0.148 C 
BRANCH  16  17
HETATM   17  C13 UNL     1      21.948   1.099  52.933  1.00  0.00    -0.044 A 
HETATM   18  C14 UNL     1      21.050   0.524  53.838  1.00  0.00     0.008 A 
HETATM   19  C15 UNL     1      21.375  -0.518  54.694  1.00  0.00     0.001 A 
HETATM   20  C16 UNL     1      22.651  -1.031  54.667  1.00  0.00     0.000 A 
HETATM   21  C17 UNL     1      23.543  -0.471  53.777  1.00  0.00     0.001 A 
HETATM   22  C18 UNL     1      23.223   0.562  52.927  1.00  0.00     0.008 A 
ENDBRANCH  16  17
ENDBRANCH  14  16
ENDBRANCH   1  14
TORSDOF 8
ENDMDL
MODEL 6
REMARK VINA RESULT:      -6.6      2.302      5.468
REMARK  8 active torsions:
REMARK  status: ('A' for Active; 'I' for Inactive)
REMARK    1  A    between atoms: C2_2  and  N1_3 
REMARK    2  A    between atoms: N1_3  and  C3_4 
REMARK    3  A    between atoms: N1_3  and  N2_14 
REMARK    4  A    between atoms: C3_4  and  C4_5 
REMARK    5  A    between atoms: C5_6  and  O1_7 
REMARK    6  A    between atoms: O1_7  and  C6_8 
REMARK    7  A    between atoms: N2_14  and  C12_15 
REMARK    8  A    between atoms: C12_15  and  C13_16 
ROOT
HETATM    1  N1  UNL     1      27.600   0.466  53.777  1.00  0.00    -0.337 N 
ENDROOT
BRANCH   1   2
HETATM    2  C2  UNL     1      28.231  -0.721  53.377  1.00  0.00     0.133 C 
HETATM    3  C1  UNL     1      29.728  -0.593  53.586  1.00  0.00     0.028 C 
ENDBRANCH   1   2
BRANCH   1   4
HETATM    4  C3  UNL     1      28.080   1.712  53.336  1.00  0.00     0.232 C 
BRANCH   4   5
HETATM    5  C4  UNL     1      27.191   2.158  52.256  1.00  0.00    -0.055 C 
HETATM    6  C5  UNL     1      26.478   2.525  51.355  1.00  0.00     0.061 C 
BRANCH   6   7
HETATM    7  O1  UNL     1      25.685   2.938  50.318  1.00  0.00    -0.261 OA
BRANCH   7   8
HETATM    8  C6  UNL     1      24.339   3.301  50.489  1.00  0.00     0.087 A 
HETATM    9  C7  UNL     1      24.033   4.120  51.540  1.00  0.00     0.038 A 
HETATM   10  C8  UNL     1      22.724   4.517  51.767  1.00  0.00     0.003 A 
HETATM   11  C9  UNL     1      21.795   4.033  50.873  1.00  0.00     0.000 A 
HETATM   12  C10 UNL     1      22.076   3.219  49.826  1.00  0.00     0.003 A 
HETATM   13  C11 UNL     1      23.393   2.810  49.586  1.00  0.00     0.038 A 
ENDBRANCH   7   8
ENDBRANCH   6   7
ENDBRANCH   4   5
ENDBRANCH   1   4
BRANCH   1  14
HETATM   14  N2  UNL     1      26.332   0.423  54.264  1.00  0.00    -0.238 NA
HETATM   15  H13 UNL     1      25.782   1.208  53.820  1.00  0.00     0.146 HD
BRANCH  14  16
HETATM   16  C12 UNL     1      25.621  -0.792  53.914  1.00  0.00     0.148 C 
BRANCH  16  17
HETATM   17  C13 UNL     1      24.177  -0.454  53.905  1.00  0.00    -0.044 A 
HETATM   18  C14 UNL     1      23.772   0.540  53.008  1.00  0.00     0.008 A 
HETATM   19  C15 UNL     1      22.461   0.971  52.871  1.00  0.00     0.001 A 
HETATM   20  C16 UNL     1      21.486   0.399  53.653  1.00  0.00     0.000 A 
HETATM   21  C17 UNL     1      21.874  -0.582  54.540  1.00  0.00     0.001 A 
HETATM   22  C18 UNL     1      23.174  -1.012  54.678  1.00  0.00     0.008 A 
ENDBRANCH  16  17
ENDBRANCH  14  16
ENDBRANCH   1  14
TORSDOF 8
ENDMDL
MODEL 7
REMARK VINA RESULT:      -6.5      2.584      6.437
REMARK  8 active torsions:
REMARK  status: ('A' for Active; 'I' for Inactive)
REMARK    1  A    between atoms: C2_2  and  N1_3 
REMARK    2  A    between atoms: N1_3  and  C3_4 
REMARK    3  A    between atoms: N1_3  and  N2_14 
REMARK    4  A    between atoms: C3_4  and  C4_5 
REMARK    5  A    between atoms: C5_6  and  O1_7 
REMARK    6  A    between atoms: O1_7  and  C6_8 
REMARK    7  A    between atoms: N2_14  and  C12_15 
REMARK    8  A    between atoms: C12_15  and  C13_16 
ROOT
HETATM    1  N1  UNL     1      24.448   0.695  53.223  1.00  0.00    -0.337 N 
ENDROOT
BRANCH   1   2
HETATM    2  C2  UNL     1      23.053   0.569  53.148  1.00  0.00     0.133 C 
HETATM    3  C1  UNL     1      22.649  -0.837  53.548  1.00  0.00     0.028 C 
ENDBRANCH   1   2
BRANCH   1   4
HETATM    4  C3  UNL     1      25.043   1.962  53.352  1.00  0.00     0.232 C 
BRANCH   4   5
HETATM    5  C4  UNL     1      24.931   2.626  52.048  1.00  0.00    -0.055 C 
HETATM    6  C5  UNL     1      24.820   3.177  50.981  1.00  0.00     0.061 C 
BRANCH   6   7
HETATM    7  O1  UNL     1      24.672   3.809  49.775  1.00  0.00    -0.261 OA
BRANCH   7   8
HETATM    8  C6  UNL     1      25.654   4.655  49.236  1.00  0.00     0.087 A 
HETATM    9  C7  UNL     1      25.263   5.901  48.830  1.00  0.00     0.038 A 
HETATM   10  C8  UNL     1      26.180   6.788  48.289  1.00  0.00     0.003 A 
HETATM   11  C9  UNL     1      27.472   6.321  48.200  1.00  0.00     0.000 A 
HETATM   12  C10 UNL     1      27.883   5.091  48.594  1.00  0.00     0.003 A 
HETATM   13  C11 UNL     1      26.966   4.185  49.142  1.00  0.00     0.038 A 
ENDBRANCH   7   8
ENDBRANCH   6   7
ENDBRANCH   4   5
ENDBRANCH   1   4
BRANCH   1  14
HETATM   14  N2  UNL     1      25.205  -0.386  53.548  1.00  0.00    -0.238 NA
HETATM   15  H13 UNL     1      24.554  -1.182  53.793  1.00  0.00     0.146 HD
BRANCH  14  16
HETATM   16  C12 UNL     1      26.015  -0.874  52.448  1.00  0.00     0.148 C 
BRANCH  16  17
HETATM   17  C13 UNL     1      27.422  -0.873  52.920  1.00  0.00    -0.044 A 
HETATM   18  C14 UNL     1      28.088  -2.103  52.907  1.00  0.00     0.008 A 
HETATM   19  C15 UNL     1      29.403  -2.274  53.312  1.00  0.00     0.001 A 
HETATM   20  C16 UNL     1      30.113  -1.183  53.755  1.00  0.00     0.000 A 
HETATM   21  C17 UNL     1      29.465   0.034  53.771  1.00  0.00     0.001 A 
HETATM   22  C18 UNL     1      28.160   0.207  53.371  1.00  0.00     0.008 A 
ENDBRANCH  16  17
ENDBRANCH  14  16
ENDBRANCH   1  14
TORSDOF 8
ENDMDL
MODEL 8
REMARK VINA RESULT:      -6.5      2.148      5.887
REMARK  8 active torsions:
REMARK  status: ('A' for Active; 'I' for Inactive)
REMARK    1  A    between atoms: C2_2  and  N1_3 
REMARK    2  A    between atoms: N1_3  and  C3_4 
REMARK    3  A    between atoms: N1_3  and  N2_14 
REMARK    4  A    between atoms: C3_4  and  C4_5 
REMARK    5  A    between atoms: C5_6  and  O1_7 
REMARK    6  A    between atoms: O1_7  and  C6_8 
REMARK    7  A    between atoms: N2_14  and  C12_15 
REMARK    8  A    between atoms: C12_15  and  C13_16 
ROOT
HETATM    1  N1  UNL     1      23.185  -0.333  53.272  1.00  0.00    -0.337 N 
ENDROOT
BRANCH   1   2
HETATM    2  C2  UNL     1      22.765  -0.884  54.493  1.00  0.00     0.133 C 
HETATM    3  C1  UNL     1      21.353  -1.417  54.348  1.00  0.00     0.028 C 
ENDBRANCH   1   2
BRANCH   1   4
HETATM    4  C3  UNL     1      22.263   0.306  52.425  1.00  0.00     0.232 C 
BRANCH   4   5
HETATM    5  C4  UNL     1      22.801   1.639  52.130  1.00  0.00    -0.055 C 
HETATM    6  C5  UNL     1      23.250   2.737  51.907  1.00  0.00     0.061 C 
BRANCH   6   7
HETATM    7  O1  UNL     1      23.767   3.983  51.675  1.00  0.00    -0.261 OA
BRANCH   7   8
HETATM    8  C6  UNL     1      24.800   4.217  50.753  1.00  0.00     0.087 A 
HETATM    9  C7  UNL     1      25.563   3.148  50.373  1.00  0.00     0.038 A 
HETATM   10  C8  UNL     1      26.600   3.307  49.467  1.00  0.00     0.003 A 
HETATM   11  C9  UNL     1      26.785   4.589  48.999  1.00  0.00     0.000 A 
HETATM   12  C10 UNL     1      26.043   5.664  49.363  1.00  0.00     0.003 A 
HETATM   13  C11 UNL     1      24.993   5.516  50.279  1.00  0.00     0.038 A 
ENDBRANCH   7   8
ENDBRANCH   6   7
ENDBRANCH   4   5
ENDBRANCH   1   4
BRANCH   1  14
HETATM   14  N2  UNL     1      24.504  -0.074  53.068  1.00  0.00    -0.238 NA
HETATM   15  H13 UNL     1      24.608   0.956  52.857  1.00  0.00     0.146 HD
BRANCH  14  16
HETATM   16  C12 UNL     1      25.325  -0.312  54.240  1.00  0.00     0.148 C 
BRANCH  16  17
HETATM   17  C13 UNL     1      26.550   0.509  54.077  1.00  0.00    -0.044 A 
HETATM   18  C14 UNL     1      27.706   0.041  54.709  1.00  0.00     0.008 A 
HETATM   19  C15 UNL     1      28.932   0.687  54.654  1.00  0.00     0.001 A 
HETATM   20  C16 UNL     1      29.039   1.857  53.940  1.00  0.00     0.000 A 
HETATM   21  C17 UNL     1      27.905   2.326  53.312  1.00  0.00     0.001 A 
HETATM   22  C18 UNL     1      26.688   1.688  53.365  1.00  0.00     0.008 A 
ENDBRANCH  16  17
ENDBRANCH  14  16
ENDBRANCH   1  14
TORSDOF 8
ENDMDL
MODEL 9
REMARK VINA RESULT:      -6.4      2.578      5.688
REMARK  8 active torsions:
REMARK  status: ('A' for Active; 'I' for Inactive)
REMARK    1  A    between atoms: C2_2  and  N1_3 
REMARK    2  A    between atoms: N1_3  and  C3_4 
REMARK    3  A    between atoms: N1_3  and  N2_14 
REMARK    4  A    between atoms: C3_4  and  C4_5 
REMARK    5  A    between atoms: C5_6  and  O1_7 
REMARK    6  A    between atoms: O1_7  and  C6_8 
REMARK    7  A    between atoms: N2_14  and  C12_15 
REMARK    8  A    between atoms: C12_15  and  C13_16 
ROOT
HETATM    1  N1  UNL     1      24.087   3.827  51.168  1.00  0.00    -0.337 N 
ENDROOT
BRANCH   1   2
HETATM    2  C2  UNL     1      23.163   4.854  51.413  1.00  0.00     0.133 C 
HETATM    3  C1  UNL     1      23.904   6.148  51.686  1.00  0.00     0.028 C 
ENDBRANCH   1   2
BRANCH   1   4
HETATM    4  C3  UNL     1      23.645   2.533  50.845  1.00  0.00     0.232 C 
BRANCH   4   5
HETATM    5  C4  UNL     1      24.192   1.624  51.859  1.00  0.00    -0.055 C 
HETATM    6  C5  UNL     1      24.639   0.861  52.680  1.00  0.00     0.061 C 
BRANCH   6   7
HETATM    7  O1  UNL     1      25.144  -0.022  53.597  1.00  0.00    -0.261 OA
BRANCH   7   8
HETATM    8  C6  UNL     1      26.520  -0.252  53.752  1.00  0.00     0.087 A 
HETATM    9  C7  UNL     1      27.111  -1.145  52.902  1.00  0.00     0.038 A 
HETATM   10  C8  UNL     1      28.466  -1.421  52.999  1.00  0.00     0.003 A 
HETATM   11  C9  UNL     1      29.139  -0.739  53.988  1.00  0.00     0.000 A 
HETATM   12  C10 UNL     1      28.574   0.149  54.842  1.00  0.00     0.003 A 
HETATM   13  C11 UNL     1      27.206   0.435  54.755  1.00  0.00     0.038 A 
ENDBRANCH   7   8
ENDBRANCH   6   7
ENDBRANCH   4   5
ENDBRANCH   1   4
BRANCH   1  14
HETATM   14  N2  UNL     1      25.376   4.139  50.868  1.00  0.00    -0.238 NA
HETATM   15  H13 UNL     1      26.005   3.603  51.526  1.00  0.00     0.146 HD
BRANCH  14  16
HETATM   16  C12 UNL     1      25.773   3.728  49.535  1.00  0.00     0.148 C 
BRANCH  16  17
HETATM   17  C13 UNL     1      26.567   4.844  48.963  1.00  0.00    -0.044 A 
HETATM   18  C14 UNL     1      25.870   6.020  48.665  1.00  0.00     0.008 A 
HETATM   19  C15 UNL     1      26.461   7.154  48.130  1.00  0.00     0.001 A 
HETATM   20  C16 UNL     1      27.811   7.144  47.871  1.00  0.00     0.000 A 
HETATM   21  C17 UNL     1      28.507   5.991  48.162  1.00  0.00     0.001 A 
HETATM   22  C18 UNL     1      27.923   4.864  48.692  1.00  0.00     0.008 A 
ENDBRANCH  16  17
ENDBRANCH  14  16
ENDBRANCH   1  14
TORSDOF 8
ENDMDL
