MODEL 1
REMARK VINA RESULT:      -9.2      0.000      0.000
REMARK  4 active torsions:
REMARK  status: ('A' for Active; 'I' for Inactive)
REMARK    1  A    between atoms: O1_2  and  C2_3 
REMARK    2  A    between atoms: C5_6  and  C6_7 
REMARK    3  A    between atoms: C14_17  and  C15_18 
REMARK    4  A    between atoms: N2_22  and  C18_23 
ROOT
HETATM    1  C2  UNL     1      22.400  -0.882  54.350  1.00  0.00     0.068 A 
HETATM    2  C3  UNL     1      21.153  -0.917  53.764  1.00  0.00     0.037 A 
HETATM    3  C4  UNL     1      20.962  -0.206  52.575  1.00  0.00     0.015 A 
HETATM    4  C5  UNL     1      22.011   0.521  52.000  1.00  0.00    -0.017 A 
HETATM    5  C14 UNL     1      23.264   0.573  52.558  1.00  0.00    -0.014 A 
HETATM    6  C24 UNL     1      23.383  -0.147  53.726  1.00  0.00     0.047 A 
ENDROOT
BRANCH   5   7
HETATM    7  C15 UNL     1      24.359   1.308  51.885  1.00  0.00     0.193 A 
HETATM    8  C16 UNL     1      24.476   2.650  52.590  1.00  0.00     0.058 A 
HETATM    9  C17 UNL     1      23.694   3.905  52.738  1.00  0.00     0.070 C 
HETATM   10  N1  UNL     1      25.624   2.466  53.143  1.00  0.00    -0.178 NA
HETATM   11  N2  UNL     1      25.647   1.202  52.544  1.00  0.00    -0.255 N 
BRANCH  11  12
HETATM   12  C18 UNL     1      26.827   0.459  52.841  1.00  0.00     0.054 A 
HETATM   13  C19 UNL     1      28.033   0.967  53.278  1.00  0.00     0.031 A 
HETATM   14  C20 UNL     1      29.136   0.138  53.521  1.00  0.00     0.002 A 
HETATM   15  C21 UNL     1      29.044  -1.224  53.329  1.00  0.00     0.000 A 
HETATM   16  C22 UNL     1      27.872  -1.804  52.893  1.00  0.00     0.002 A 
HETATM   17  C23 UNL     1      26.840  -0.915  52.678  1.00  0.00     0.031 A 
ENDBRANCH  11  12
ENDBRANCH   5   7
BRANCH   4  18
HETATM   18  C6  UNL     1      21.508   1.212  50.824  1.00  0.00    -0.022 A 
HETATM   19  C7  UNL     1      21.587   0.920  49.480  1.00  0.00     0.015 A 
HETATM   20  C8  UNL     1      20.947   1.743  48.575  1.00  0.00     0.040 A 
HETATM   21  C9  UNL     1      20.230   2.847  48.976  1.00  0.00     0.102 A 
HETATM   22  C10 UNL     1      20.134   3.166  50.324  1.00  0.00     0.102 A 
HETATM   23  O3  UNL     1      19.616   3.619  47.972  1.00  0.00    -0.346 OA
HETATM   24  C11 UNL     1      20.782   2.334  51.243  1.00  0.00     0.052 A 
HETATM   25  O2  UNL     1      19.400   4.287  50.654  1.00  0.00    -0.346 OA
HETATM   26  C12 UNL     1      19.008   5.233  49.654  1.00  0.00     0.202 C 
HETATM   27  C13 UNL     1      18.564   4.495  48.402  1.00  0.00     0.202 C 
ENDBRANCH   4  18
BRANCH   1  28
HETATM   28  O1  UNL     1      22.623  -1.576  55.530  1.00  0.00    -0.356 OA
HETATM   29  C1  UNL     1      23.911  -1.595  56.076  1.00  0.00     0.210 C 
ENDBRANCH   1  28
TORSDOF 4
ENDMDL
MODEL 2
REMARK VINA RESULT:      -9.0      3.686      5.385
REMARK  4 active torsions:
REMARK  status: ('A' for Active; 'I' for Inactive)
REMARK    1  A    between atoms: O1_2  and  C2_3 
REMARK    2  A    between atoms: C5_6  and  C6_7 
REMARK    3  A    between atoms: C14_17  and  C15_18 
REMARK    4  A    between atoms: N2_22  and  C18_23 
ROOT
HETATM    1  C2  UNL     1      26.991   1.871  52.299  1.00  0.00     0.068 A 
HETATM    2  C3  UNL     1      26.240   0.793  52.717  1.00  0.00     0.037 A 
HETATM    3  C4  UNL     1      24.916   0.700  52.276  1.00  0.00     0.015 A 
HETATM    4  C5  UNL     1      24.373   1.677  51.433  1.00  0.00    -0.017 A 
HETATM    5  C14 UNL     1      25.094   2.759  50.998  1.00  0.00    -0.014 A 
HETATM    6  C24 UNL     1      26.388   2.791  51.469  1.00  0.00     0.047 A 
ENDROOT
BRANCH   5   7
HETATM    7  C15 UNL     1      24.496   3.737  50.062  1.00  0.00     0.193 A 
HETATM    8  C16 UNL     1      23.840   4.809  50.917  1.00  0.00     0.058 A 
HETATM    9  C17 UNL     1      22.682   4.948  51.839  1.00  0.00     0.070 C 
HETATM   10  N1  UNL     1      24.630   5.783  50.628  1.00  0.00    -0.178 NA
HETATM   11  N2  UNL     1      25.324   4.898  49.795  1.00  0.00    -0.255 N 
BRANCH  11  12
HETATM   12  C18 UNL     1      26.433   5.500  49.132  1.00  0.00     0.054 A 
HETATM   13  C19 UNL     1      26.524   6.807  48.699  1.00  0.00     0.031 A 
HETATM   14  C20 UNL     1      27.664   7.285  48.038  1.00  0.00     0.002 A 
HETATM   15  C21 UNL     1      28.736   6.453  47.799  1.00  0.00     0.000 A 
HETATM   16  C22 UNL     1      28.716   5.134  48.201  1.00  0.00     0.002 A 
HETATM   17  C23 UNL     1      27.559   4.750  48.842  1.00  0.00     0.031 A 
ENDBRANCH  11  12
ENDBRANCH   5   7
BRANCH   4  18
HETATM   18  C6  UNL     1      22.972   1.362  51.201  1.00  0.00    -0.022 A 
HETATM   19  C7  UNL     1      22.169   1.500  50.090  1.00  0.00     0.015 A 
HETATM   20  C8  UNL     1      20.866   1.048  50.143  1.00  0.00     0.040 A 
HETATM   21  C9  UNL     1      20.343   0.464  51.273  1.00  0.00     0.102 A 
HETATM   22  C10 UNL     1      21.128   0.313  52.408  1.00  0.00     0.102 A 
HETATM   23  O3  UNL     1      19.002   0.039  51.221  1.00  0.00    -0.346 OA
HETATM   24  C11 UNL     1      22.450   0.770  52.358  1.00  0.00     0.052 A 
HETATM   25  O2  UNL     1      20.540  -0.281  53.506  1.00  0.00    -0.346 OA
HETATM   26  C12 UNL     1      19.122  -0.463  53.575  1.00  0.00     0.202 C 
HETATM   27  C13 UNL     1      18.600  -0.911  52.220  1.00  0.00     0.202 C 
ENDBRANCH   4  18
BRANCH   1  28
HETATM   28  O1  UNL     1      28.307   1.995  52.718  1.00  0.00    -0.356 OA
HETATM   29  C1  UNL     1      28.861   0.997  53.526  1.00  0.00     0.210 C 
ENDBRANCH   1  28
TORSDOF 4
ENDMDL
MODEL 3
REMARK VINA RESULT:      -8.8      1.670      1.846
REMARK  4 active torsions:
REMARK  status: ('A' for Active; 'I' for Inactive)
REMARK    1  A    between atoms: O1_2  and  C2_3 
REMARK    2  A    between atoms: C5_6  and  C6_7 
REMARK    3  A    between atoms: C14_17  and  C15_18 
REMARK    4  A    between atoms: N2_22  and  C18_23 
ROOT
HETATM    1  C2  UNL     1      21.745  -0.318  52.931  1.00  0.00     0.068 A 
HETATM    2  C3  UNL     1      20.801  -0.218  51.931  1.00  0.00     0.037 A 
HETATM    3  C4  UNL     1      21.080   0.611  50.840  1.00  0.00     0.015 A 
HETATM    4  C5  UNL     1      22.286   1.318  50.769  1.00  0.00    -0.017 A 
HETATM    5  C14 UNL     1      23.246   1.238  51.746  1.00  0.00    -0.014 A 
HETATM    6  C24 UNL     1      22.908   0.407  52.791  1.00  0.00     0.047 A 
ENDROOT
BRANCH   5   7
HETATM    7  C15 UNL     1      24.531   1.959  51.602  1.00  0.00     0.193 A 
HETATM    8  C16 UNL     1      24.570   2.998  52.712  1.00  0.00     0.058 A 
HETATM    9  C17 UNL     1      23.878   4.259  53.086  1.00  0.00     0.070 C 
HETATM   10  N1  UNL     1      25.521   2.483  53.409  1.00  0.00    -0.178 NA
HETATM   11  N2  UNL     1      25.597   1.465  52.453  1.00  0.00    -0.255 N 
BRANCH  11  12
HETATM   12  C18 UNL     1      26.599   0.494  52.741  1.00  0.00     0.054 A 
HETATM   13  C19 UNL     1      27.866   0.737  53.229  1.00  0.00     0.031 A 
HETATM   14  C20 UNL     1      28.779  -0.302  53.457  1.00  0.00     0.002 A 
HETATM   15  C21 UNL     1      28.431  -1.610  53.197  1.00  0.00     0.000 A 
HETATM   16  C22 UNL     1      27.183  -1.930  52.707  1.00  0.00     0.002 A 
HETATM   17  C23 UNL     1      26.351  -0.848  52.512  1.00  0.00     0.031 A 
ENDBRANCH  11  12
ENDBRANCH   5   7
BRANCH   4  18
HETATM   18  C6  UNL     1      22.269   2.146  49.573  1.00  0.00    -0.022 A 
HETATM   19  C7  UNL     1      22.367   1.833  48.235  1.00  0.00     0.015 A 
HETATM   20  C8  UNL     1      22.254   2.841  47.299  1.00  0.00     0.040 A 
HETATM   21  C9  UNL     1      22.046   4.152  47.663  1.00  0.00     0.102 A 
HETATM   22  C10 UNL     1      21.944   4.496  49.004  1.00  0.00     0.102 A 
HETATM   23  O3  UNL     1      21.945   5.102  46.630  1.00  0.00    -0.346 OA
HETATM   24  C11 UNL     1      22.059   3.476  49.955  1.00  0.00     0.052 A 
HETATM   25  O2  UNL     1      21.736   5.828  49.297  1.00  0.00    -0.346 OA
HETATM   26  C12 UNL     1      21.908   6.839  48.299  1.00  0.00     0.202 C 
HETATM   27  C13 UNL     1      21.335   6.353  46.978  1.00  0.00     0.202 C 
ENDBRANCH   4  18
BRANCH   1  28
HETATM   28  O1  UNL     1      21.500  -1.130  54.028  1.00  0.00    -0.356 OA
HETATM   29  C1  UNL     1      22.489  -1.268  55.008  1.00  0.00     0.210 C 
ENDBRANCH   1  28
TORSDOF 4
ENDMDL
MODEL 4
REMARK VINA RESULT:      -8.7      2.932      6.995
REMARK  4 active torsions:
REMARK  status: ('A' for Active; 'I' for Inactive)
REMARK    1  A    between atoms: O1_2  and  C2_3 
REMARK    2  A    between atoms: C5_6  and  C6_7 
REMARK    3  A    between atoms: C14_17  and  C15_18 
REMARK    4  A    between atoms: N2_22  and  C18_23 
ROOT
HETATM    1  C2  UNL     1      20.886   0.970  52.445  1.00  0.00     0.068 A 
HETATM    2  C3  UNL     1      21.650   0.721  53.565  1.00  0.00     0.037 A 
HETATM    3  C4  UNL     1      23.035   0.893  53.472  1.00  0.00     0.015 A 
HETATM    4  C5  UNL     1      23.624   1.308  52.271  1.00  0.00    -0.017 A 
HETATM    5  C14 UNL     1      22.891   1.566  51.141  1.00  0.00    -0.014 A 
HETATM    6  C24 UNL     1      21.537   1.376  51.301  1.00  0.00     0.047 A 
ENDROOT
BRANCH   5   7
HETATM    7  C15 UNL     1      23.551   2.057  49.910  1.00  0.00     0.193 A 
HETATM    8  C16 UNL     1      22.446   2.295  48.893  1.00  0.00     0.058 A 
HETATM    9  C17 UNL     1      21.482   1.501  48.086  1.00  0.00     0.070 C 
HETATM   10  N1  UNL     1      22.523   3.578  48.836  1.00  0.00    -0.178 NA
HETATM   11  N2  UNL     1      23.562   3.501  49.769  1.00  0.00    -0.255 N 
BRANCH  11  12
HETATM   12  C18 UNL     1      24.099   4.774  50.121  1.00  0.00     0.054 A 
HETATM   13  C19 UNL     1      23.595   5.650  51.059  1.00  0.00     0.031 A 
HETATM   14  C20 UNL     1      24.200   6.890  51.309  1.00  0.00     0.002 A 
HETATM   15  C21 UNL     1      25.329   7.270  50.616  1.00  0.00     0.000 A 
HETATM   16  C22 UNL     1      25.890   6.447  49.663  1.00  0.00     0.002 A 
HETATM   17  C23 UNL     1      25.231   5.250  49.483  1.00  0.00     0.031 A 
ENDBRANCH  11  12
ENDBRANCH   5   7
BRANCH   4  18
HETATM   18  C6  UNL     1      25.068   1.329  52.446  1.00  0.00    -0.022 A 
HETATM   19  C7  UNL     1      25.983   2.360  52.427  1.00  0.00     0.015 A 
HETATM   20  C8  UNL     1      27.309   2.086  52.692  1.00  0.00     0.040 A 
HETATM   21  C9  UNL     1      27.746   0.812  52.975  1.00  0.00     0.102 A 
HETATM   22  C10 UNL     1      26.847  -0.246  53.001  1.00  0.00     0.102 A 
HETATM   23  O3  UNL     1      29.120   0.642  53.231  1.00  0.00    -0.346 OA
HETATM   24  C11 UNL     1      25.502   0.030  52.732  1.00  0.00     0.052 A 
HETATM   25  O2  UNL     1      27.355  -1.495  53.291  1.00  0.00    -0.346 OA
HETATM   26  C12 UNL     1      28.764  -1.741  53.277  1.00  0.00     0.202 C 
HETATM   27  C13 UNL     1      29.492  -0.566  53.910  1.00  0.00     0.202 C 
ENDBRANCH   4  18
BRANCH   1  28
HETATM   28  O1  UNL     1      19.510   0.807  52.503  1.00  0.00    -0.356 OA
HETATM   29  C1  UNL     1      18.978  -0.486  52.542  1.00  0.00     0.210 C 
ENDBRANCH   1  28
TORSDOF 4
ENDMDL
MODEL 5
REMARK VINA RESULT:      -8.5      2.649      5.487
REMARK  4 active torsions:
REMARK  status: ('A' for Active; 'I' for Inactive)
REMARK    1  A    between atoms: O1_2  and  C2_3 
REMARK    2  A    between atoms: C5_6  and  C6_7 
REMARK    3  A    between atoms: C14_17  and  C15_18 
REMARK    4  A    between atoms: N2_22  and  C18_23 
ROOT
HETATM    1  C2  UNL     1      23.594   6.496  50.732  1.00  0.00     0.068 A 
HETATM    2  C3  UNL     1      22.418   6.143  51.359  1.00  0.00     0.037 A 
HETATM    3  C4  UNL     1      22.135   4.782  51.515  1.00  0.00     0.015 A 
HETATM    4  C5  UNL     1      23.026   3.809  51.046  1.00  0.00    -0.017 A 
HETATM    5  C14 UNL     1      24.204   4.128  50.421  1.00  0.00    -0.014 A 
HETATM    6  C24 UNL     1      24.420   5.482  50.299  1.00  0.00     0.047 A 
ENDROOT
BRANCH   5   7
HETATM    7  C15 UNL     1      25.142   3.066  49.992  1.00  0.00     0.193 A 
HETATM    8  C16 UNL     1      26.495   3.734  49.802  1.00  0.00     0.058 A 
HETATM    9  C17 UNL     1      27.140   4.707  48.881  1.00  0.00     0.070 C 
HETATM   10  N1  UNL     1      27.113   3.177  50.784  1.00  0.00    -0.178 NA
HETATM   11  N2  UNL     1      25.928   2.488  51.066  1.00  0.00    -0.255 N 
BRANCH  11  12
HETATM   12  C18 UNL     1      26.036   1.617  52.188  1.00  0.00     0.054 A 
HETATM   13  C19 UNL     1      26.280   1.983  53.495  1.00  0.00     0.031 A 
HETATM   14  C20 UNL     1      26.385   1.031  54.519  1.00  0.00     0.002 A 
HETATM   15  C21 UNL     1      26.246  -0.312  54.244  1.00  0.00     0.000 A 
HETATM   16  C22 UNL     1      26.002  -0.754  52.961  1.00  0.00     0.002 A 
HETATM   17  C23 UNL     1      25.914   0.249  52.019  1.00  0.00     0.031 A 
ENDBRANCH  11  12
ENDBRANCH   5   7
BRANCH   4  18
HETATM   18  C6  UNL     1      22.442   2.497  51.277  1.00  0.00    -0.022 A 
HETATM   19  C7  UNL     1      21.808   1.610  50.434  1.00  0.00     0.015 A 
HETATM   20  C8  UNL     1      21.406   0.385  50.928  1.00  0.00     0.040 A 
HETATM   21  C9  UNL     1      21.620   0.023  52.238  1.00  0.00     0.102 A 
HETATM   22  C10 UNL     1      22.256   0.896  53.110  1.00  0.00     0.102 A 
HETATM   23  O3  UNL     1      21.169  -1.249  52.639  1.00  0.00    -0.346 OA
HETATM   24  C11 UNL     1      22.664   2.139  52.612  1.00  0.00     0.052 A 
HETATM   25  O2  UNL     1      22.436   0.468  54.409  1.00  0.00    -0.346 OA
HETATM   26  C12 UNL     1      21.751  -0.684  54.908  1.00  0.00     0.202 C 
HETATM   27  C13 UNL     1      21.742  -1.771  53.847  1.00  0.00     0.202 C 
ENDBRANCH   4  18
BRANCH   1  28
HETATM   28  O1  UNL     1      23.905   7.837  50.560  1.00  0.00    -0.356 OA
HETATM   29  C1  UNL     1      23.471   8.493  49.403  1.00  0.00     0.210 C 
ENDBRANCH   1  28
TORSDOF 4
ENDMDL
MODEL 6
REMARK VINA RESULT:      -8.4      3.548      6.525
REMARK  4 active torsions:
REMARK  status: ('A' for Active; 'I' for Inactive)
REMARK    1  A    between atoms: O1_2  and  C2_3 
REMARK    2  A    between atoms: C5_6  and  C6_7 
REMARK    3  A    between atoms: C14_17  and  C15_18 
REMARK    4  A    between atoms: N2_22  and  C18_23 
ROOT
HETATM    1  C2  UNL     1      23.530   0.302  53.119  1.00  0.00     0.068 A 
HETATM    2  C3  UNL     1      24.571   1.150  53.432  1.00  0.00     0.037 A 
HETATM    3  C4  UNL     1      24.584   2.422  52.849  1.00  0.00     0.015 A 
HETATM    4  C5  UNL     1      23.566   2.818  51.974  1.00  0.00    -0.017 A 
HETATM    5  C14 UNL     1      22.516   1.998  51.645  1.00  0.00    -0.014 A 
HETATM    6  C24 UNL     1      22.565   0.762  52.251  1.00  0.00     0.047 A 
ENDROOT
BRANCH   5   7
HETATM    7  C15 UNL     1      21.432   2.479  50.759  1.00  0.00     0.193 A 
HETATM    8  C16 UNL     1      21.801   2.045  49.349  1.00  0.00     0.058 A 
HETATM    9  C17 UNL     1      22.819   2.363  48.314  1.00  0.00     0.070 C 
HETATM   10  N1  UNL     1      20.866   1.177  49.175  1.00  0.00    -0.178 NA
HETATM   11  N2  UNL     1      20.414   1.489  50.462  1.00  0.00    -0.255 N 
BRANCH  11  12
HETATM   12  C18 UNL     1      19.263   0.744  50.851  1.00  0.00     0.054 A 
HETATM   13  C19 UNL     1      18.079   0.631  50.151  1.00  0.00     0.031 A 
HETATM   14  C20 UNL     1      17.001  -0.118  50.643  1.00  0.00     0.002 A 
HETATM   15  C21 UNL     1      17.097  -0.770  51.854  1.00  0.00     0.000 A 
HETATM   16  C22 UNL     1      18.248  -0.702  52.610  1.00  0.00     0.002 A 
HETATM   17  C23 UNL     1      19.255   0.055  52.051  1.00  0.00     0.031 A 
ENDBRANCH  11  12
ENDBRANCH   5   7
BRANCH   4  18
HETATM   18  C6  UNL     1      23.877   4.147  51.470  1.00  0.00    -0.022 A 
HETATM   19  C7  UNL     1      23.323   5.382  51.728  1.00  0.00     0.015 A 
HETATM   20  C8  UNL     1      23.876   6.501  51.141  1.00  0.00     0.040 A 
HETATM   21  C9  UNL     1      24.966   6.421  50.305  1.00  0.00     0.102 A 
HETATM   22  C10 UNL     1      25.544   5.190  50.026  1.00  0.00     0.102 A 
HETATM   23  O3  UNL     1      25.452   7.624  49.758  1.00  0.00    -0.346 OA
HETATM   24  C11 UNL     1      24.985   4.053  50.620  1.00  0.00     0.052 A 
HETATM   25  O2  UNL     1      26.634   5.184  49.180  1.00  0.00    -0.346 OA
HETATM   26  C12 UNL     1      26.969   6.336  48.400  1.00  0.00     0.202 C 
HETATM   27  C13 UNL     1      26.790   7.589  49.240  1.00  0.00     0.202 C 
ENDBRANCH   4  18
BRANCH   1  28
HETATM   28  O1  UNL     1      23.487  -0.966  53.678  1.00  0.00    -0.356 OA
HETATM   29  C1  UNL     1      22.732  -1.175  54.837  1.00  0.00     0.210 C 
ENDBRANCH   1  28
TORSDOF 4
ENDMDL
MODEL 7
REMARK VINA RESULT:      -8.4      2.795      7.818
REMARK  4 active torsions:
REMARK  status: ('A' for Active; 'I' for Inactive)
REMARK    1  A    between atoms: O1_2  and  C2_3 
REMARK    2  A    between atoms: C5_6  and  C6_7 
REMARK    3  A    between atoms: C14_17  and  C15_18 
REMARK    4  A    between atoms: N2_22  and  C18_23 
ROOT
HETATM    1  C2  UNL     1      21.665   0.956  52.279  1.00  0.00     0.068 A 
HETATM    2  C3  UNL     1      22.388  -0.028  52.919  1.00  0.00     0.037 A 
HETATM    3  C4  UNL     1      23.755   0.184  53.123  1.00  0.00     0.015 A 
HETATM    4  C5  UNL     1      24.369   1.364  52.686  1.00  0.00    -0.017 A 
HETATM    5  C14 UNL     1      23.676   2.362  52.049  1.00  0.00    -0.014 A 
HETATM    6  C24 UNL     1      22.337   2.090  51.880  1.00  0.00     0.047 A 
ENDROOT
BRANCH   5   7
HETATM    7  C15 UNL     1      24.355   3.618  51.655  1.00  0.00     0.193 A 
HETATM    8  C16 UNL     1      25.030   3.345  50.320  1.00  0.00     0.058 A 
HETATM    9  C17 UNL     1      26.158   2.540  49.784  1.00  0.00     0.070 C 
HETATM   10  N1  UNL     1      24.298   4.108  49.587  1.00  0.00    -0.178 NA
HETATM   11  N2  UNL     1      23.594   4.453  50.745  1.00  0.00    -0.255 N 
BRANCH  11  12
HETATM   12  C18 UNL     1      22.540   5.383  50.509  1.00  0.00     0.054 A 
HETATM   13  C19 UNL     1      21.245   5.085  50.139  1.00  0.00     0.031 A 
HETATM   14  C20 UNL     1      20.294   6.090  49.915  1.00  0.00     0.002 A 
HETATM   15  C21 UNL     1      20.631   7.418  50.059  1.00  0.00     0.000 A 
HETATM   16  C22 UNL     1      21.906   7.793  50.426  1.00  0.00     0.002 A 
HETATM   17  C23 UNL     1      22.775   6.742  50.625  1.00  0.00     0.031 A 
ENDBRANCH  11  12
ENDBRANCH   5   7
BRANCH   4  18
HETATM   18  C6  UNL     1      25.794   1.276  52.963  1.00  0.00    -0.022 A 
HETATM   19  C7  UNL     1      26.724   2.231  53.314  1.00  0.00     0.015 A 
HETATM   20  C8  UNL     1      28.020   1.838  53.581  1.00  0.00     0.040 A 
HETATM   21  C9  UNL     1      28.412   0.521  53.508  1.00  0.00     0.102 A 
HETATM   22  C10 UNL     1      27.497  -0.461  53.156  1.00  0.00     0.102 A 
HETATM   23  O3  UNL     1      29.758   0.230  53.800  1.00  0.00    -0.346 OA
HETATM   24  C11 UNL     1      26.182  -0.066  52.884  1.00  0.00     0.052 A 
HETATM   25  O2  UNL     1      27.958  -1.760  53.101  1.00  0.00    -0.346 OA
HETATM   26  C12 UNL     1      29.360  -2.047  53.117  1.00  0.00     0.202 C 
HETATM   27  C13 UNL     1      30.054  -1.138  54.118  1.00  0.00     0.202 C 
ENDBRANCH   4  18
BRANCH   1  28
HETATM   28  O1  UNL     1      20.307   0.778  52.060  1.00  0.00    -0.356 OA
HETATM   29  C1  UNL     1      19.824   0.775  50.748  1.00  0.00     0.210 C 
ENDBRANCH   1  28
TORSDOF 4
ENDMDL
MODEL 8
REMARK VINA RESULT:      -8.2      3.065      5.172
REMARK  4 active torsions:
REMARK  status: ('A' for Active; 'I' for Inactive)
REMARK    1  A    between atoms: O1_2  and  C2_3 
REMARK    2  A    between atoms: C5_6  and  C6_7 
REMARK    3  A    between atoms: C14_17  and  C15_18 
REMARK    4  A    between atoms: N2_22  and  C18_23 
ROOT
HETATM    1  C2  UNL     1      26.088   2.725  50.789  1.00  0.00     0.068 A 
HETATM    2  C3  UNL     1      26.365   3.858  50.054  1.00  0.00     0.037 A 
HETATM    3  C4  UNL     1      25.291   4.574  49.516  1.00  0.00     0.015 A 
HETATM    4  C5  UNL     1      23.973   4.149  49.721  1.00  0.00    -0.017 A 
HETATM    5  C14 UNL     1      23.666   3.027  50.450  1.00  0.00    -0.014 A 
HETATM    6  C24 UNL     1      24.768   2.369  50.949  1.00  0.00     0.047 A 
ENDROOT
BRANCH   5   7
HETATM    7  C15 UNL     1      22.255   2.646  50.689  1.00  0.00     0.193 A 
HETATM    8  C16 UNL     1      21.877   1.674  49.582  1.00  0.00     0.058 A 
HETATM    9  C17 UNL     1      21.648   1.689  48.114  1.00  0.00     0.070 C 
HETATM   10  N1  UNL     1      21.753   0.616  50.304  1.00  0.00    -0.178 NA
HETATM   11  N2  UNL     1      22.083   1.401  51.413  1.00  0.00    -0.255 N 
BRANCH  11  12
HETATM   12  C18 UNL     1      22.101   0.670  52.637  1.00  0.00     0.054 A 
HETATM   13  C19 UNL     1      21.072   0.566  53.550  1.00  0.00     0.031 A 
HETATM   14  C20 UNL     1      21.211  -0.170  54.735  1.00  0.00     0.002 A 
HETATM   15  C21 UNL     1      22.394  -0.817  55.023  1.00  0.00     0.000 A 
HETATM   16  C22 UNL     1      23.466  -0.756  54.159  1.00  0.00     0.002 A 
HETATM   17  C23 UNL     1      23.242  -0.012  53.020  1.00  0.00     0.031 A 
ENDBRANCH  11  12
ENDBRANCH   5   7
BRANCH   4  18
HETATM   18  C6  UNL     1      23.080   5.035  48.992  1.00  0.00    -0.022 A 
HETATM   19  C7  UNL     1      22.720   5.089  47.662  1.00  0.00     0.015 A 
HETATM   20  C8  UNL     1      21.783   6.018  47.258  1.00  0.00     0.040 A 
HETATM   21  C9  UNL     1      21.196   6.892  48.143  1.00  0.00     0.102 A 
HETATM   22  C10 UNL     1      21.539   6.861  49.488  1.00  0.00     0.102 A 
HETATM   23  O3  UNL     1      20.252   7.800  47.626  1.00  0.00    -0.346 OA
HETATM   24  C11 UNL     1      22.490   5.921  49.901  1.00  0.00     0.052 A 
HETATM   25  O2  UNL     1      20.913   7.767  50.319  1.00  0.00    -0.346 OA
HETATM   26  C12 UNL     1      20.172   8.869  49.784  1.00  0.00     0.202 C 
HETATM   27  C13 UNL     1      19.368   8.406  48.581  1.00  0.00     0.202 C 
ENDBRANCH   4  18
BRANCH   1  28
HETATM   28  O1  UNL     1      27.130   1.990  51.335  1.00  0.00    -0.356 OA
HETATM   29  C1  UNL     1      26.936   1.338  52.557  1.00  0.00     0.210 C 
ENDBRANCH   1  28
TORSDOF 4
ENDMDL
MODEL 9
REMARK VINA RESULT:      -8.1      3.986      6.281
REMARK  4 active torsions:
REMARK  status: ('A' for Active; 'I' for Inactive)
REMARK    1  A    between atoms: O1_2  and  C2_3 
REMARK    2  A    between atoms: C5_6  and  C6_7 
REMARK    3  A    between atoms: C14_17  and  C15_18 
REMARK    4  A    between atoms: N2_22  and  C18_23 
ROOT
HETATM    1  C2  UNL     1      25.747   0.922  51.968  1.00  0.00     0.068 A 
HETATM    2  C3  UNL     1      26.692   1.875  51.654  1.00  0.00     0.037 A 
HETATM    3  C4  UNL     1      26.275   3.014  50.958  1.00  0.00     0.015 A 
HETATM    4  C5  UNL     1      24.933   3.178  50.595  1.00  0.00    -0.017 A 
HETATM    5  C14 UNL     1      23.969   2.249  50.896  1.00  0.00    -0.014 A 
HETATM    6  C24 UNL     1      24.447   1.153  51.579  1.00  0.00     0.047 A 
ENDROOT
BRANCH   5   7
HETATM    7  C15 UNL     1      22.552   2.491  50.541  1.00  0.00     0.193 A 
HETATM    8  C16 UNL     1      22.346   1.897  49.157  1.00  0.00     0.058 A 
HETATM    9  C17 UNL     1      22.765   2.159  47.755  1.00  0.00     0.070 C 
HETATM   10  N1  UNL     1      21.568   0.927  49.489  1.00  0.00    -0.178 NA
HETATM   11  N2  UNL     1      21.666   1.374  50.810  1.00  0.00    -0.255 N 
BRANCH  11  12
HETATM   12  C18 UNL     1      20.916   0.585  51.730  1.00  0.00     0.054 A 
HETATM   13  C19 UNL     1      19.546   0.421  51.750  1.00  0.00     0.031 A 
HETATM   14  C20 UNL     1      18.913  -0.369  52.719  1.00  0.00     0.002 A 
HETATM   15  C21 UNL     1      19.651  -1.011  53.691  1.00  0.00     0.000 A 
HETATM   16  C22 UNL     1      21.024  -0.893  53.735  1.00  0.00     0.002 A 
HETATM   17  C23 UNL     1      21.561  -0.098  52.745  1.00  0.00     0.031 A 
ENDBRANCH  11  12
ENDBRANCH   5   7
BRANCH   4  18
HETATM   18  C6  UNL     1      24.807   4.406  49.826  1.00  0.00    -0.022 A 
HETATM   19  C7  UNL     1      23.715   5.182  49.502  1.00  0.00     0.015 A 
HETATM   20  C8  UNL     1      23.908   6.353  48.797  1.00  0.00     0.040 A 
HETATM   21  C9  UNL     1      25.160   6.770  48.409  1.00  0.00     0.102 A 
HETATM   22  C10 UNL     1      26.279   6.009  48.721  1.00  0.00     0.102 A 
HETATM   23  O3  UNL     1      25.246   7.980  47.694  1.00  0.00    -0.346 OA
HETATM   24  C11 UNL     1      26.085   4.821  49.434  1.00  0.00     0.052 A 
HETATM   25  O2  UNL     1      27.502   6.486  48.300  1.00  0.00    -0.346 OA
HETATM   26  C12 UNL     1      27.591   7.549  47.345  1.00  0.00     0.202 C 
HETATM   27  C13 UNL     1      26.539   8.601  47.655  1.00  0.00     0.202 C 
ENDBRANCH   4  18
BRANCH   1  28
HETATM   28  O1  UNL     1      26.128  -0.221  52.656  1.00  0.00    -0.356 OA
HETATM   29  C1  UNL     1      25.486  -0.538  53.858  1.00  0.00     0.210 C 
ENDBRANCH   1  28
TORSDOF 4
ENDMDL
