MODEL 1
REMARK VINA RESULT:      -8.5      0.000      0.000
REMARK  3 active torsions:
REMARK  status: ('A' for Active; 'I' for Inactive)
REMARK    1  A    between atoms: C2_2  and  C3_4 
REMARK    2  A    between atoms: C4_5  and  C5_6 
REMARK    3  A    between atoms: C5_6  and  C6_8 
ROOT
HETATM    1  C6  UNL     1      24.052   0.008  53.132  1.00  0.00    -0.012 C 
HETATM    2  C7  UNL     1      24.549   0.913  52.308  1.00  0.00    -0.015 C 
HETATM    3  C8  UNL     1      23.623   1.597  51.295  1.00  0.00     0.001 C 
HETATM    4  C9  UNL     1      22.446   1.857  50.641  1.00  0.00     0.042 C 
HETATM    5  C10 UNL     1      21.075   1.916  50.127  1.00  0.00     0.126 A 
HETATM    6  C11 UNL     1      19.946   1.281  50.408  1.00  0.00     0.026 A 
HETATM    7 BR1  UNL     1      19.521   2.523  48.962  1.00  0.00    -0.151 Br
HETATM    8  C12 UNL     1      18.761   0.507  50.870  1.00  0.00    -0.014 C 
HETATM    9  C13 UNL     1      18.776  -0.177  52.024  1.00  0.00    -0.024 C 
HETATM   10  C14 UNL     1      19.364  -0.689  53.304  1.00  0.00     0.020 C 
HETATM   11  C15 UNL     1      20.447  -0.703  54.151  1.00  0.00    -0.001 C 
HETATM   12  C16 UNL     1      21.702   0.052  53.880  1.00  0.00     0.010 C 
HETATM   13  C17 UNL     1      22.981  -0.665  53.865  1.00  0.00     0.043 C 
ENDROOT
BRANCH   1  14
HETATM   14  C5  UNL     1      25.338  -0.310  53.801  1.00  0.00     0.178 C 
HETATM   15  O2  UNL     1      25.555  -0.925  54.876  1.00  0.00    -0.288 OA
BRANCH  14  16
HETATM   16  C4  UNL     1      26.765  -0.133  53.629  1.00  0.00     0.059 C 
HETATM   17  C3  UNL     1      27.396   0.240  54.715  1.00  0.00     0.053 C 
BRANCH  17  18
HETATM   18  C2  UNL     1      28.831   0.413  54.524  1.00  0.00     0.145 C 
HETATM   19  C1  UNL     1      29.750  -0.502  53.846  1.00  0.00     0.096 C 
HETATM   20  O1  UNL     1      29.224   1.493  55.032  1.00  0.00    -0.294 OA
ENDBRANCH  17  18
ENDBRANCH  14  16
ENDBRANCH   1  14
TORSDOF 3
ENDMDL
MODEL 2
REMARK VINA RESULT:      -8.2      1.508      3.007
REMARK  3 active torsions:
REMARK  status: ('A' for Active; 'I' for Inactive)
REMARK    1  A    between atoms: C2_2  and  C3_4 
REMARK    2  A    between atoms: C4_5  and  C5_6 
REMARK    3  A    between atoms: C5_6  and  C6_8 
ROOT
HETATM    1  C6  UNL     1      23.807  -0.250  53.806  1.00  0.00    -0.012 C 
HETATM    2  C7  UNL     1      23.323  -1.213  54.569  1.00  0.00    -0.015 C 
HETATM    3  C8  UNL     1      21.831  -1.559  54.486  1.00  0.00     0.001 C 
HETATM    4  C9  UNL     1      20.534  -1.446  54.052  1.00  0.00     0.042 C 
HETATM    5  C10 UNL     1      19.261  -1.095  53.419  1.00  0.00     0.126 A 
HETATM    6  C11 UNL     1      18.880  -0.185  52.533  1.00  0.00     0.026 A 
HETATM    7 BR1  UNL     1      17.270  -1.184  53.008  1.00  0.00    -0.151 Br
HETATM    8  C12 UNL     1      18.626   0.862  51.506  1.00  0.00    -0.014 C 
HETATM    9  C13 UNL     1      19.633   1.454  50.845  1.00  0.00    -0.024 C 
HETATM   10  C14 UNL     1      21.061   1.716  50.475  1.00  0.00     0.020 C 
HETATM   11  C15 UNL     1      22.381   1.383  50.668  1.00  0.00    -0.001 C 
HETATM   12  C16 UNL     1      22.824   0.323  51.617  1.00  0.00     0.010 C 
HETATM   13  C17 UNL     1      23.802   0.656  52.658  1.00  0.00     0.043 C 
ENDROOT
BRANCH   1  14
HETATM   14  C5  UNL     1      25.198  -0.338  54.317  1.00  0.00     0.178 C 
HETATM   15  O2  UNL     1      25.622  -0.753  55.426  1.00  0.00    -0.288 OA
BRANCH  14  16
HETATM   16  C4  UNL     1      26.559  -0.057  53.915  1.00  0.00     0.059 C 
HETATM   17  C3  UNL     1      27.379   0.174  54.911  1.00  0.00     0.053 C 
BRANCH  17  18
HETATM   18  C2  UNL     1      28.746   0.454  54.488  1.00  0.00     0.145 C 
HETATM   19  C1  UNL     1      29.629  -0.419  53.714  1.00  0.00     0.096 C 
HETATM   20  O1  UNL     1      29.112   1.590  54.879  1.00  0.00    -0.294 OA
ENDBRANCH  17  18
ENDBRANCH  14  16
ENDBRANCH   1  14
TORSDOF 3
ENDMDL
MODEL 3
REMARK VINA RESULT:      -8.0      1.992      2.719
REMARK  3 active torsions:
REMARK  status: ('A' for Active; 'I' for Inactive)
REMARK    1  A    between atoms: C2_2  and  C3_4 
REMARK    2  A    between atoms: C4_5  and  C5_6 
REMARK    3  A    between atoms: C5_6  and  C6_8 
ROOT
HETATM    1  C6  UNL     1      25.767   1.504  52.399  1.00  0.00    -0.012 C 
HETATM    2  C7  UNL     1      26.314   2.464  51.675  1.00  0.00    -0.015 C 
HETATM    3  C8  UNL     1      25.561   3.010  50.457  1.00  0.00     0.001 C 
HETATM    4  C9  UNL     1      24.539   3.103  49.546  1.00  0.00     0.042 C 
HETATM    5  C10 UNL     1      23.326   2.972  48.735  1.00  0.00     0.126 A 
HETATM    6  C11 UNL     1      22.256   2.189  48.778  1.00  0.00     0.026 A 
HETATM    7 BR1  UNL     1      22.011   3.355  47.230  1.00  0.00    -0.151 Br
HETATM    8  C12 UNL     1      21.110   1.263  48.989  1.00  0.00    -0.014 C 
HETATM    9  C13 UNL     1      20.954   0.592  50.140  1.00  0.00    -0.024 C 
HETATM   10  C14 UNL     1      21.297   0.171  51.537  1.00  0.00     0.020 C 
HETATM   11  C15 UNL     1      22.151   0.310  52.606  1.00  0.00    -0.001 C 
HETATM   12  C16 UNL     1      23.323   1.229  52.597  1.00  0.00     0.010 C 
HETATM   13  C17 UNL     1      24.655   0.693  52.896  1.00  0.00     0.043 C 
ENDROOT
BRANCH   1  14
HETATM   14  C5  UNL     1      26.898   1.368  53.350  1.00  0.00     0.178 C 
HETATM   15  O2  UNL     1      27.378   2.207  54.153  1.00  0.00    -0.288 OA
BRANCH  14  16
HETATM   16  C4  UNL     1      27.876   0.399  53.796  1.00  0.00     0.059 C 
HETATM   17  C3  UNL     1      28.089  -0.581  52.953  1.00  0.00     0.053 C 
BRANCH  17  18
HETATM   18  C2  UNL     1      29.077  -1.547  53.418  1.00  0.00     0.145 C 
HETATM   19  C1  UNL     1      30.407  -1.261  53.958  1.00  0.00     0.096 C 
HETATM   20  O1  UNL     1      28.646  -2.721  53.302  1.00  0.00    -0.294 OA
ENDBRANCH  17  18
ENDBRANCH  14  16
ENDBRANCH   1  14
TORSDOF 3
ENDMDL
MODEL 4
REMARK VINA RESULT:      -8.0      4.322      6.250
REMARK  3 active torsions:
REMARK  status: ('A' for Active; 'I' for Inactive)
REMARK    1  A    between atoms: C2_2  and  C3_4 
REMARK    2  A    between atoms: C4_5  and  C5_6 
REMARK    3  A    between atoms: C5_6  and  C6_8 
ROOT
HETATM    1  C6  UNL     1      25.271   2.680  50.831  1.00  0.00    -0.012 C 
HETATM    2  C7  UNL     1      24.004   2.729  50.461  1.00  0.00    -0.015 C 
HETATM    3  C8  UNL     1      22.972   1.866  51.196  1.00  0.00     0.001 C 
HETATM    4  C9  UNL     1      22.520   0.950  52.112  1.00  0.00     0.042 C 
HETATM    5  C10 UNL     1      22.333  -0.048  53.168  1.00  0.00     0.126 A 
HETATM    6  C11 UNL     1      23.141  -0.672  54.014  1.00  0.00     0.026 A 
HETATM    7 BR1  UNL     1      21.348  -1.357  54.375  1.00  0.00    -0.151 Br
HETATM    8  C12 UNL     1      24.172  -1.252  54.918  1.00  0.00    -0.014 C 
HETATM    9  C13 UNL     1      25.396  -0.712  55.024  1.00  0.00    -0.024 C 
HETATM   10  C14 UNL     1      26.487   0.273  54.733  1.00  0.00     0.020 C 
HETATM   11  C15 UNL     1      26.867   1.405  54.052  1.00  0.00    -0.001 C 
HETATM   12  C16 UNL     1      25.954   2.153  53.142  1.00  0.00     0.010 C 
HETATM   13  C17 UNL     1      26.368   2.402  51.757  1.00  0.00     0.043 C 
ENDROOT
BRANCH   1  14
HETATM   14  C5  UNL     1      25.766   3.630  49.804  1.00  0.00     0.178 C 
HETATM   15  O2  UNL     1      25.122   4.392  49.038  1.00  0.00    -0.288 OA
BRANCH  14  16
HETATM   16  C4  UNL     1      27.002   4.114  49.227  1.00  0.00     0.059 C 
HETATM   17  C3  UNL     1      26.954   5.355  48.811  1.00  0.00     0.053 C 
BRANCH  17  18
HETATM   18  C2  UNL     1      28.207   5.826  48.235  1.00  0.00     0.145 C 
HETATM   19  C1  UNL     1      28.469   7.136  47.637  1.00  0.00     0.096 C 
HETATM   20  O1  UNL     1      29.094   4.940  48.308  1.00  0.00    -0.294 OA
ENDBRANCH  17  18
ENDBRANCH  14  16
ENDBRANCH   1  14
TORSDOF 3
ENDMDL
MODEL 5
REMARK VINA RESULT:      -7.9      1.972      3.139
REMARK  3 active torsions:
REMARK  status: ('A' for Active; 'I' for Inactive)
REMARK    1  A    between atoms: C2_2  and  C3_4 
REMARK    2  A    between atoms: C4_5  and  C5_6 
REMARK    3  A    between atoms: C5_6  and  C6_8 
ROOT
HETATM    1  C6  UNL     1      24.701   1.046  53.455  1.00  0.00    -0.012 C 
HETATM    2  C7  UNL     1      24.354  -0.228  53.446  1.00  0.00    -0.015 C 
HETATM    3  C8  UNL     1      22.919  -0.615  53.070  1.00  0.00     0.001 C 
HETATM    4  C9  UNL     1      21.613  -0.406  52.706  1.00  0.00     0.042 C 
HETATM    5  C10 UNL     1      20.296   0.114  52.329  1.00  0.00     0.126 A 
HETATM    6  C11 UNL     1      19.790   1.326  52.149  1.00  0.00     0.026 A 
HETATM    7 BR1  UNL     1      18.328   0.074  51.814  1.00  0.00    -0.151 Br
HETATM    8  C12 UNL     1      19.389   2.746  51.949  1.00  0.00    -0.014 C 
HETATM    9  C13 UNL     1      20.301   3.725  51.851  1.00  0.00    -0.024 C 
HETATM   10  C14 UNL     1      21.679   4.313  51.812  1.00  0.00     0.020 C 
HETATM   11  C15 UNL     1      23.034   4.080  51.855  1.00  0.00    -0.001 C 
HETATM   12  C16 UNL     1      23.622   2.719  51.997  1.00  0.00     0.010 C 
HETATM   13  C17 UNL     1      24.563   2.456  53.091  1.00  0.00     0.043 C 
ENDROOT
BRANCH   1  14
HETATM   14  C5  UNL     1      26.098   0.820  53.902  1.00  0.00     0.178 C 
HETATM   15  O2  UNL     1      26.902   1.612  54.456  1.00  0.00    -0.288 OA
BRANCH  14  16
HETATM   16  C4  UNL     1      27.106  -0.217  53.947  1.00  0.00     0.059 C 
HETATM   17  C3  UNL     1      28.225   0.092  53.338  1.00  0.00     0.053 C 
BRANCH  17  18
HETATM   18  C2  UNL     1      29.229  -0.963  53.393  1.00  0.00     0.145 C 
HETATM   19  C1  UNL     1      29.018  -2.397  53.195  1.00  0.00     0.096 C 
HETATM   20  O1  UNL     1      30.365  -0.487  53.643  1.00  0.00    -0.294 OA
ENDBRANCH  17  18
ENDBRANCH  14  16
ENDBRANCH   1  14
TORSDOF 3
ENDMDL
MODEL 6
REMARK VINA RESULT:      -7.8      3.582      5.566
REMARK  3 active torsions:
REMARK  status: ('A' for Active; 'I' for Inactive)
REMARK    1  A    between atoms: C2_2  and  C3_4 
REMARK    2  A    between atoms: C4_5  and  C5_6 
REMARK    3  A    between atoms: C5_6  and  C6_8 
ROOT
HETATM    1  C6  UNL     1      25.537   2.085  51.677  1.00  0.00    -0.012 C 
HETATM    2  C7  UNL     1      24.321   1.938  52.172  1.00  0.00    -0.015 C 
HETATM    3  C8  UNL     1      23.295   3.063  51.990  1.00  0.00     0.001 C 
HETATM    4  C9  UNL     1      22.827   4.287  51.584  1.00  0.00     0.042 C 
HETATM    5  C10 UNL     1      22.613   5.632  51.045  1.00  0.00     0.126 A 
HETATM    6  C11 UNL     1      23.373   6.513  50.408  1.00  0.00     0.026 A 
HETATM    7 BR1  UNL     1      21.620   7.353  50.603  1.00  0.00    -0.151 Br
HETATM    8  C12 UNL     1      24.343   7.368  49.670  1.00  0.00    -0.014 C 
HETATM    9  C13 UNL     1      25.491   6.870  49.188  1.00  0.00    -0.024 C 
HETATM   10  C14 UNL     1      26.514   5.811  48.910  1.00  0.00     0.020 C 
HETATM   11  C15 UNL     1      26.864   4.487  49.029  1.00  0.00    -0.001 C 
HETATM   12  C16 UNL     1      25.996   3.471  49.690  1.00  0.00     0.010 C 
HETATM   13  C17 UNL     1      26.541   2.670  50.790  1.00  0.00     0.043 C 
ENDROOT
BRANCH   1  14
HETATM   14  C5  UNL     1      26.056   0.783  52.166  1.00  0.00     0.178 C 
HETATM   15  O2  UNL     1      25.448  -0.168  52.719  1.00  0.00    -0.288 OA
BRANCH  14  16
HETATM   16  C4  UNL     1      27.291   0.034  52.260  1.00  0.00     0.059 C 
HETATM   17  C3  UNL     1      27.339  -0.802  53.268  1.00  0.00     0.053 C 
BRANCH  17  18
HETATM   18  C2  UNL     1      28.588  -1.549  53.347  1.00  0.00     0.145 C 
HETATM   19  C1  UNL     1      29.926  -1.012  53.599  1.00  0.00     0.096 C 
HETATM   20  O1  UNL     1      28.388  -2.776  53.165  1.00  0.00    -0.294 OA
ENDBRANCH  17  18
ENDBRANCH  14  16
ENDBRANCH   1  14
TORSDOF 3
ENDMDL
MODEL 7
REMARK VINA RESULT:      -7.6      4.322      5.695
REMARK  3 active torsions:
REMARK  status: ('A' for Active; 'I' for Inactive)
REMARK    1  A    between atoms: C2_2  and  C3_4 
REMARK    2  A    between atoms: C4_5  and  C5_6 
REMARK    3  A    between atoms: C5_6  and  C6_8 
ROOT
HETATM    1  C6  UNL     1      24.193   3.214  50.214  1.00  0.00    -0.012 C 
HETATM    2  C7  UNL     1      25.075   2.836  51.122  1.00  0.00    -0.015 C 
HETATM    3  C8  UNL     1      24.665   1.811  52.186  1.00  0.00     0.001 C 
HETATM    4  C9  UNL     1      23.825   0.955  52.853  1.00  0.00     0.042 C 
HETATM    5  C10 UNL     1      22.721   0.138  53.361  1.00  0.00     0.126 A 
HETATM    6  C11 UNL     1      21.452  -0.033  53.015  1.00  0.00     0.026 A 
HETATM    7 BR1  UNL     1      21.749  -1.182  54.566  1.00  0.00    -0.151 Br
HETATM    8  C12 UNL     1      20.069  -0.139  52.476  1.00  0.00    -0.014 C 
HETATM    9  C13 UNL     1      19.750   0.341  51.264  1.00  0.00    -0.024 C 
HETATM   10  C14 UNL     1      20.002   1.010  49.947  1.00  0.00     0.020 C 
HETATM   11  C15 UNL     1      20.920   1.598  49.109  1.00  0.00    -0.001 C 
HETATM   12  C16 UNL     1      22.362   1.745  49.457  1.00  0.00     0.010 C 
HETATM   13  C17 UNL     1      22.976   3.076  49.415  1.00  0.00     0.043 C 
ENDROOT
BRANCH   1  14
HETATM   14  C5  UNL     1      25.087   4.180  49.528  1.00  0.00     0.178 C 
HETATM   15  O2  UNL     1      24.805   5.241  48.915  1.00  0.00    -0.288 OA
BRANCH  14  16
HETATM   16  C4  UNL     1      26.488   4.401  49.241  1.00  0.00     0.059 C 
HETATM   17  C3  UNL     1      26.747   5.548  48.664  1.00  0.00     0.053 C 
BRANCH  17  18
HETATM   18  C2  UNL     1      28.163   5.754  48.382  1.00  0.00     0.145 C 
HETATM   19  C1  UNL     1      28.845   7.030  48.166  1.00  0.00     0.096 C 
HETATM   20  O1  UNL     1      28.775   4.657  48.341  1.00  0.00    -0.294 OA
ENDBRANCH  17  18
ENDBRANCH  14  16
ENDBRANCH   1  14
TORSDOF 3
ENDMDL
MODEL 8
REMARK VINA RESULT:      -7.5      4.331      6.431
REMARK  3 active torsions:
REMARK  status: ('A' for Active; 'I' for Inactive)
REMARK    1  A    between atoms: C2_2  and  C3_4 
REMARK    2  A    between atoms: C4_5  and  C5_6 
REMARK    3  A    between atoms: C5_6  and  C6_8 
ROOT
HETATM    1  C6  UNL     1      25.393   2.846  50.607  1.00  0.00    -0.012 C 
HETATM    2  C7  UNL     1      24.115   2.592  50.391  1.00  0.00    -0.015 C 
HETATM    3  C8  UNL     1      23.295   3.550  49.519  1.00  0.00     0.001 C 
HETATM    4  C9  UNL     1      23.059   4.656  48.743  1.00  0.00     0.042 C 
HETATM    5  C10 UNL     1      23.100   5.902  47.973  1.00  0.00     0.126 A 
HETATM    6  C11 UNL     1      24.035   6.807  47.714  1.00  0.00     0.026 A 
HETATM    7 BR1  UNL     1      22.418   7.426  46.811  1.00  0.00    -0.151 Br
HETATM    8  C12 UNL     1      25.201   7.704  47.488  1.00  0.00    -0.014 C 
HETATM    9  C13 UNL     1      26.452   7.315  47.778  1.00  0.00    -0.024 C 
HETATM   10  C14 UNL     1      27.517   6.376  48.257  1.00  0.00     0.020 C 
HETATM   11  C15 UNL     1      27.818   5.127  48.746  1.00  0.00    -0.001 C 
HETATM   12  C16 UNL     1      26.788   4.077  48.988  1.00  0.00     0.010 C 
HETATM   13  C17 UNL     1      26.685   3.467  50.317  1.00  0.00     0.043 C 
ENDROOT
BRANCH   1  14
HETATM   14  C5  UNL     1      25.632   1.678  51.491  1.00  0.00     0.178 C 
HETATM   15  O2  UNL     1      24.815   0.997  52.162  1.00  0.00    -0.288 OA
BRANCH  14  16
HETATM   16  C4  UNL     1      26.709   0.841  51.976  1.00  0.00     0.059 C 
HETATM   17  C3  UNL     1      26.315  -0.286  52.516  1.00  0.00     0.053 C 
BRANCH  17  18
HETATM   18  C2  UNL     1      27.412  -1.117  52.997  1.00  0.00     0.145 C 
HETATM   19  C1  UNL     1      28.679  -0.663  53.571  1.00  0.00     0.096 C 
HETATM   20  O1  UNL     1      27.142  -2.336  52.862  1.00  0.00    -0.294 OA
ENDBRANCH  17  18
ENDBRANCH  14  16
ENDBRANCH   1  14
TORSDOF 3
ENDMDL
MODEL 9
REMARK VINA RESULT:      -7.4      3.819      6.564
REMARK  3 active torsions:
REMARK  status: ('A' for Active; 'I' for Inactive)
REMARK    1  A    between atoms: C2_2  and  C3_4 
REMARK    2  A    between atoms: C4_5  and  C5_6 
REMARK    3  A    between atoms: C5_6  and  C6_8 
ROOT
HETATM    1  C6  UNL     1      24.114   2.581  51.941  1.00  0.00    -0.012 C 
HETATM    2  C7  UNL     1      22.915   3.079  52.183  1.00  0.00    -0.015 C 
HETATM    3  C8  UNL     1      22.551   4.463  51.634  1.00  0.00     0.001 C 
HETATM    4  C9  UNL     1      22.751   5.648  50.972  1.00  0.00     0.042 C 
HETATM    5  C10 UNL     1      23.247   6.802  50.218  1.00  0.00     0.126 A 
HETATM    6  C11 UNL     1      24.400   7.112  49.640  1.00  0.00     0.026 A 
HETATM    7 BR1  UNL     1      23.219   8.638  49.342  1.00  0.00    -0.151 Br
HETATM    8  C12 UNL     1      25.739   7.288  49.013  1.00  0.00    -0.014 C 
HETATM    9  C13 UNL     1      26.582   6.256  48.859  1.00  0.00    -0.024 C 
HETATM   10  C14 UNL     1      27.032   4.830  48.953  1.00  0.00     0.020 C 
HETATM   11  C15 UNL     1      26.718   3.544  49.325  1.00  0.00    -0.001 C 
HETATM   12  C16 UNL     1      25.405   3.167  49.922  1.00  0.00     0.010 C 
HETATM   13  C17 UNL     1      25.379   2.473  51.214  1.00  0.00     0.043 C 
ENDROOT
BRANCH   1  14
HETATM   14  C5  UNL     1      23.913   1.324  52.704  1.00  0.00     0.178 C 
HETATM   15  O2  UNL     1      24.726   0.399  52.958  1.00  0.00    -0.288 OA
BRANCH  14  16
HETATM   16  C4  UNL     1      22.888   0.607  53.432  1.00  0.00     0.059 C 
HETATM   17  C3  UNL     1      23.266  -0.564  53.882  1.00  0.00     0.053 C 
BRANCH  17  18
HETATM   18  C2  UNL     1      22.222  -1.272  54.613  1.00  0.00     0.145 C 
HETATM   19  C1  UNL     1      20.831  -1.468  54.203  1.00  0.00     0.096 C 
HETATM   20  O1  UNL     1      22.664  -1.724  55.699  1.00  0.00    -0.294 OA
ENDBRANCH  17  18
ENDBRANCH  14  16
ENDBRANCH   1  14
TORSDOF 3
ENDMDL
