MODEL 1
REMARK VINA RESULT:      -7.4      0.000      0.000
REMARK  1 active torsions:
REMARK  status: ('A' for Active; 'I' for Inactive)
REMARK    1  A    between atoms: C2_2  and  C3_3 
ROOT
HETATM    1  C3  UNL     1      23.938   3.455  49.847  1.00  0.00     0.038 C 
HETATM    2 CL1  UNL     1      23.336   3.024  48.235  1.00  0.00    -0.084 Cl
HETATM    3  C4  UNL     1      23.565   2.783  50.953  1.00  0.00    -0.022 C 
HETATM    4  C5  UNL     1      22.605   1.649  50.685  1.00  0.00     0.074 C 
HETATM    5  C6  UNL     1      22.718   0.695  51.851  1.00  0.00     0.161 C 
HETATM    6  O1  UNL     1      21.572   0.778  52.649  1.00  0.00    -0.378 OA
HETATM    7  C7  UNL     1      21.690   0.288  53.917  1.00  0.00     0.203 C 
HETATM    8  C8  UNL     1      22.998  -0.375  54.215  1.00  0.00    -0.050 C 
HETATM    9  C9  UNL     1      22.959  -1.437  55.293  1.00  0.00     0.046 C 
HETATM   10  C10 UNL     1      24.202  -0.146  53.650  1.00  0.00    -0.004 C 
HETATM   11  C11 UNL     1      25.403  -0.880  54.041  1.00  0.00     0.128 C 
HETATM   12  N1  UNL     1      26.397  -0.635  53.237  1.00  0.00    -0.254 NA
HETATM   13  C12 UNL     1      26.211   0.276  52.165  1.00  0.00     0.227 C 
HETATM   14  N2  UNL     1      25.154   0.982  51.820  1.00  0.00    -0.264 NA
HETATM   15  C13 UNL     1      23.962   0.874  52.633  1.00  0.00     0.113 C 
HETATM   16  C14 UNL     1      23.870   2.278  53.296  1.00  0.00     0.083 C 
HETATM   17  C15 UNL     1      24.183   3.307  52.221  1.00  0.00     0.204 C 
HETATM   18  F1  UNL     1      23.582   4.489  52.597  1.00  0.00    -0.244 F 
ENDROOT
BRANCH   1  19
HETATM   19  C2  UNL     1      24.861   4.585  49.893  1.00  0.00     0.014 C 
HETATM   20  C1  UNL     1      26.004   4.598  49.237  1.00  0.00     0.013 C 
ENDBRANCH   1  19
TORSDOF 1
ENDMDL
MODEL 2
REMARK VINA RESULT:      -7.0      2.787      5.861
REMARK  1 active torsions:
REMARK  status: ('A' for Active; 'I' for Inactive)
REMARK    1  A    between atoms: C2_2  and  C3_3 
ROOT
HETATM    1  C3  UNL     1      25.472   0.950  52.436  1.00  0.00     0.038 C 
HETATM    2 CL1  UNL     1      26.769  -0.153  51.940  1.00  0.00    -0.084 Cl
HETATM    3  C4  UNL     1      25.280   2.142  51.839  1.00  0.00    -0.022 C 
HETATM    4  C5  UNL     1      26.260   2.436  50.729  1.00  0.00     0.074 C 
HETATM    5  C6  UNL     1      25.613   3.469  49.836  1.00  0.00     0.161 C 
HETATM    6  O1  UNL     1      26.243   4.707  50.005  1.00  0.00    -0.378 OA
HETATM    7  C7  UNL     1      25.540   5.797  49.582  1.00  0.00     0.203 C 
HETATM    8  C8  UNL     1      24.252   5.484  48.888  1.00  0.00    -0.050 C 
HETATM    9  C9  UNL     1      23.782   6.520  47.889  1.00  0.00     0.046 C 
HETATM   10  C10 UNL     1      23.459   4.404  49.041  1.00  0.00    -0.004 C 
HETATM   11  C11 UNL     1      22.221   4.227  48.286  1.00  0.00     0.128 C 
HETATM   12  N1  UNL     1      21.725   3.034  48.450  1.00  0.00    -0.254 NA
HETATM   13  C12 UNL     1      22.392   2.120  49.307  1.00  0.00     0.227 C 
HETATM   14  N2  UNL     1      23.481   2.271  50.032  1.00  0.00    -0.264 NA
HETATM   15  C13 UNL     1      24.146   3.556  50.013  1.00  0.00     0.113 C 
HETATM   16  C14 UNL     1      23.903   4.090  51.453  1.00  0.00     0.083 C 
HETATM   17  C15 UNL     1      24.132   2.930  52.409  1.00  0.00     0.204 C 
HETATM   18  F1  UNL     1      24.475   3.467  53.632  1.00  0.00    -0.244 F 
ENDROOT
BRANCH   1  19
HETATM   19  C2  UNL     1      24.630   0.480  53.532  1.00  0.00     0.014 C 
HETATM   20  C1  UNL     1      23.825  -0.556  53.417  1.00  0.00     0.013 C 
ENDBRANCH   1  19
TORSDOF 1
ENDMDL
MODEL 3
REMARK VINA RESULT:      -6.8      2.989      4.599
REMARK  1 active torsions:
REMARK  status: ('A' for Active; 'I' for Inactive)
REMARK    1  A    between atoms: C2_2  and  C3_3 
ROOT
HETATM    1  C3  UNL     1      26.772   0.939  53.635  1.00  0.00     0.038 C 
HETATM    2 CL1  UNL     1      26.920   0.178  55.230  1.00  0.00    -0.084 Cl
HETATM    3  C4  UNL     1      25.607   0.963  52.960  1.00  0.00    -0.022 C 
HETATM    4  C5  UNL     1      24.465   0.293  53.686  1.00  0.00     0.074 C 
HETATM    5  C6  UNL     1      23.188   0.863  53.113  1.00  0.00     0.161 C 
HETATM    6  O1  UNL     1      22.551  -0.097  52.318  1.00  0.00    -0.378 OA
HETATM    7  C7  UNL     1      21.624   0.377  51.436  1.00  0.00     0.203 C 
HETATM    8  C8  UNL     1      21.345   1.843  51.546  1.00  0.00    -0.050 C 
HETATM    9  C9  UNL     1      19.967   2.279  51.094  1.00  0.00     0.046 C 
HETATM   10  C10 UNL     1      22.161   2.821  51.991  1.00  0.00    -0.004 C 
HETATM   11  C11 UNL     1      21.748   4.221  52.047  1.00  0.00     0.128 C 
HETATM   12  N1  UNL     1      22.617   4.951  52.686  1.00  0.00    -0.254 NA
HETATM   13  C12 UNL     1      23.793   4.341  53.193  1.00  0.00     0.227 C 
HETATM   14  N2  UNL     1      24.208   3.094  53.116  1.00  0.00    -0.264 NA
HETATM   15  C13 UNL     1      23.390   2.142  52.396  1.00  0.00     0.113 C 
HETATM   16  C14 UNL     1      24.258   1.818  51.146  1.00  0.00     0.083 C 
HETATM   17  C15 UNL     1      25.691   1.650  51.624  1.00  0.00     0.204 C 
HETATM   18  F1  UNL     1      26.338   0.847  50.709  1.00  0.00    -0.244 F 
ENDROOT
BRANCH   1  19
HETATM   19  C2  UNL     1      27.995   1.533  53.105  1.00  0.00     0.014 C 
HETATM   20  C1  UNL     1      28.671   2.463  53.748  1.00  0.00     0.013 C 
ENDBRANCH   1  19
TORSDOF 1
ENDMDL
MODEL 4
REMARK VINA RESULT:      -6.7      1.711      2.145
REMARK  1 active torsions:
REMARK  status: ('A' for Active; 'I' for Inactive)
REMARK    1  A    between atoms: C2_2  and  C3_3 
ROOT
HETATM    1  C3  UNL     1      23.063   4.927  49.455  1.00  0.00     0.038 C 
HETATM    2 CL1  UNL     1      22.534   4.494  47.818  1.00  0.00    -0.084 Cl
HETATM    3  C4  UNL     1      23.138   4.019  50.446  1.00  0.00    -0.022 C 
HETATM    4  C5  UNL     1      22.738   2.624  50.029  1.00  0.00     0.074 C 
HETATM    5  C6  UNL     1      23.377   1.672  51.013  1.00  0.00     0.161 C 
HETATM    6  O1  UNL     1      22.401   1.131  51.858  1.00  0.00    -0.378 OA
HETATM    7  C7  UNL     1      22.856   0.581  53.020  1.00  0.00     0.203 C 
HETATM    8  C8  UNL     1      24.346   0.532  53.152  1.00  0.00    -0.050 C 
HETATM    9  C9  UNL     1      24.886  -0.571  54.038  1.00  0.00     0.046 C 
HETATM   10  C10 UNL     1      25.264   1.343  52.587  1.00  0.00    -0.004 C 
HETATM   11  C11 UNL     1      26.699   1.173  52.803  1.00  0.00     0.128 C 
HETATM   12  N1  UNL     1      27.396   1.938  52.014  1.00  0.00    -0.254 NA
HETATM   13  C12 UNL     1      26.721   2.806  51.118  1.00  0.00     0.227 C 
HETATM   14  N2  UNL     1      25.432   3.011  50.937  1.00  0.00    -0.264 NA
HETATM   15  C13 UNL     1      24.499   2.278  51.766  1.00  0.00     0.113 C 
HETATM   16  C14 UNL     1      23.882   3.393  52.658  1.00  0.00     0.083 C 
HETATM   17  C15 UNL     1      23.603   4.587  51.760  1.00  0.00     0.204 C 
HETATM   18  F1  UNL     1      22.595   5.319  52.351  1.00  0.00    -0.244 F 
ENDROOT
BRANCH   1  19
HETATM   19  C2  UNL     1      23.407   6.332  49.654  1.00  0.00     0.014 C 
HETATM   20  C1  UNL     1      22.531   7.306  49.518  1.00  0.00     0.013 C 
ENDBRANCH   1  19
TORSDOF 1
ENDMDL
MODEL 5
REMARK VINA RESULT:      -6.6      3.096      5.814
REMARK  1 active torsions:
REMARK  status: ('A' for Active; 'I' for Inactive)
REMARK    1  A    between atoms: C2_2  and  C3_3 
ROOT
HETATM    1  C3  UNL     1      23.001  -0.134  53.241  1.00  0.00     0.038 C 
HETATM    2 CL1  UNL     1      24.737  -0.458  53.406  1.00  0.00    -0.084 Cl
HETATM    3  C4  UNL     1      22.532   1.061  52.835  1.00  0.00    -0.022 C 
HETATM    4  C5  UNL     1      23.612   2.074  52.540  1.00  0.00     0.074 C 
HETATM    5  C6  UNL     1      23.007   3.101  51.611  1.00  0.00     0.161 C 
HETATM    6  O1  UNL     1      22.802   4.303  52.298  1.00  0.00    -0.378 OA
HETATM    7  C7  UNL     1      21.922   5.175  51.726  1.00  0.00     0.203 C 
HETATM    8  C8  UNL     1      21.406   4.758  50.384  1.00  0.00    -0.050 C 
HETATM    9  C9  UNL     1      20.979   5.887  49.470  1.00  0.00     0.046 C 
HETATM   10  C10 UNL     1      21.270   3.509  49.890  1.00  0.00    -0.004 C 
HETATM   11  C11 UNL     1      20.752   3.250  48.549  1.00  0.00     0.128 C 
HETATM   12  N1  UNL     1      20.890   1.999  48.216  1.00  0.00    -0.254 NA
HETATM   13  C12 UNL     1      21.468   1.096  49.145  1.00  0.00     0.227 C 
HETATM   14  N2  UNL     1      21.900   1.295  50.373  1.00  0.00    -0.264 NA
HETATM   15  C13 UNL     1      21.780   2.624  50.934  1.00  0.00     0.113 C 
HETATM   16  C14 UNL     1      20.707   2.433  52.044  1.00  0.00     0.083 C 
HETATM   17  C15 UNL     1      21.031   1.135  52.766  1.00  0.00     0.204 C 
HETATM   18  F1  UNL     1      20.493   1.225  54.032  1.00  0.00    -0.244 F 
ENDROOT
BRANCH   1  19
HETATM   19  C2  UNL     1      22.118  -1.247  53.576  1.00  0.00     0.014 C 
HETATM   20  C1  UNL     1      21.981  -1.702  54.805  1.00  0.00     0.013 C 
ENDBRANCH   1  19
TORSDOF 1
ENDMDL
MODEL 6
REMARK VINA RESULT:      -6.6      3.089      4.373
REMARK  1 active torsions:
REMARK  status: ('A' for Active; 'I' for Inactive)
REMARK    1  A    between atoms: C2_2  and  C3_3 
ROOT
HETATM    1  C3  UNL     1      19.523   2.355  50.910  1.00  0.00     0.038 C 
HETATM    2 CL1  UNL     1      19.019   3.993  51.363  1.00  0.00    -0.084 Cl
HETATM    3  C4  UNL     1      20.734   1.863  51.236  1.00  0.00    -0.022 C 
HETATM    4  C5  UNL     1      21.598   2.828  52.012  1.00  0.00     0.074 C 
HETATM    5  C6  UNL     1      22.622   2.001  52.754  1.00  0.00     0.161 C 
HETATM    6  O1  UNL     1      23.882   2.165  52.168  1.00  0.00    -0.378 OA
HETATM    7  C7  UNL     1      24.807   1.206  52.463  1.00  0.00     0.203 C 
HETATM    8  C8  UNL     1      24.361   0.191  53.469  1.00  0.00    -0.050 C 
HETATM    9  C9  UNL     1      25.468  -0.458  54.274  1.00  0.00     0.046 C 
HETATM   10  C10 UNL     1      23.106  -0.218  53.747  1.00  0.00    -0.004 C 
HETATM   11  C11 UNL     1      22.817  -1.222  54.768  1.00  0.00     0.128 C 
HETATM   12  N1  UNL     1      21.540  -1.318  54.998  1.00  0.00    -0.254 NA
HETATM   13  C12 UNL     1      20.641  -0.506  54.258  1.00  0.00     0.227 C 
HETATM   14  N2  UNL     1      20.873   0.371  53.303  1.00  0.00    -0.264 NA
HETATM   15  C13 UNL     1      22.241   0.576  52.878  1.00  0.00     0.113 C 
HETATM   16  C14 UNL     1      22.245  -0.012  51.438  1.00  0.00     0.083 C 
HETATM   17  C15 UNL     1      20.970   0.457  50.755  1.00  0.00     0.204 C 
HETATM   18  F1  UNL     1      21.203   0.445  49.397  1.00  0.00    -0.244 F 
ENDROOT
BRANCH   1  19
HETATM   19  C2  UNL     1      18.540   1.578  50.161  1.00  0.00     0.014 C 
HETATM   20  C1  UNL     1      17.681   2.131  49.329  1.00  0.00     0.013 C 
ENDBRANCH   1  19
TORSDOF 1
ENDMDL
MODEL 7
REMARK VINA RESULT:      -6.5      9.276     11.109
REMARK  1 active torsions:
REMARK  status: ('A' for Active; 'I' for Inactive)
REMARK    1  A    between atoms: C2_2  and  C3_3 
ROOT
HETATM    1  C3  UNL     1      29.386   7.381  48.499  1.00  0.00     0.038 C 
HETATM    2 CL1  UNL     1      27.770   6.668  48.336  1.00  0.00    -0.084 Cl
HETATM    3  C4  UNL     1      30.508   6.664  48.294  1.00  0.00    -0.022 C 
HETATM    4  C5  UNL     1      30.253   5.224  47.919  1.00  0.00     0.074 C 
HETATM    5  C6  UNL     1      31.493   4.731  47.209  1.00  0.00     0.161 C 
HETATM    6  O1  UNL     1      32.193   3.842  48.033  1.00  0.00    -0.378 OA
HETATM    7  C7  UNL     1      33.500   3.627  47.704  1.00  0.00     0.203 C 
HETATM    8  C8  UNL     1      33.945   4.284  46.436  1.00  0.00    -0.050 C 
HETATM    9  C9  UNL     1      35.094   3.606  45.720  1.00  0.00     0.046 C 
HETATM   10  C10 UNL     1      33.458   5.400  45.854  1.00  0.00    -0.004 C 
HETATM   11  C11 UNL     1      33.993   5.927  44.601  1.00  0.00     0.128 C 
HETATM   12  N1  UNL     1      33.251   6.888  44.130  1.00  0.00    -0.254 NA
HETATM   13  C12 UNL     1      32.102   7.294  44.858  1.00  0.00     0.227 C 
HETATM   14  N2  UNL     1      31.626   6.866  46.008  1.00  0.00    -0.264 NA
HETATM   15  C13 UNL     1      32.351   5.827  46.707  1.00  0.00     0.113 C 
HETATM   16  C14 UNL     1      32.899   6.571  47.958  1.00  0.00     0.083 C 
HETATM   17  C15 UNL     1      31.776   7.449  48.487  1.00  0.00     0.204 C 
HETATM   18  F1  UNL     1      32.015   7.657  49.829  1.00  0.00    -0.244 F 
ENDROOT
BRANCH   1  19
HETATM   19  C2  UNL     1      29.417   8.792  48.869  1.00  0.00     0.014 C 
HETATM   20  C1  UNL     1      28.474   9.358  49.594  1.00  0.00     0.013 C 
ENDBRANCH   1  19
TORSDOF 1
ENDMDL
MODEL 8
REMARK VINA RESULT:      -6.5      2.650      3.629
REMARK  1 active torsions:
REMARK  status: ('A' for Active; 'I' for Inactive)
REMARK    1  A    between atoms: C2_2  and  C3_3 
ROOT
HETATM    1  C3  UNL     1      23.406   5.374  50.305  1.00  0.00     0.038 C 
HETATM    2 CL1  UNL     1      23.856   6.822  51.226  1.00  0.00    -0.084 Cl
HETATM    3  C4  UNL     1      23.531   4.134  50.816  1.00  0.00    -0.022 C 
HETATM    4  C5  UNL     1      24.079   4.104  52.222  1.00  0.00     0.074 C 
HETATM    5  C6  UNL     1      23.652   2.789  52.831  1.00  0.00     0.161 C 
HETATM    6  O1  UNL     1      24.756   1.936  52.946  1.00  0.00    -0.378 OA
HETATM    7  C7  UNL     1      24.472   0.610  53.101  1.00  0.00     0.203 C 
HETATM    8  C8  UNL     1      23.017   0.291  53.246  1.00  0.00    -0.050 C 
HETATM    9  C9  UNL     1      22.701  -0.971  54.020  1.00  0.00     0.046 C 
HETATM   10  C10 UNL     1      21.957   0.981  52.775  1.00  0.00    -0.004 C 
HETATM   11  C11 UNL     1      20.579   0.550  53.000  1.00  0.00     0.128 C 
HETATM   12  N1  UNL     1      19.726   1.460  52.628  1.00  0.00    -0.254 NA
HETATM   13  C12 UNL     1      20.207   2.669  52.064  1.00  0.00     0.227 C 
HETATM   14  N2  UNL     1      21.438   3.062  51.810  1.00  0.00    -0.264 NA
HETATM   15  C13 UNL     1      22.523   2.154  52.114  1.00  0.00     0.113 C 
HETATM   16  C14 UNL     1      23.054   1.768  50.704  1.00  0.00     0.083 C 
HETATM   17  C15 UNL     1      23.100   3.042  49.875  1.00  0.00     0.204 C 
HETATM   18  F1  UNL     1      24.045   2.855  48.888  1.00  0.00    -0.244 F 
ENDROOT
BRANCH   1  19
HETATM   19  C2  UNL     1      22.894   5.618  48.960  1.00  0.00     0.014 C 
HETATM   20  C1  UNL     1      23.580   6.272  48.045  1.00  0.00     0.013 C 
ENDBRANCH   1  19
TORSDOF 1
ENDMDL
MODEL 9
REMARK VINA RESULT:      -6.5      3.089      5.816
REMARK  1 active torsions:
REMARK  status: ('A' for Active; 'I' for Inactive)
REMARK    1  A    between atoms: C2_2  and  C3_3 
ROOT
HETATM    1  C3  UNL     1      21.714  -0.069  53.075  1.00  0.00     0.038 C 
HETATM    2 CL1  UNL     1      20.143  -0.885  53.185  1.00  0.00    -0.084 Cl
HETATM    3  C4  UNL     1      22.093   0.607  51.973  1.00  0.00    -0.022 C 
HETATM    4  C5  UNL     1      21.065   0.600  50.868  1.00  0.00     0.074 C 
HETATM    5  C6  UNL     1      21.362   1.790  49.986  1.00  0.00     0.161 C 
HETATM    6  O1  UNL     1      21.903   1.360  48.769  1.00  0.00    -0.378 OA
HETATM    7  C7  UNL     1      22.575   2.303  48.047  1.00  0.00     0.203 C 
HETATM    8  C8  UNL     1      22.522   3.686  48.616  1.00  0.00    -0.050 C 
HETATM    9  C9  UNL     1      22.667   4.810  47.612  1.00  0.00     0.046 C 
HETATM   10  C10 UNL     1      22.364   4.057  49.904  1.00  0.00    -0.004 C 
HETATM   11  C11 UNL     1      22.326   5.458  50.317  1.00  0.00     0.128 C 
HETATM   12  N1  UNL     1      21.973   5.580  51.564  1.00  0.00    -0.254 NA
HETATM   13  C12 UNL     1      21.712   4.412  52.327  1.00  0.00     0.227 C 
HETATM   14  N2  UNL     1      21.783   3.141  51.991  1.00  0.00    -0.264 NA
HETATM   15  C13 UNL     1      22.208   2.809  50.648  1.00  0.00     0.113 C 
HETATM   16  C14 UNL     1      23.598   2.149  50.880  1.00  0.00     0.083 C 
HETATM   17  C15 UNL     1      23.462   1.222  52.077  1.00  0.00     0.204 C 
HETATM   18  F1  UNL     1      24.436   0.253  51.959  1.00  0.00    -0.244 F 
ENDROOT
BRANCH   1  19
HETATM   19  C2  UNL     1      22.566  -0.182  54.255  1.00  0.00     0.014 C 
HETATM   20  C1  UNL     1      22.611  -1.267  54.999  1.00  0.00     0.013 C 
ENDBRANCH   1  19
TORSDOF 1
ENDMDL
