MODEL 1
REMARK VINA RESULT:      -8.6      0.000      0.000
REMARK  7 active torsions:
REMARK  status: ('A' for Active; 'I' for Inactive)
REMARK    1  A    between atoms: C6_6  and  O1_7 
REMARK    2  A    between atoms: C7_8  and  C8_9 
REMARK    3  A    between atoms: C8_9  and  N1_10 
REMARK    4  A    between atoms: N1_10  and  C9_11 
REMARK       I    between atoms: N1_10  and  C16_19 
REMARK    5  A    between atoms: C9_11  and  C10_12 
REMARK    6  A    between atoms: C13_15  and  O2_16 
REMARK       I    between atoms: C16_19  and  N2_21 
REMARK    7  A    between atoms: N2_21  and  C17_22 
ROOT
HETATM    1  N1  UNL     1      24.625   2.508  51.797  1.00  0.00    -0.325 N 
HETATM    2  C16 UNL     1      25.877   1.793  51.835  1.00  0.00     0.323 C 
HETATM    3  O3  UNL     1      26.734   1.608  50.905  1.00  0.00    -0.247 OA
HETATM    4  N2  UNL     1      26.309   1.167  53.032  1.00  0.00    -0.309 N 
HETATM    5  H18 UNL     1      25.758   1.195  53.918  1.00  0.00     0.170 HD
ENDROOT
BRANCH   1   6
HETATM    6  C8  UNL     1      23.751   2.645  52.911  1.00  0.00     0.169 C 
BRANCH   6   7
HETATM    7  C7  UNL     1      22.637   1.672  52.927  1.00  0.00    -0.006 A 
HETATM    8  C6  UNL     1      22.674   0.387  53.435  1.00  0.00     0.079 A 
HETATM    9  C4  UNL     1      21.548  -0.409  53.379  1.00  0.00    -0.028 A 
HETATM   10  C3  UNL     1      20.398   0.118  52.806  1.00  0.00     0.016 A 
HETATM   11  C5  UNL     1      21.625  -1.784  53.934  1.00  0.00     0.051 C 
HETATM   12  C2  UNL     1      20.326   1.397  52.290  1.00  0.00    -0.061 A 
HETATM   13  C1  UNL     1      19.074   1.925  51.683  1.00  0.00     0.048 C 
HETATM   14  C23 UNL     1      21.464   2.176  52.356  1.00  0.00     0.018 A 
BRANCH   8  15
HETATM   15  O1  UNL     1      23.896  -0.020  53.985  1.00  0.00    -0.360 OA
HETATM   16  H8  UNL     1      24.225   0.479  54.813  1.00  0.00     0.217 HD
ENDBRANCH   8  15
ENDBRANCH   6   7
ENDBRANCH   1   6
BRANCH   1  17
HETATM   17  C9  UNL     1      24.232   3.130  50.535  1.00  0.00     0.166 C 
BRANCH  17  18
HETATM   18  C10 UNL     1      24.566   4.586  50.529  1.00  0.00    -0.040 A 
HETATM   19  C11 UNL     1      25.631   5.034  49.777  1.00  0.00     0.011 A 
HETATM   20  C12 UNL     1      26.017   6.356  49.707  1.00  0.00     0.037 A 
HETATM   21  C13 UNL     1      25.313   7.307  50.421  1.00  0.00     0.065 A 
HETATM   22  C14 UNL     1      24.239   6.885  51.186  1.00  0.00     0.037 A 
HETATM   23  C15 UNL     1      23.880   5.555  51.233  1.00  0.00     0.011 A 
BRANCH  21  24
HETATM   24  O2  UNL     1      25.648   8.652  50.396  1.00  0.00    -0.361 OA
HETATM   25  H15 UNL     1      25.224   9.323  49.767  1.00  0.00     0.217 HD
ENDBRANCH  21  24
ENDBRANCH  17  18
ENDBRANCH   1  17
BRANCH   4  26
HETATM   26  C17 UNL     1      27.521   0.437  53.189  1.00  0.00     0.036 A 
HETATM   27  C18 UNL     1      27.418  -0.921  52.987  1.00  0.00     0.029 A 
HETATM   28  C19 UNL     1      28.559  -1.716  53.119  1.00  0.00     0.002 A 
HETATM   29  C20 UNL     1      29.765  -1.131  53.450  1.00  0.00     0.000 A 
HETATM   30  C21 UNL     1      29.853   0.241  53.652  1.00  0.00     0.002 A 
HETATM   31  C22 UNL     1      28.731   1.053  53.525  1.00  0.00     0.029 A 
ENDBRANCH   4  26
TORSDOF 7
ENDMDL
MODEL 2
REMARK VINA RESULT:      -8.6      1.717      5.821
REMARK  7 active torsions:
REMARK  status: ('A' for Active; 'I' for Inactive)
REMARK    1  A    between atoms: C6_6  and  O1_7 
REMARK    2  A    between atoms: C7_8  and  C8_9 
REMARK    3  A    between atoms: C8_9  and  N1_10 
REMARK    4  A    between atoms: N1_10  and  C9_11 
REMARK       I    between atoms: N1_10  and  C16_19 
REMARK    5  A    between atoms: C9_11  and  C10_12 
REMARK    6  A    between atoms: C13_15  and  O2_16 
REMARK       I    between atoms: C16_19  and  N2_21 
REMARK    7  A    between atoms: N2_21  and  C17_22 
ROOT
HETATM    1  N1  UNL     1      24.082   1.672  52.152  1.00  0.00    -0.325 N 
HETATM    2  C16 UNL     1      25.248   1.177  52.842  1.00  0.00     0.323 C 
HETATM    3  O3  UNL     1      25.481   1.114  54.097  1.00  0.00    -0.247 OA
HETATM    4  N2  UNL     1      26.350   0.665  52.111  1.00  0.00    -0.309 N 
HETATM    5  H18 UNL     1      26.368   0.622  51.069  1.00  0.00     0.170 HD
ENDROOT
BRANCH   1   6
HETATM    6  C8  UNL     1      23.940   1.688  50.736  1.00  0.00     0.169 C 
BRANCH   6   7
HETATM    7  C7  UNL     1      24.244   2.995  50.114  1.00  0.00    -0.006 A 
HETATM    8  C6  UNL     1      25.496   3.472  49.774  1.00  0.00     0.079 A 
HETATM    9  C4  UNL     1      25.624   4.719  49.195  1.00  0.00    -0.028 A 
HETATM   10  C3  UNL     1      24.472   5.462  48.971  1.00  0.00     0.016 A 
HETATM   11  C5  UNL     1      26.984   5.200  48.843  1.00  0.00     0.051 C 
HETATM   12  C2  UNL     1      23.207   5.015  49.298  1.00  0.00    -0.061 A 
HETATM   13  C1  UNL     1      21.996   5.842  49.042  1.00  0.00     0.048 C 
HETATM   14  C23 UNL     1      23.101   3.766  49.876  1.00  0.00     0.018 A 
BRANCH   8  15
HETATM   15  O1  UNL     1      26.574   2.623  50.054  1.00  0.00    -0.360 OA
HETATM   16  H8  UNL     1      26.862   2.540  51.030  1.00  0.00     0.217 HD
ENDBRANCH   8  15
ENDBRANCH   6   7
ENDBRANCH   1   6
BRANCH   1  17
HETATM   17  C9  UNL     1      22.979   2.190  52.959  1.00  0.00     0.166 C 
BRANCH  17  18
HETATM   18  C10 UNL     1      21.962   1.128  53.218  1.00  0.00    -0.040 A 
HETATM   19  C11 UNL     1      20.750   1.176  52.561  1.00  0.00     0.011 A 
HETATM   20  C12 UNL     1      19.748   0.244  52.733  1.00  0.00     0.037 A 
HETATM   21  C13 UNL     1      19.944  -0.809  53.606  1.00  0.00     0.065 A 
HETATM   22  C14 UNL     1      21.151  -0.883  54.279  1.00  0.00     0.037 A 
HETATM   23  C15 UNL     1      22.132   0.067  54.084  1.00  0.00     0.011 A 
BRANCH  21  24
HETATM   24  O2  UNL     1      18.979  -1.780  53.826  1.00  0.00    -0.361 OA
HETATM   25  H15 UNL     1      18.059  -1.762  53.403  1.00  0.00     0.217 HD
ENDBRANCH  21  24
ENDBRANCH  17  18
ENDBRANCH   1  17
BRANCH   4  26
HETATM   26  C17 UNL     1      27.549   0.151  52.681  1.00  0.00     0.036 A 
HETATM   27  C18 UNL     1      27.630  -1.222  52.737  1.00  0.00     0.029 A 
HETATM   28  C19 UNL     1      28.773  -1.813  53.281  1.00  0.00     0.002 A 
HETATM   29  C20 UNL     1      29.797  -1.016  53.752  1.00  0.00     0.000 A 
HETATM   30  C21 UNL     1      29.699   0.369  53.689  1.00  0.00     0.002 A 
HETATM   31  C22 UNL     1      28.572   0.980  53.151  1.00  0.00     0.029 A 
ENDBRANCH   4  26
TORSDOF 7
ENDMDL
MODEL 3
REMARK VINA RESULT:      -8.6      2.007      5.645
REMARK  7 active torsions:
REMARK  status: ('A' for Active; 'I' for Inactive)
REMARK    1  A    between atoms: C6_6  and  O1_7 
REMARK    2  A    between atoms: C7_8  and  C8_9 
REMARK    3  A    between atoms: C8_9  and  N1_10 
REMARK    4  A    between atoms: N1_10  and  C9_11 
REMARK       I    between atoms: N1_10  and  C16_19 
REMARK    5  A    between atoms: C9_11  and  C10_12 
REMARK    6  A    between atoms: C13_15  and  O2_16 
REMARK       I    between atoms: C16_19  and  N2_21 
REMARK    7  A    between atoms: N2_21  and  C17_22 
ROOT
HETATM    1  N1  UNL     1      24.500   3.230  51.611  1.00  0.00    -0.325 N 
HETATM    2  C16 UNL     1      25.440   2.507  52.434  1.00  0.00     0.323 C 
HETATM    3  O3  UNL     1      25.568   2.503  53.705  1.00  0.00    -0.247 OA
HETATM    4  N2  UNL     1      26.402   1.651  51.840  1.00  0.00    -0.309 N 
HETATM    5  H18 UNL     1      26.473   1.506  50.809  1.00  0.00     0.170 HD
ENDROOT
BRANCH   1   6
HETATM    6  C8  UNL     1      24.457   3.150  50.192  1.00  0.00     0.169 C 
BRANCH   6   7
HETATM    7  C7  UNL     1      24.963   4.357  49.503  1.00  0.00    -0.006 A 
HETATM    8  C6  UNL     1      26.287   4.702  49.315  1.00  0.00     0.079 A 
HETATM    9  C4  UNL     1      26.608   5.868  48.649  1.00  0.00    -0.028 A 
HETATM   10  C3  UNL     1      25.571   6.665  48.182  1.00  0.00     0.016 A 
HETATM   11  C5  UNL     1      28.042   6.208  48.465  1.00  0.00     0.051 C 
HETATM   12  C2  UNL     1      24.237   6.349  48.352  1.00  0.00    -0.061 A 
HETATM   13  C1  UNL     1      23.154   7.231  47.837  1.00  0.00     0.048 C 
HETATM   14  C23 UNL     1      23.939   5.180  49.022  1.00  0.00     0.018 A 
BRANCH   8  15
HETATM   15  O1  UNL     1      27.234   3.810  49.835  1.00  0.00    -0.360 OA
HETATM   16  H8  UNL     1      28.062   4.213  50.278  1.00  0.00     0.217 HD
ENDBRANCH   8  15
ENDBRANCH   6   7
ENDBRANCH   1   6
BRANCH   1  17
HETATM   17  C9  UNL     1      23.534   4.098  52.281  1.00  0.00     0.166 C 
BRANCH  17  18
HETATM   18  C10 UNL     1      22.146   3.568  52.133  1.00  0.00    -0.040 A 
HETATM   19  C11 UNL     1      21.165   4.376  51.597  1.00  0.00     0.011 A 
HETATM   20  C12 UNL     1      19.857   3.978  51.421  1.00  0.00     0.037 A 
HETATM   21  C13 UNL     1      19.480   2.702  51.794  1.00  0.00     0.065 A 
HETATM   22  C14 UNL     1      20.444   1.868  52.334  1.00  0.00     0.037 A 
HETATM   23  C15 UNL     1      21.744   2.298  52.497  1.00  0.00     0.011 A 
BRANCH  21  24
HETATM   24  O2  UNL     1      18.182   2.237  51.644  1.00  0.00    -0.361 OA
HETATM   25  H15 UNL     1      17.464   2.344  52.350  1.00  0.00     0.217 HD
ENDBRANCH  21  24
ENDBRANCH  17  18
ENDBRANCH   1  17
BRANCH   4  26
HETATM   26  C17 UNL     1      27.375   0.890  52.546  1.00  0.00     0.036 A 
HETATM   27  C18 UNL     1      27.177  -0.472  52.535  1.00  0.00     0.029 A 
HETATM   28  C19 UNL     1      28.085  -1.296  53.203  1.00  0.00     0.002 A 
HETATM   29  C20 UNL     1      29.161  -0.736  53.863  1.00  0.00     0.000 A 
HETATM   30  C21 UNL     1      29.346   0.641  53.866  1.00  0.00     0.002 A 
HETATM   31  C22 UNL     1      28.456   1.482  53.207  1.00  0.00     0.029 A 
ENDBRANCH   4  26
TORSDOF 7
ENDMDL
MODEL 4
REMARK VINA RESULT:      -8.4      1.507      2.402
REMARK  7 active torsions:
REMARK  status: ('A' for Active; 'I' for Inactive)
REMARK    1  A    between atoms: C6_6  and  O1_7 
REMARK    2  A    between atoms: C7_8  and  C8_9 
REMARK    3  A    between atoms: C8_9  and  N1_10 
REMARK    4  A    between atoms: N1_10  and  C9_11 
REMARK       I    between atoms: N1_10  and  C16_19 
REMARK    5  A    between atoms: C9_11  and  C10_12 
REMARK    6  A    between atoms: C13_15  and  O2_16 
REMARK       I    between atoms: C16_19  and  N2_21 
REMARK    7  A    between atoms: N2_21  and  C17_22 
ROOT
HETATM    1  N1  UNL     1      24.866   3.394  51.347  1.00  0.00    -0.325 N 
HETATM    2  C16 UNL     1      26.004   2.522  51.509  1.00  0.00     0.323 C 
HETATM    3  O3  UNL     1      26.853   2.128  50.638  1.00  0.00    -0.247 OA
HETATM    4  N2  UNL     1      26.311   1.972  52.779  1.00  0.00    -0.309 N 
HETATM    5  H18 UNL     1      25.744   2.167  53.633  1.00  0.00     0.170 HD
ENDROOT
BRANCH   1   6
HETATM    6  C8  UNL     1      23.988   3.763  52.403  1.00  0.00     0.169 C 
BRANCH   6   7
HETATM    7  C7  UNL     1      22.660   3.115  52.340  1.00  0.00    -0.006 A 
HETATM    8  C6  UNL     1      21.469   3.715  51.978  1.00  0.00     0.079 A 
HETATM    9  C4  UNL     1      20.302   2.977  51.965  1.00  0.00    -0.028 A 
HETATM   10  C3  UNL     1      20.367   1.637  52.322  1.00  0.00     0.016 A 
HETATM   11  C5  UNL     1      19.040   3.655  51.571  1.00  0.00     0.051 C 
HETATM   12  C2  UNL     1      21.541   1.006  52.688  1.00  0.00    -0.061 A 
HETATM   13  C1  UNL     1      21.569  -0.433  53.064  1.00  0.00     0.048 C 
HETATM   14  C23 UNL     1      22.695   1.762  52.694  1.00  0.00     0.018 A 
BRANCH   8  15
HETATM   15  O1  UNL     1      21.543   5.073  51.641  1.00  0.00    -0.360 OA
HETATM   16  H8  UNL     1      22.091   5.320  50.816  1.00  0.00     0.217 HD
ENDBRANCH   8  15
ENDBRANCH   6   7
ENDBRANCH   1   6
BRANCH   1  17
HETATM   17  C9  UNL     1      24.599   3.929  50.013  1.00  0.00     0.166 C 
BRANCH  17  18
HETATM   18  C10 UNL     1      25.377   5.180  49.774  1.00  0.00    -0.040 A 
HETATM   19  C11 UNL     1      26.449   5.156  48.905  1.00  0.00     0.011 A 
HETATM   20  C12 UNL     1      27.228   6.258  48.619  1.00  0.00     0.037 A 
HETATM   21  C13 UNL     1      26.939   7.467  49.223  1.00  0.00     0.065 A 
HETATM   22  C14 UNL     1      25.869   7.521  50.099  1.00  0.00     0.037 A 
HETATM   23  C15 UNL     1      25.111   6.400  50.363  1.00  0.00     0.011 A 
BRANCH  21  24
HETATM   24  O2  UNL     1      27.681   8.614  48.980  1.00  0.00    -0.361 OA
HETATM   25  H15 UNL     1      27.455   9.285  48.257  1.00  0.00     0.217 HD
ENDBRANCH  21  24
ENDBRANCH  17  18
ENDBRANCH   1  17
BRANCH   4  26
HETATM   26  C17 UNL     1      27.404   1.104  53.058  1.00  0.00     0.036 A 
HETATM   27  C18 UNL     1      27.147  -0.237  52.884  1.00  0.00     0.029 A 
HETATM   28  C19 UNL     1      28.164  -1.161  53.135  1.00  0.00     0.002 A 
HETATM   29  C20 UNL     1      29.403  -0.718  53.553  1.00  0.00     0.000 A 
HETATM   30  C21 UNL     1      29.646   0.639  53.726  1.00  0.00     0.002 A 
HETATM   31  C22 UNL     1      28.650   1.578  53.481  1.00  0.00     0.029 A 
ENDBRANCH   4  26
TORSDOF 7
ENDMDL
MODEL 5
REMARK VINA RESULT:      -8.3      1.976      7.696
REMARK  7 active torsions:
REMARK  status: ('A' for Active; 'I' for Inactive)
REMARK    1  A    between atoms: C6_6  and  O1_7 
REMARK    2  A    between atoms: C7_8  and  C8_9 
REMARK    3  A    between atoms: C8_9  and  N1_10 
REMARK    4  A    between atoms: N1_10  and  C9_11 
REMARK       I    between atoms: N1_10  and  C16_19 
REMARK    5  A    between atoms: C9_11  and  C10_12 
REMARK    6  A    between atoms: C13_15  and  O2_16 
REMARK       I    between atoms: C16_19  and  N2_21 
REMARK    7  A    between atoms: N2_21  and  C17_22 
ROOT
HETATM    1  N1  UNL     1      25.606   2.462  51.177  1.00  0.00    -0.325 N 
HETATM    2  C16 UNL     1      24.290   2.239  51.724  1.00  0.00     0.323 C 
HETATM    3  O3  UNL     1      23.929   2.115  52.944  1.00  0.00    -0.247 OA
HETATM    4  N2  UNL     1      23.167   2.127  50.866  1.00  0.00    -0.309 N 
HETATM    5  H18 UNL     1      23.237   2.199  49.827  1.00  0.00     0.170 HD
ENDROOT
BRANCH   1   6
HETATM    6  C8  UNL     1      25.882   2.584  49.787  1.00  0.00     0.169 C 
BRANCH   6   7
HETATM    7  C7  UNL     1      26.066   3.978  49.328  1.00  0.00    -0.006 A 
HETATM    8  C6  UNL     1      25.083   4.941  49.206  1.00  0.00     0.079 A 
HETATM    9  C4  UNL     1      25.408   6.206  48.762  1.00  0.00    -0.028 A 
HETATM   10  C3  UNL     1      26.735   6.473  48.449  1.00  0.00     0.016 A 
HETATM   11  C5  UNL     1      24.325   7.216  48.642  1.00  0.00     0.051 C 
HETATM   12  C2  UNL     1      27.743   5.534  48.560  1.00  0.00    -0.061 A 
HETATM   13  C1  UNL     1      29.153   5.859  48.215  1.00  0.00     0.048 C 
HETATM   14  C23 UNL     1      27.395   4.275  49.005  1.00  0.00     0.018 A 
BRANCH   8  15
HETATM   15  O1  UNL     1      23.786   4.541  49.554  1.00  0.00    -0.360 OA
HETATM   16  H8  UNL     1      23.044   4.720  48.875  1.00  0.00     0.217 HD
ENDBRANCH   8  15
ENDBRANCH   6   7
ENDBRANCH   1   6
BRANCH   1  17
HETATM   17  C9  UNL     1      26.725   2.567  52.111  1.00  0.00     0.166 C 
BRANCH  17  18
HETATM   18  C10 UNL     1      27.255   1.217  52.465  1.00  0.00    -0.040 A 
HETATM   19  C11 UNL     1      28.423   1.116  53.191  1.00  0.00     0.011 A 
HETATM   20  C12 UNL     1      28.992  -0.083  53.566  1.00  0.00     0.037 A 
HETATM   21  C13 UNL     1      28.376  -1.267  53.206  1.00  0.00     0.065 A 
HETATM   22  C14 UNL     1      27.202  -1.196  52.476  1.00  0.00     0.037 A 
HETATM   23  C15 UNL     1      26.661   0.020  52.118  1.00  0.00     0.011 A 
BRANCH  21  24
HETATM   24  O2  UNL     1      28.893  -2.507  53.549  1.00  0.00    -0.361 OA
HETATM   25  H15 UNL     1      28.344  -3.357  53.568  1.00  0.00     0.217 HD
ENDBRANCH  21  24
ENDBRANCH  17  18
ENDBRANCH   1  17
BRANCH   4  26
HETATM   26  C17 UNL     1      21.825   1.908  51.289  1.00  0.00     0.036 A 
HETATM   27  C18 UNL     1      21.409   0.597  51.265  1.00  0.00     0.029 A 
HETATM   28  C19 UNL     1      20.106   0.291  51.665  1.00  0.00     0.002 A 
HETATM   29  C20 UNL     1      19.260   1.302  52.075  1.00  0.00     0.000 A 
HETATM   30  C21 UNL     1      19.696   2.622  52.093  1.00  0.00     0.002 A 
HETATM   31  C22 UNL     1      20.989   2.951  51.699  1.00  0.00     0.029 A 
ENDBRANCH   4  26
TORSDOF 7
ENDMDL
MODEL 6
REMARK VINA RESULT:      -8.2      2.560      5.594
REMARK  7 active torsions:
REMARK  status: ('A' for Active; 'I' for Inactive)
REMARK    1  A    between atoms: C6_6  and  O1_7 
REMARK    2  A    between atoms: C7_8  and  C8_9 
REMARK    3  A    between atoms: C8_9  and  N1_10 
REMARK    4  A    between atoms: N1_10  and  C9_11 
REMARK       I    between atoms: N1_10  and  C16_19 
REMARK    5  A    between atoms: C9_11  and  C10_12 
REMARK    6  A    between atoms: C13_15  and  O2_16 
REMARK       I    between atoms: C16_19  and  N2_21 
REMARK    7  A    between atoms: N2_21  and  C17_22 
ROOT
HETATM    1  N1  UNL     1      22.663   2.831  50.820  1.00  0.00    -0.325 N 
HETATM    2  C16 UNL     1      23.597   3.499  49.946  1.00  0.00     0.323 C 
HETATM    3  O3  UNL     1      23.614   3.556  48.669  1.00  0.00    -0.247 OA
HETATM    4  N2  UNL     1      24.689   4.225  50.485  1.00  0.00    -0.309 N 
HETATM    5  H18 UNL     1      24.864   4.309  51.510  1.00  0.00     0.170 HD
ENDROOT
BRANCH   1   6
HETATM    6  C8  UNL     1      22.751   2.842  52.239  1.00  0.00     0.169 C 
BRANCH   6   7
HETATM    7  C7  UNL     1      23.197   1.560  52.827  1.00  0.00    -0.006 A 
HETATM    8  C6  UNL     1      24.495   1.090  52.886  1.00  0.00     0.079 A 
HETATM    9  C4  UNL     1      24.759  -0.133  53.468  1.00  0.00    -0.028 A 
HETATM   10  C3  UNL     1      23.694  -0.860  53.984  1.00  0.00     0.016 A 
HETATM   11  C5  UNL     1      26.166  -0.608  53.513  1.00  0.00     0.051 C 
HETATM   12  C2  UNL     1      22.385  -0.419  53.942  1.00  0.00    -0.061 A 
HETATM   13  C1  UNL     1      21.271  -1.227  54.507  1.00  0.00     0.048 C 
HETATM   14  C23 UNL     1      22.144   0.806  53.355  1.00  0.00     0.018 A 
BRANCH   8  15
HETATM   15  O1  UNL     1      25.475   1.921  52.328  1.00  0.00    -0.360 OA
HETATM   16  H8  UNL     1      25.305   2.276  51.385  1.00  0.00     0.217 HD
ENDBRANCH   8  15
ENDBRANCH   6   7
ENDBRANCH   1   6
BRANCH   1  17
HETATM   17  C9  UNL     1      21.558   2.098  50.206  1.00  0.00     0.166 C 
BRANCH  17  18
HETATM   18  C10 UNL     1      20.251   2.758  50.496  1.00  0.00    -0.040 A 
HETATM   19  C11 UNL     1      19.962   3.975  49.913  1.00  0.00     0.011 A 
HETATM   20  C12 UNL     1      18.784   4.663  50.118  1.00  0.00     0.037 A 
HETATM   21  C13 UNL     1      17.821   4.124  50.950  1.00  0.00     0.065 A 
HETATM   22  C14 UNL     1      18.084   2.904  51.549  1.00  0.00     0.037 A 
HETATM   23  C15 UNL     1      19.273   2.243  51.321  1.00  0.00     0.011 A 
BRANCH  21  24
HETATM   24  O2  UNL     1      16.616   4.762  51.200  1.00  0.00    -0.361 OA
HETATM   25  H15 UNL     1      15.713   4.363  50.972  1.00  0.00     0.217 HD
ENDBRANCH  21  24
ENDBRANCH  17  18
ENDBRANCH   1  17
BRANCH   4  26
HETATM   26  C17 UNL     1      25.670   4.922  49.725  1.00  0.00     0.036 A 
HETATM   27  C18 UNL     1      26.776   4.180  49.374  1.00  0.00     0.029 A 
HETATM   28  C19 UNL     1      27.789   4.785  48.626  1.00  0.00     0.002 A 
HETATM   29  C20 UNL     1      27.668   6.109  48.253  1.00  0.00     0.000 A 
HETATM   30  C21 UNL     1      26.546   6.844  48.617  1.00  0.00     0.002 A 
HETATM   31  C22 UNL     1      25.523   6.264  49.360  1.00  0.00     0.029 A 
ENDBRANCH   4  26
TORSDOF 7
ENDMDL
MODEL 7
REMARK VINA RESULT:      -8.1      2.566      3.732
REMARK  7 active torsions:
REMARK  status: ('A' for Active; 'I' for Inactive)
REMARK    1  A    between atoms: C6_6  and  O1_7 
REMARK    2  A    between atoms: C7_8  and  C8_9 
REMARK    3  A    between atoms: C8_9  and  N1_10 
REMARK    4  A    between atoms: N1_10  and  C9_11 
REMARK       I    between atoms: N1_10  and  C16_19 
REMARK    5  A    between atoms: C9_11  and  C10_12 
REMARK    6  A    between atoms: C13_15  and  O2_16 
REMARK       I    between atoms: C16_19  and  N2_21 
REMARK    7  A    between atoms: N2_21  and  C17_22 
ROOT
HETATM    1  N1  UNL     1      24.829   3.836  50.965  1.00  0.00    -0.325 N 
HETATM    2  C16 UNL     1      25.925   2.936  51.233  1.00  0.00     0.323 C 
HETATM    3  O3  UNL     1      26.793   2.455  50.428  1.00  0.00    -0.247 OA
HETATM    4  N2  UNL     1      26.155   2.459  52.548  1.00  0.00    -0.309 N 
HETATM    5  H18 UNL     1      25.560   2.729  53.361  1.00  0.00     0.170 HD
ENDROOT
BRANCH   1   6
HETATM    6  C8  UNL     1      23.922   4.305  51.955  1.00  0.00     0.169 C 
BRANCH   6   7
HETATM    7  C7  UNL     1      22.692   3.493  52.081  1.00  0.00    -0.006 A 
HETATM    8  C6  UNL     1      21.397   3.924  51.868  1.00  0.00     0.079 A 
HETATM    9  C4  UNL     1      20.344   3.046  52.024  1.00  0.00    -0.028 A 
HETATM   10  C3  UNL     1      20.627   1.738  52.396  1.00  0.00     0.016 A 
HETATM   11  C5  UNL     1      18.965   3.544  51.787  1.00  0.00     0.051 C 
HETATM   12  C2  UNL     1      21.910   1.275  52.617  1.00  0.00    -0.061 A 
HETATM   13  C1  UNL     1      22.173  -0.135  53.015  1.00  0.00     0.048 C 
HETATM   14  C23 UNL     1      22.948   2.170  52.455  1.00  0.00     0.018 A 
BRANCH   8  15
HETATM   15  O1  UNL     1      21.250   5.267  51.497  1.00  0.00    -0.360 OA
HETATM   16  H8  UNL     1      21.551   5.527  50.556  1.00  0.00     0.217 HD
ENDBRANCH   8  15
ENDBRANCH   6   7
ENDBRANCH   1   6
BRANCH   1  17
HETATM   17  C9  UNL     1      24.641   4.292  49.589  1.00  0.00     0.166 C 
BRANCH  17  18
HETATM   18  C10 UNL     1      23.373   3.751  49.015  1.00  0.00    -0.040 A 
HETATM   19  C11 UNL     1      22.419   4.625  48.536  1.00  0.00     0.011 A 
HETATM   20  C12 UNL     1      21.219   4.223  47.988  1.00  0.00     0.037 A 
HETATM   21  C13 UNL     1      20.931   2.875  47.902  1.00  0.00     0.065 A 
HETATM   22  C14 UNL     1      21.870   1.975  48.375  1.00  0.00     0.037 A 
HETATM   23  C15 UNL     1      23.061   2.411  48.917  1.00  0.00     0.011 A 
BRANCH  21  24
HETATM   24  O2  UNL     1      19.743   2.403  47.363  1.00  0.00    -0.361 OA
HETATM   25  H15 UNL     1      19.630   1.468  46.991  1.00  0.00     0.217 HD
ENDBRANCH  21  24
ENDBRANCH  17  18
ENDBRANCH   1  17
BRANCH   4  26
HETATM   26  C17 UNL     1      27.200   1.571  52.930  1.00  0.00     0.036 A 
HETATM   27  C18 UNL     1      26.932   0.234  52.743  1.00  0.00     0.029 A 
HETATM   28  C19 UNL     1      27.903  -0.708  53.092  1.00  0.00     0.002 A 
HETATM   29  C20 UNL     1      29.109  -0.286  53.616  1.00  0.00     0.000 A 
HETATM   30  C21 UNL     1      29.363   1.068  53.800  1.00  0.00     0.002 A 
HETATM   31  C22 UNL     1      28.413   2.024  53.460  1.00  0.00     0.029 A 
ENDBRANCH   4  26
TORSDOF 7
ENDMDL
MODEL 8
REMARK VINA RESULT:      -8.1      2.182      6.463
REMARK  7 active torsions:
REMARK  status: ('A' for Active; 'I' for Inactive)
REMARK    1  A    between atoms: C6_6  and  O1_7 
REMARK    2  A    between atoms: C7_8  and  C8_9 
REMARK    3  A    between atoms: C8_9  and  N1_10 
REMARK    4  A    between atoms: N1_10  and  C9_11 
REMARK       I    between atoms: N1_10  and  C16_19 
REMARK    5  A    between atoms: C9_11  and  C10_12 
REMARK    6  A    between atoms: C13_15  and  O2_16 
REMARK       I    between atoms: C16_19  and  N2_21 
REMARK    7  A    between atoms: N2_21  and  C17_22 
ROOT
HETATM    1  N1  UNL     1      25.545   3.210  50.815  1.00  0.00    -0.325 N 
HETATM    2  C16 UNL     1      25.902   4.379  50.048  1.00  0.00     0.323 C 
HETATM    3  O3  UNL     1      26.784   4.510  49.133  1.00  0.00    -0.247 OA
HETATM    4  N2  UNL     1      25.236   5.612  50.268  1.00  0.00    -0.309 N 
HETATM    5  H18 UNL     1      24.476   5.728  50.975  1.00  0.00     0.170 HD
ENDROOT
BRANCH   1   6
HETATM    6  C8  UNL     1      24.534   3.191  51.816  1.00  0.00     0.169 C 
BRANCH   6   7
HETATM    7  C7  UNL     1      23.463   2.201  51.574  1.00  0.00    -0.006 A 
HETATM    8  C6  UNL     1      22.619   2.153  50.480  1.00  0.00     0.079 A 
HETATM    9  C4  UNL     1      21.661   1.163  50.392  1.00  0.00    -0.028 A 
HETATM   10  C3  UNL     1      21.577   0.235  51.422  1.00  0.00     0.016 A 
HETATM   11  C5  UNL     1      20.771   1.143  49.203  1.00  0.00     0.051 C 
HETATM   12  C2  UNL     1      22.405   0.254  52.528  1.00  0.00    -0.061 A 
HETATM   13  C1  UNL     1      22.283  -0.759  53.611  1.00  0.00     0.048 C 
HETATM   14  C23 UNL     1      23.355   1.252  52.596  1.00  0.00     0.018 A 
BRANCH   8  15
HETATM   15  O1  UNL     1      22.810   3.149  49.514  1.00  0.00    -0.360 OA
HETATM   16  H8  UNL     1      21.977   3.517  49.052  1.00  0.00     0.217 HD
ENDBRANCH   8  15
ENDBRANCH   6   7
ENDBRANCH   1   6
BRANCH   1  17
HETATM   17  C9  UNL     1      26.268   1.970  50.544  1.00  0.00     0.166 C 
BRANCH  17  18
HETATM   18  C10 UNL     1      26.884   1.427  51.791  1.00  0.00    -0.040 A 
HETATM   19  C11 UNL     1      26.693   0.101  52.119  1.00  0.00     0.011 A 
HETATM   20  C12 UNL     1      27.221  -0.492  53.248  1.00  0.00     0.037 A 
HETATM   21  C13 UNL     1      27.988   0.262  54.115  1.00  0.00     0.065 A 
HETATM   22  C14 UNL     1      28.196   1.596  53.810  1.00  0.00     0.037 A 
HETATM   23  C15 UNL     1      27.654   2.158  52.673  1.00  0.00     0.011 A 
BRANCH  21  24
HETATM   24  O2  UNL     1      28.547  -0.271  55.266  1.00  0.00    -0.361 OA
HETATM   25  H15 UNL     1      28.147  -0.154  56.189  1.00  0.00     0.217 HD
ENDBRANCH  21  24
ENDBRANCH  17  18
ENDBRANCH   1  17
BRANCH   4  26
HETATM   26  C17 UNL     1      25.501   6.827  49.576  1.00  0.00     0.036 A 
HETATM   27  C18 UNL     1      26.077   7.820  50.334  1.00  0.00     0.029 A 
HETATM   28  C19 UNL     1      26.372   9.047  49.735  1.00  0.00     0.002 A 
HETATM   29  C20 UNL     1      26.083   9.244  48.399  1.00  0.00     0.000 A 
HETATM   30  C21 UNL     1      25.500   8.230  47.647  1.00  0.00     0.002 A 
HETATM   31  C22 UNL     1      25.198   7.000  48.222  1.00  0.00     0.029 A 
ENDBRANCH   4  26
TORSDOF 7
ENDMDL
MODEL 9
REMARK VINA RESULT:      -8.0      2.196      5.893
REMARK  7 active torsions:
REMARK  status: ('A' for Active; 'I' for Inactive)
REMARK    1  A    between atoms: C6_6  and  O1_7 
REMARK    2  A    between atoms: C7_8  and  C8_9 
REMARK    3  A    between atoms: C8_9  and  N1_10 
REMARK    4  A    between atoms: N1_10  and  C9_11 
REMARK       I    between atoms: N1_10  and  C16_19 
REMARK    5  A    between atoms: C9_11  and  C10_12 
REMARK    6  A    between atoms: C13_15  and  O2_16 
REMARK       I    between atoms: C16_19  and  N2_21 
REMARK    7  A    between atoms: N2_21  and  C17_22 
ROOT
HETATM    1  N1  UNL     1      23.289   1.829  51.978  1.00  0.00    -0.325 N 
HETATM    2  C16 UNL     1      24.553   1.289  52.415  1.00  0.00     0.323 C 
HETATM    3  O3  UNL     1      25.075   0.148  52.171  1.00  0.00    -0.247 OA
HETATM    4  N2  UNL     1      25.414   2.057  53.240  1.00  0.00    -0.309 N 
HETATM    5  H18 UNL     1      25.181   3.022  53.560  1.00  0.00     0.170 HD
ENDROOT
BRANCH   1   6
HETATM    6  C8  UNL     1      22.816   3.126  52.320  1.00  0.00     0.169 C 
BRANCH   6   7
HETATM    7  C7  UNL     1      22.820   4.087  51.195  1.00  0.00    -0.006 A 
HETATM    8  C6  UNL     1      23.929   4.684  50.628  1.00  0.00     0.079 A 
HETATM    9  C4  UNL     1      23.776   5.565  49.577  1.00  0.00    -0.028 A 
HETATM   10  C3  UNL     1      22.491   5.825  49.118  1.00  0.00     0.016 A 
HETATM   11  C5  UNL     1      24.991   6.189  48.992  1.00  0.00     0.051 C 
HETATM   12  C2  UNL     1      21.361   5.245  49.662  1.00  0.00    -0.061 A 
HETATM   13  C1  UNL     1      20.001   5.550  49.141  1.00  0.00     0.048 C 
HETATM   14  C23 UNL     1      21.538   4.368  50.712  1.00  0.00     0.018 A 
BRANCH   8  15
HETATM   15  O1  UNL     1      25.166   4.335  51.185  1.00  0.00    -0.360 OA
HETATM   16  H8  UNL     1      25.179   4.087  52.176  1.00  0.00     0.217 HD
ENDBRANCH   8  15
ENDBRANCH   6   7
ENDBRANCH   1   6
BRANCH   1  17
HETATM   17  C9  UNL     1      22.445   0.990  51.131  1.00  0.00     0.166 C 
BRANCH  17  18
HETATM   18  C10 UNL     1      21.324   0.393  51.917  1.00  0.00    -0.040 A 
HETATM   19  C11 UNL     1      20.028   0.538  51.468  1.00  0.00     0.011 A 
HETATM   20  C12 UNL     1      18.929   0.024  52.123  1.00  0.00     0.037 A 
HETATM   21  C13 UNL     1      19.108  -0.681  53.298  1.00  0.00     0.065 A 
HETATM   22  C14 UNL     1      20.398  -0.842  53.772  1.00  0.00     0.037 A 
HETATM   23  C15 UNL     1      21.476  -0.315  53.092  1.00  0.00     0.011 A 
BRANCH  21  24
HETATM   24  O2  UNL     1      18.046  -1.224  54.006  1.00  0.00    -0.361 OA
HETATM   25  H15 UNL     1      18.160  -1.876  54.772  1.00  0.00     0.217 HD
ENDBRANCH  21  24
ENDBRANCH  17  18
ENDBRANCH   1  17
BRANCH   4  26
HETATM   26  C17 UNL     1      26.680   1.630  53.732  1.00  0.00     0.036 A 
HETATM   27  C18 UNL     1      27.747   2.420  53.366  1.00  0.00     0.029 A 
HETATM   28  C19 UNL     1      29.028   2.075  53.805  1.00  0.00     0.002 A 
HETATM   29  C20 UNL     1      29.204   0.955  54.593  1.00  0.00     0.000 A 
HETATM   30  C21 UNL     1      28.116   0.168  54.952  1.00  0.00     0.002 A 
HETATM   31  C22 UNL     1      26.831   0.490  54.528  1.00  0.00     0.029 A 
ENDBRANCH   4  26
TORSDOF 7
ENDMDL
