MODEL 1
REMARK VINA RESULT:      -9.4      0.000      0.000
REMARK  2 active torsions:
REMARK  status: ('A' for Active; 'I' for Inactive)
REMARK    1  A    between atoms: C4_5  and  N1_6 
REMARK    2  A    between atoms: N1_6  and  C5_7 
ROOT
HETATM    1  C5  UNL     1      24.142   2.943  52.969  1.00  0.00     0.137 C 
HETATM    2  N2  UNL     1      23.685   4.207  53.014  1.00  0.00    -0.242 NA
HETATM    3  C6  UNL     1      22.865   4.715  51.811  1.00  0.00     0.126 C 
HETATM    4  C7  UNL     1      22.210   4.056  50.780  1.00  0.00    -0.008 C 
HETATM    5  C8  UNL     1      20.717   3.796  51.025  1.00  0.00     0.206 C 
HETATM    6  O1  UNL     1      19.900   4.869  50.965  1.00  0.00    -0.385 OA
HETATM    7  C9  UNL     1      18.588   4.536  51.194  1.00  0.00     0.187 C 
HETATM    8  C10 UNL     1      17.924   3.524  50.334  1.00  0.00     0.140 C 
HETATM    9  N3  UNL     1      18.383   2.191  50.335  1.00  0.00    -0.419 N 
HETATM   10  C11 UNL     1      18.155   1.377  51.488  1.00  0.00     0.113 C 
HETATM   11  C12 UNL     1      18.991   0.059  51.417  1.00  0.00     0.021 C 
HETATM   12  O2  UNL     1      20.303   0.523  51.359  1.00  0.00     0.000 OA
HETATM   13  C13 UNL     1      21.411   0.447  52.094  1.00  0.00     0.003 A 
HETATM   14  S1  UNL     1      21.217   0.429  50.482  1.00  0.00    -0.066 SA
HETATM   15  C14 UNL     1      22.558   1.454  50.261  1.00  0.00     0.144 C 
HETATM   16  O3  UNL     1      22.235   1.451  48.906  1.00  0.00    -0.339 OA
HETATM   17  C15 UNL     1      22.224   2.926  48.508  1.00  0.00     0.213 C 
HETATM   18  C16 UNL     1      22.997   3.640  49.583  1.00  0.00     0.185 C 
HETATM   19  O4  UNL     1      23.995   2.607  49.999  1.00  0.00    -0.335 OA
HETATM   20  C17 UNL     1      23.470   1.991  51.227  1.00  0.00     0.120 C 
HETATM   21  C18 UNL     1      23.405   1.707  52.601  1.00  0.00     0.029 C 
HETATM   22  C19 UNL     1      22.613   0.366  52.932  1.00  0.00     0.092 C 
HETATM   23  H11 UNL     1      18.589   1.731  49.454  1.00  0.00     0.153 HD
ENDROOT
BRANCH   1  24
HETATM   24  N1  UNL     1      25.462   2.852  53.206  1.00  0.00    -0.340 N 
HETATM   25  H3  UNL     1      25.879   3.784  53.386  1.00  0.00     0.167 HD
BRANCH  24  26
HETATM   26  C4  UNL     1      26.508   1.946  53.313  1.00  0.00     0.035 A 
HETATM   27  C3  UNL     1      27.815   2.315  53.621  1.00  0.00     0.032 A 
HETATM   28  C2  UNL     1      28.811   1.311  53.571  1.00  0.00     0.046 A 
HETATM   29  C1  UNL     1      28.551  -0.010  53.244  1.00  0.00     0.138 A 
HETATM   30  F1  UNL     1      29.502  -0.966  53.220  1.00  0.00    -0.204 F 
HETATM   31  C21 UNL     1      27.252  -0.329  52.953  1.00  0.00     0.074 A 
HETATM   32  C20 UNL     1      26.259   0.664  52.993  1.00  0.00     0.056 A 
HETATM   33 CL1  UNL     1      26.850  -1.995  52.557  1.00  0.00    -0.081 Cl
ENDBRANCH  24  26
ENDBRANCH   1  24
TORSDOF 2
ENDMDL
MODEL 2
REMARK VINA RESULT:      -9.2      2.320      3.188
REMARK  2 active torsions:
REMARK  status: ('A' for Active; 'I' for Inactive)
REMARK    1  A    between atoms: C4_5  and  N1_6 
REMARK    2  A    between atoms: N1_6  and  C5_7 
ROOT
HETATM    1  C5  UNL     1      23.020   1.726  51.108  1.00  0.00     0.137 C 
HETATM    2  N2  UNL     1      22.308   1.696  52.249  1.00  0.00    -0.242 NA
HETATM    3  C6  UNL     1      21.385   2.894  52.548  1.00  0.00     0.126 C 
HETATM    4  C7  UNL     1      20.870   3.902  51.744  1.00  0.00    -0.008 C 
HETATM    5  C8  UNL     1      19.468   3.628  51.182  1.00  0.00     0.206 C 
HETATM    6  O1  UNL     1      18.444   3.693  52.059  1.00  0.00    -0.385 OA
HETATM    7  C9  UNL     1      17.234   3.436  51.462  1.00  0.00     0.187 C 
HETATM    8  C10 UNL     1      16.787   4.266  50.316  1.00  0.00     0.140 C 
HETATM    9  N3  UNL     1      17.515   4.248  49.109  1.00  0.00    -0.419 N 
HETATM   10  C11 UNL     1      17.478   3.077  48.290  1.00  0.00     0.113 C 
HETATM   11  C12 UNL     1      18.571   3.139  47.175  1.00  0.00     0.021 C 
HETATM   12  O2  UNL     1      19.755   3.227  47.903  1.00  0.00     0.000 OA
HETATM   13  C13 UNL     1      20.864   2.509  48.077  1.00  0.00     0.003 A 
HETATM   14  S1  UNL     1      20.658   4.117  47.984  1.00  0.00    -0.066 SA
HETATM   15  C14 UNL     1      21.751   4.379  49.263  1.00  0.00     0.144 C 
HETATM   16  O3  UNL     1      21.418   5.729  49.163  1.00  0.00    -0.339 OA
HETATM   17  C15 UNL     1      21.093   6.153  50.594  1.00  0.00     0.213 C 
HETATM   18  C16 UNL     1      21.712   5.104  51.477  1.00  0.00     0.185 C 
HETATM   19  O4  UNL     1      22.910   4.686  50.685  1.00  0.00    -0.335 OA
HETATM   20  C17 UNL     1      22.542   3.439  49.999  1.00  0.00     0.120 C 
HETATM   21  C18 UNL     1      22.555   2.059  49.738  1.00  0.00     0.029 C 
HETATM   22  C19 UNL     1      22.067   1.691  48.267  1.00  0.00     0.092 C 
HETATM   23  H11 UNL     1      17.802   5.124  48.684  1.00  0.00     0.153 HD
ENDROOT
BRANCH   1  24
HETATM   24  N1  UNL     1      24.333   1.510  51.301  1.00  0.00    -0.340 N 
HETATM   25  H3  UNL     1      24.887   1.775  50.465  1.00  0.00     0.167 HD
BRANCH  24  26
HETATM   26  C4  UNL     1      25.256   1.058  52.234  1.00  0.00     0.035 A 
HETATM   27  C3  UNL     1      25.061  -0.074  53.022  1.00  0.00     0.032 A 
HETATM   28  C2  UNL     1      26.020  -0.351  54.025  1.00  0.00     0.046 A 
HETATM   29  C1  UNL     1      27.138   0.435  54.252  1.00  0.00     0.138 A 
HETATM   30  F1  UNL     1      28.059   0.152  55.195  1.00  0.00    -0.204 F 
HETATM   31  C21 UNL     1      27.292   1.534  53.452  1.00  0.00     0.074 A 
HETATM   32  C20 UNL     1      26.340   1.819  52.459  1.00  0.00     0.056 A 
HETATM   33 CL1  UNL     1      28.706   2.558  53.671  1.00  0.00    -0.081 Cl
ENDBRANCH  24  26
ENDBRANCH   1  24
TORSDOF 2
ENDMDL
MODEL 3
REMARK VINA RESULT:      -9.2      3.035      4.476
REMARK  2 active torsions:
REMARK  status: ('A' for Active; 'I' for Inactive)
REMARK    1  A    between atoms: C4_5  and  N1_6 
REMARK    2  A    between atoms: N1_6  and  C5_7 
ROOT
HETATM    1  C5  UNL     1      20.291   1.032  52.443  1.00  0.00     0.137 C 
HETATM    2  N2  UNL     1      20.250   2.347  52.724  1.00  0.00    -0.242 NA
HETATM    3  C6  UNL     1      19.239   3.214  51.948  1.00  0.00     0.126 C 
HETATM    4  C7  UNL     1      18.109   2.895  51.207  1.00  0.00    -0.008 C 
HETATM    5  C8  UNL     1      16.785   2.965  51.983  1.00  0.00     0.206 C 
HETATM    6  O1  UNL     1      16.333   4.199  52.293  1.00  0.00    -0.385 OA
HETATM    7  C9  UNL     1      15.147   4.158  52.982  1.00  0.00     0.187 C 
HETATM    8  C10 UNL     1      13.971   3.478  52.384  1.00  0.00     0.140 C 
HETATM    9  N3  UNL     1      14.010   2.090  52.142  1.00  0.00    -0.419 N 
HETATM   10  C11 UNL     1      13.982   1.188  53.250  1.00  0.00     0.113 C 
HETATM   11  C12 UNL     1      14.337  -0.265  52.799  1.00  0.00     0.021 C 
HETATM   12  O2  UNL     1      15.620  -0.124  52.275  1.00  0.00     0.000 OA
HETATM   13  C13 UNL     1      16.847  -0.575  52.533  1.00  0.00     0.003 A 
HETATM   14  S1  UNL     1      16.106  -0.300  51.115  1.00  0.00    -0.066 SA
HETATM   15  C14 UNL     1      17.514   0.396  50.458  1.00  0.00     0.144 C 
HETATM   16  O3  UNL     1      16.750   0.677  49.327  1.00  0.00    -0.339 OA
HETATM   17  C15 UNL     1      17.012   2.154  49.041  1.00  0.00     0.213 C 
HETATM   18  C16 UNL     1      18.279   2.490  49.782  1.00  0.00     0.185 C 
HETATM   19  O4  UNL     1      19.029   1.198  49.735  1.00  0.00    -0.335 OA
HETATM   20  C17 UNL     1      18.817   0.545  51.035  1.00  0.00     0.120 C 
HETATM   21  C18 UNL     1      19.159   0.079  52.316  1.00  0.00     0.029 C 
HETATM   22  C19 UNL     1      18.192  -1.068  52.849  1.00  0.00     0.092 C 
HETATM   23  H11 UNL     1      13.758   1.734  51.225  1.00  0.00     0.153 HD
ENDROOT
BRANCH   1  24
HETATM   24  N1  UNL     1      21.529   0.593  52.160  1.00  0.00    -0.340 N 
HETATM   25  H3  UNL     1      21.666   0.481  51.138  1.00  0.00     0.167 HD
BRANCH  24  26
HETATM   26  C4  UNL     1      22.736   0.230  52.741  1.00  0.00     0.035 A 
HETATM   27  C3  UNL     1      22.834  -0.600  53.855  1.00  0.00     0.032 A 
HETATM   28  C2  UNL     1      24.115  -0.786  54.427  1.00  0.00     0.046 A 
HETATM   29  C1  UNL     1      25.267  -0.199  53.931  1.00  0.00     0.138 A 
HETATM   30  F1  UNL     1      26.488  -0.399  54.467  1.00  0.00    -0.204 F 
HETATM   31  C21 UNL     1      25.126   0.605  52.832  1.00  0.00     0.074 A 
HETATM   32  C20 UNL     1      23.856   0.801  52.263  1.00  0.00     0.056 A 
HETATM   33 CL1  UNL     1      26.555   1.358  52.136  1.00  0.00    -0.081 Cl
ENDBRANCH  24  26
ENDBRANCH   1  24
TORSDOF 2
ENDMDL
MODEL 4
REMARK VINA RESULT:      -9.1      1.302      1.549
REMARK  2 active torsions:
REMARK  status: ('A' for Active; 'I' for Inactive)
REMARK    1  A    between atoms: C4_5  and  N1_6 
REMARK    2  A    between atoms: N1_6  and  C5_7 
ROOT
HETATM    1  C5  UNL     1      23.716   3.057  52.469  1.00  0.00     0.137 C 
HETATM    2  N2  UNL     1      23.347   4.348  52.539  1.00  0.00    -0.242 NA
HETATM    3  C6  UNL     1      22.733   4.987  51.278  1.00  0.00     0.126 C 
HETATM    4  C7  UNL     1      22.176   4.441  50.129  1.00  0.00    -0.008 C 
HETATM    5  C8  UNL     1      20.649   4.285  50.162  1.00  0.00     0.206 C 
HETATM    6  O1  UNL     1      19.925   5.421  50.070  1.00  0.00    -0.385 OA
HETATM    7  C9  UNL     1      18.574   5.178  50.106  1.00  0.00     0.187 C 
HETATM    8  C10 UNL     1      17.961   4.273  49.102  1.00  0.00     0.140 C 
HETATM    9  N3  UNL     1      18.321   2.910  49.072  1.00  0.00    -0.419 N 
HETATM   10  C11 UNL     1      17.885   2.052  50.129  1.00  0.00     0.113 C 
HETATM   11  C12 UNL     1      18.628   0.678  50.078  1.00  0.00     0.021 C 
HETATM   12  O2  UNL     1      19.966   1.041  50.220  1.00  0.00     0.000 OA
HETATM   13  C13 UNL     1      20.958   0.836  51.085  1.00  0.00     0.003 A 
HETATM   14  S1  UNL     1      20.980   0.926  49.464  1.00  0.00    -0.066 SA
HETATM   15  C14 UNL     1      22.407   1.854  49.486  1.00  0.00     0.144 C 
HETATM   16  O3  UNL     1      22.267   1.953  48.103  1.00  0.00    -0.339 OA
HETATM   17  C15 UNL     1      22.413   3.445  47.807  1.00  0.00     0.213 C 
HETATM   18  C16 UNL     1      23.085   4.034  49.018  1.00  0.00     0.185 C 
HETATM   19  O4  UNL     1      23.943   2.904  49.489  1.00  0.00    -0.335 OA
HETATM   20  C17 UNL     1      23.218   2.261  50.595  1.00  0.00     0.120 C 
HETATM   21  C18 UNL     1      22.951   1.905  51.927  1.00  0.00     0.029 C 
HETATM   22  C19 UNL     1      22.030   0.613  52.063  1.00  0.00     0.092 C 
HETATM   23  H11 UNL     1      18.610   2.486  48.196  1.00  0.00     0.153 HD
ENDROOT
BRANCH   1  24
HETATM   24  N1  UNL     1      24.983   2.849  52.867  1.00  0.00    -0.340 N 
HETATM   25  H3  UNL     1      25.363   3.676  53.364  1.00  0.00     0.167 HD
BRANCH  24  26
HETATM   26  C4  UNL     1      26.004   1.908  52.869  1.00  0.00     0.035 A 
HETATM   27  C3  UNL     1      25.892   0.652  52.280  1.00  0.00     0.032 A 
HETATM   28  C2  UNL     1      26.958  -0.260  52.466  1.00  0.00     0.046 A 
HETATM   29  C1  UNL     1      28.102   0.038  53.189  1.00  0.00     0.138 A 
HETATM   30  F1  UNL     1      29.124  -0.829  53.343  1.00  0.00    -0.204 F 
HETATM   31  C21 UNL     1      28.172   1.286  53.746  1.00  0.00     0.074 A 
HETATM   32  C20 UNL     1      27.114   2.193  53.572  1.00  0.00     0.056 A 
HETATM   33 CL1  UNL     1      29.610   1.736  54.654  1.00  0.00    -0.081 Cl
ENDBRANCH  24  26
ENDBRANCH   1  24
TORSDOF 2
ENDMDL
MODEL 5
REMARK VINA RESULT:      -9.0      4.174      6.058
REMARK  2 active torsions:
REMARK  status: ('A' for Active; 'I' for Inactive)
REMARK    1  A    between atoms: C4_5  and  N1_6 
REMARK    2  A    between atoms: N1_6  and  C5_7 
ROOT
HETATM    1  C5  UNL     1      24.448   3.202  49.658  1.00  0.00     0.137 C 
HETATM    2  N2  UNL     1      23.315   3.208  48.934  1.00  0.00    -0.242 NA
HETATM    3  C6  UNL     1      22.554   4.543  48.808  1.00  0.00     0.126 C 
HETATM    4  C7  UNL     1      22.933   5.860  49.028  1.00  0.00    -0.008 C 
HETATM    5  C8  UNL     1      23.413   6.613  47.779  1.00  0.00     0.206 C 
HETATM    6  O1  UNL     1      22.467   6.951  46.877  1.00  0.00    -0.385 OA
HETATM    7  C9  UNL     1      22.992   7.620  45.800  1.00  0.00     0.187 C 
HETATM    8  C10 UNL     1      23.757   8.874  46.013  1.00  0.00     0.140 C 
HETATM    9  N3  UNL     1      24.970   8.843  46.732  1.00  0.00    -0.419 N 
HETATM   10  C11 UNL     1      26.117   8.231  46.136  1.00  0.00     0.113 C 
HETATM   11  C12 UNL     1      27.253   8.028  47.189  1.00  0.00     0.021 C 
HETATM   12  O2  UNL     1      26.656   7.202  48.138  1.00  0.00     0.000 OA
HETATM   13  C13 UNL     1      26.835   5.978  48.635  1.00  0.00     0.003 A 
HETATM   14  S1  UNL     1      26.380   7.354  49.369  1.00  0.00    -0.066 SA
HETATM   15  C14 UNL     1      25.199   6.534  50.281  1.00  0.00     0.144 C 
HETATM   16  O3  UNL     1      24.823   7.785  50.767  1.00  0.00    -0.339 OA
HETATM   17  C15 UNL     1      23.307   7.830  50.584  1.00  0.00     0.213 C 
HETATM   18  C16 UNL     1      22.877   6.398  50.419  1.00  0.00     0.185 C 
HETATM   19  O4  UNL     1      23.875   5.666  51.257  1.00  0.00    -0.335 OA
HETATM   20  C17 UNL     1      24.889   5.137  50.333  1.00  0.00     0.120 C 
HETATM   21  C18 UNL     1      25.584   4.157  49.604  1.00  0.00     0.029 C 
HETATM   22  C19 UNL     1      27.038   4.621  49.152  1.00  0.00     0.092 C 
HETATM   23  H11 UNL     1      25.115   9.491  47.500  1.00  0.00     0.153 HD
ENDROOT
BRANCH   1  24
HETATM   24  N1  UNL     1      24.466   2.243  50.600  1.00  0.00    -0.340 N 
HETATM   25  H3  UNL     1      23.781   1.493  50.389  1.00  0.00     0.167 HD
BRANCH  24  26
HETATM   26  C4  UNL     1      25.084   1.864  51.784  1.00  0.00     0.035 A 
HETATM   27  C3  UNL     1      25.016   2.608  52.959  1.00  0.00     0.032 A 
HETATM   28  C2  UNL     1      25.798   2.176  54.056  1.00  0.00     0.046 A 
HETATM   29  C1  UNL     1      26.611   1.055  54.023  1.00  0.00     0.138 A 
HETATM   30  F1  UNL     1      27.335   0.638  55.081  1.00  0.00    -0.204 F 
HETATM   31  C21 UNL     1      26.643   0.351  52.850  1.00  0.00     0.074 A 
HETATM   32  C20 UNL     1      25.876   0.777  51.754  1.00  0.00     0.056 A 
HETATM   33 CL1  UNL     1      27.634  -1.099  52.752  1.00  0.00    -0.081 Cl
ENDBRANCH  24  26
ENDBRANCH   1  24
TORSDOF 2
ENDMDL
MODEL 6
REMARK VINA RESULT:      -9.0      3.704      5.367
REMARK  2 active torsions:
REMARK  status: ('A' for Active; 'I' for Inactive)
REMARK    1  A    between atoms: C4_5  and  N1_6 
REMARK    2  A    between atoms: N1_6  and  C5_7 
ROOT
HETATM    1  C5  UNL     1      25.136   3.631  50.497  1.00  0.00     0.137 C 
HETATM    2  N2  UNL     1      24.054   2.900  50.170  1.00  0.00    -0.242 NA
HETATM    3  C6  UNL     1      22.710   3.640  50.015  1.00  0.00     0.126 C 
HETATM    4  C7  UNL     1      22.395   4.980  49.838  1.00  0.00    -0.008 C 
HETATM    5  C8  UNL     1      22.208   5.412  48.376  1.00  0.00     0.206 C 
HETATM    6  O1  UNL     1      21.086   4.983  47.760  1.00  0.00    -0.385 OA
HETATM    7  C9  UNL     1      21.007   5.422  46.462  1.00  0.00     0.187 C 
HETATM    8  C10 UNL     1      21.049   6.877  46.172  1.00  0.00     0.140 C 
HETATM    9  N3  UNL     1      22.208   7.620  46.474  1.00  0.00    -0.419 N 
HETATM   10  C11 UNL     1      23.388   7.419  45.692  1.00  0.00     0.113 C 
HETATM   11  C12 UNL     1      24.627   8.094  46.363  1.00  0.00     0.021 C 
HETATM   12  O2  UNL     1      24.703   7.451  47.597  1.00  0.00     0.000 OA
HETATM   13  C13 UNL     1      25.561   6.669  48.251  1.00  0.00     0.003 A 
HETATM   14  S1  UNL     1      24.599   7.859  48.795  1.00  0.00    -0.066 SA
HETATM   15  C14 UNL     1      24.174   6.951  50.171  1.00  0.00     0.144 C 
HETATM   16  O3  UNL     1      23.300   7.990  50.486  1.00  0.00    -0.339 OA
HETATM   17  C15 UNL     1      21.967   7.301  50.772  1.00  0.00     0.213 C 
HETATM   18  C16 UNL     1      22.308   5.860  51.039  1.00  0.00     0.185 C 
HETATM   19  O4  UNL     1      23.663   5.961  51.661  1.00  0.00    -0.335 OA
HETATM   20  C17 UNL     1      24.633   5.664  50.598  1.00  0.00     0.120 C 
HETATM   21  C18 UNL     1      25.598   4.912  49.905  1.00  0.00     0.029 C 
HETATM   22  C19 UNL     1      26.513   5.793  48.944  1.00  0.00     0.092 C 
HETATM   23  H11 UNL     1      22.129   8.476  47.013  1.00  0.00     0.153 HD
ENDROOT
BRANCH   1  24
HETATM   24  N1  UNL     1      25.797   3.145  51.561  1.00  0.00    -0.340 N 
HETATM   25  H3  UNL     1      25.773   3.809  52.356  1.00  0.00     0.167 HD
BRANCH  24  26
HETATM   26  C4  UNL     1      26.516   2.046  52.011  1.00  0.00     0.035 A 
HETATM   27  C3  UNL     1      26.183   0.730  51.702  1.00  0.00     0.032 A 
HETATM   28  C2  UNL     1      26.920  -0.301  52.331  1.00  0.00     0.046 A 
HETATM   29  C1  UNL     1      27.954  -0.068  53.222  1.00  0.00     0.138 A 
HETATM   30  F1  UNL     1      28.667  -1.055  53.800  1.00  0.00    -0.204 F 
HETATM   31  C21 UNL     1      28.251   1.241  53.494  1.00  0.00     0.074 A 
HETATM   32  C20 UNL     1      27.518   2.269  52.879  1.00  0.00     0.056 A 
HETATM   33 CL1  UNL     1      29.572   1.605  54.596  1.00  0.00    -0.081 Cl
ENDBRANCH  24  26
ENDBRANCH   1  24
TORSDOF 2
ENDMDL
MODEL 7
REMARK VINA RESULT:      -8.9      3.899      5.862
REMARK  2 active torsions:
REMARK  status: ('A' for Active; 'I' for Inactive)
REMARK    1  A    between atoms: C4_5  and  N1_6 
REMARK    2  A    between atoms: N1_6  and  C5_7 
ROOT
HETATM    1  C5  UNL     1      23.371   2.801  49.811  1.00  0.00     0.137 C 
HETATM    2  N2  UNL     1      22.440   2.871  48.843  1.00  0.00    -0.242 NA
HETATM    3  C6  UNL     1      21.767   4.236  48.593  1.00  0.00     0.126 C 
HETATM    4  C7  UNL     1      22.120   5.531  48.945  1.00  0.00    -0.008 C 
HETATM    5  C8  UNL     1      22.902   6.303  47.873  1.00  0.00     0.206 C 
HETATM    6  O1  UNL     1      22.203   6.703  46.789  1.00  0.00    -0.385 OA
HETATM    7  C9  UNL     1      22.985   7.385  45.890  1.00  0.00     0.187 C 
HETATM    8  C10 UNL     1      23.713   8.604  46.324  1.00  0.00     0.140 C 
HETATM    9  N3  UNL     1      24.722   8.507  47.304  1.00  0.00    -0.419 N 
HETATM   10  C11 UNL     1      25.959   7.873  46.970  1.00  0.00     0.113 C 
HETATM   11  C12 UNL     1      26.810   7.597  48.251  1.00  0.00     0.021 C 
HETATM   12  O2  UNL     1      25.984   6.764  49.002  1.00  0.00     0.000 OA
HETATM   13  C13 UNL     1      26.007   5.520  49.480  1.00  0.00     0.003 A 
HETATM   14  S1  UNL     1      25.431   6.889  50.139  1.00  0.00    -0.066 SA
HETATM   15  C14 UNL     1      24.047   6.084  50.718  1.00  0.00     0.144 C 
HETATM   16  O3  UNL     1      23.603   7.332  51.150  1.00  0.00    -0.339 OA
HETATM   17  C15 UNL     1      22.174   7.438  50.620  1.00  0.00     0.213 C 
HETATM   18  C16 UNL     1      21.755   6.027  50.304  1.00  0.00     0.185 C 
HETATM   19  O4  UNL     1      22.507   5.235  51.324  1.00  0.00    -0.335 OA
HETATM   20  C17 UNL     1      23.694   4.698  50.643  1.00  0.00     0.120 C 
HETATM   21  C18 UNL     1      24.514   3.716  50.060  1.00  0.00     0.029 C 
HETATM   22  C19 UNL     1      26.046   4.141  49.978  1.00  0.00     0.092 C 
HETATM   23  H11 UNL     1      24.700   9.125  48.109  1.00  0.00     0.153 HD
ENDROOT
BRANCH   1  24
HETATM   24  N1  UNL     1      23.140   1.814  50.693  1.00  0.00    -0.340 N 
HETATM   25  H3  UNL     1      22.231   1.350  50.511  1.00  0.00     0.167 HD
BRANCH  24  26
HETATM   26  C4  UNL     1      23.685   1.157  51.787  1.00  0.00     0.035 A 
HETATM   27  C3  UNL     1      25.055   1.016  51.996  1.00  0.00     0.032 A 
HETATM   28  C2  UNL     1      25.476   0.212  53.081  1.00  0.00     0.046 A 
HETATM   29  C1  UNL     1      24.602  -0.427  53.945  1.00  0.00     0.138 A 
HETATM   30  F1  UNL     1      25.012  -1.174  54.990  1.00  0.00    -0.204 F 
HETATM   31  C21 UNL     1      23.265  -0.258  53.706  1.00  0.00     0.074 A 
HETATM   32  C20 UNL     1      22.839   0.533  52.626  1.00  0.00     0.056 A 
HETATM   33 CL1  UNL     1      22.102  -1.021  54.783  1.00  0.00    -0.081 Cl
ENDBRANCH  24  26
ENDBRANCH   1  24
TORSDOF 2
ENDMDL
MODEL 8
REMARK VINA RESULT:      -8.6      3.144      4.680
REMARK  2 active torsions:
REMARK  status: ('A' for Active; 'I' for Inactive)
REMARK    1  A    between atoms: C4_5  and  N1_6 
REMARK    2  A    between atoms: N1_6  and  C5_7 
ROOT
HETATM    1  C5  UNL     1      20.742   2.135  51.435  1.00  0.00     0.137 C 
HETATM    2  N2  UNL     1      20.541   3.092  52.359  1.00  0.00    -0.242 NA
HETATM    3  C6  UNL     1      21.460   4.329  52.320  1.00  0.00     0.126 C 
HETATM    4  C7  UNL     1      22.288   4.848  51.334  1.00  0.00    -0.008 C 
HETATM    5  C8  UNL     1      21.649   5.938  50.461  1.00  0.00     0.206 C 
HETATM    6  O1  UNL     1      21.455   7.141  51.044  1.00  0.00    -0.385 OA
HETATM    7  C9  UNL     1      20.883   8.047  50.186  1.00  0.00     0.187 C 
HETATM    8  C10 UNL     1      21.553   8.369  48.901  1.00  0.00     0.140 C 
HETATM    9  N3  UNL     1      21.712   7.367  47.921  1.00  0.00    -0.419 N 
HETATM   10  C11 UNL     1      20.561   6.894  47.216  1.00  0.00     0.113 C 
HETATM   11  C12 UNL     1      20.892   5.598  46.411  1.00  0.00     0.021 C 
HETATM   12  O2  UNL     1      21.297   4.708  47.403  1.00  0.00     0.000 OA
HETATM   13  C13 UNL     1      20.896   3.541  47.907  1.00  0.00     0.003 A 
HETATM   14  S1  UNL     1      22.393   4.109  47.636  1.00  0.00    -0.066 SA
HETATM   15  C14 UNL     1      22.948   3.493  49.123  1.00  0.00     0.144 C 
HETATM   16  O3  UNL     1      24.161   4.113  48.834  1.00  0.00    -0.339 OA
HETATM   17  C15 UNL     1      24.504   4.899  50.098  1.00  0.00     0.213 C 
HETATM   18  C16 UNL     1      23.665   4.293  51.190  1.00  0.00     0.185 C 
HETATM   19  O4  UNL     1      23.565   2.864  50.761  1.00  0.00    -0.335 OA
HETATM   20  C17 UNL     1      22.256   2.715  50.108  1.00  0.00     0.120 C 
HETATM   21  C18 UNL     1      20.924   2.290  49.970  1.00  0.00     0.029 C 
HETATM   22  C19 UNL     1      20.423   2.266  48.459  1.00  0.00     0.092 C 
HETATM   23  H11 UNL     1      22.626   7.206  47.512  1.00  0.00     0.153 HD
ENDROOT
BRANCH   1  24
HETATM   24  N1  UNL     1      20.879   0.909  51.969  1.00  0.00    -0.340 N 
HETATM   25  H3  UNL     1      20.229   0.231  51.529  1.00  0.00     0.167 HD
BRANCH  24  26
HETATM   26  C4  UNL     1      21.594   0.185  52.912  1.00  0.00     0.035 A 
HETATM   27  C3  UNL     1      21.017  -0.380  54.047  1.00  0.00     0.032 A 
HETATM   28  C2  UNL     1      21.880  -0.981  54.994  1.00  0.00     0.046 A 
HETATM   29  C1  UNL     1      23.256  -1.043  54.845  1.00  0.00     0.138 A 
HETATM   30  F1  UNL     1      24.069  -1.638  55.741  1.00  0.00    -0.204 F 
HETATM   31  C21 UNL     1      23.779  -0.480  53.713  1.00  0.00     0.074 A 
HETATM   32  C20 UNL     1      22.930   0.124  52.772  1.00  0.00     0.056 A 
HETATM   33 CL1  UNL     1      25.517  -0.552  53.449  1.00  0.00    -0.081 Cl
ENDBRANCH  24  26
ENDBRANCH   1  24
TORSDOF 2
ENDMDL
MODEL 9
REMARK VINA RESULT:      -8.6      6.255      7.663
REMARK  2 active torsions:
REMARK  status: ('A' for Active; 'I' for Inactive)
REMARK    1  A    between atoms: C4_5  and  N1_6 
REMARK    2  A    between atoms: N1_6  and  C5_7 
ROOT
HETATM    1  C5  UNL     1      27.797   6.032  48.438  1.00  0.00     0.137 C 
HETATM    2  N2  UNL     1      27.307   4.802  48.678  1.00  0.00    -0.242 NA
HETATM    3  C6  UNL     1      25.920   4.701  49.344  1.00  0.00     0.126 C 
HETATM    4  C7  UNL     1      24.885   5.614  49.492  1.00  0.00    -0.008 C 
HETATM    5  C8  UNL     1      23.797   5.539  48.410  1.00  0.00     0.206 C 
HETATM    6  O1  UNL     1      22.971   4.472  48.459  1.00  0.00    -0.385 OA
HETATM    7  C9  UNL     1      22.034   4.496  47.456  1.00  0.00     0.187 C 
HETATM    8  C10 UNL     1      21.121   5.659  47.329  1.00  0.00     0.140 C 
HETATM    9  N3  UNL     1      21.643   6.933  47.027  1.00  0.00    -0.419 N 
HETATM   10  C11 UNL     1      22.161   7.181  45.718  1.00  0.00     0.113 C 
HETATM   11  C12 UNL     1      22.957   8.524  45.676  1.00  0.00     0.021 C 
HETATM   12  O2  UNL     1      23.973   8.314  46.606  1.00  0.00     0.000 OA
HETATM   13  C13 UNL     1      25.304   8.251  46.617  1.00  0.00     0.003 A 
HETATM   14  S1  UNL     1      24.273   8.879  47.704  1.00  0.00    -0.066 SA
HETATM   15  C14 UNL     1      25.167   8.229  48.999  1.00  0.00     0.144 C 
HETATM   16  O3  UNL     1      24.165   8.723  49.832  1.00  0.00    -0.339 OA
HETATM   17  C15 UNL     1      23.787   7.542  50.724  1.00  0.00     0.213 C 
HETATM   18  C16 UNL     1      24.939   6.579  50.628  1.00  0.00     0.185 C 
HETATM   19  O4  UNL     1      26.104   7.493  50.427  1.00  0.00    -0.335 OA
HETATM   20  C17 UNL     1      26.394   7.490  48.986  1.00  0.00     0.120 C 
HETATM   21  C18 UNL     1      27.112   7.193  47.815  1.00  0.00     0.029 C 
HETATM   22  C19 UNL     1      26.769   8.165  46.601  1.00  0.00     0.092 C 
HETATM   23  H11 UNL     1      21.387   7.729  47.602  1.00  0.00     0.153 HD
ENDROOT
BRANCH   1  24
HETATM   24  N1  UNL     1      29.036   6.209  48.926  1.00  0.00    -0.340 N 
HETATM   25  H3  UNL     1      29.013   6.476  49.928  1.00  0.00     0.167 HD
BRANCH  24  26
HETATM   26  C4  UNL     1      30.380   6.159  48.582  1.00  0.00     0.035 A 
HETATM   27  C3  UNL     1      31.307   7.128  48.959  1.00  0.00     0.032 A 
HETATM   28  C2  UNL     1      32.616   7.025  48.434  1.00  0.00     0.046 A 
HETATM   29  C1  UNL     1      33.021   6.013  47.580  1.00  0.00     0.138 A 
HETATM   30  F1  UNL     1      34.278   5.909  47.101  1.00  0.00    -0.204 F 
HETATM   31  C21 UNL     1      32.080   5.080  47.239  1.00  0.00     0.074 A 
HETATM   32  C20 UNL     1      30.775   5.179  47.751  1.00  0.00     0.056 A 
HETATM   33 CL1  UNL     1      32.538   3.751  46.180  1.00  0.00    -0.081 Cl
ENDBRANCH  24  26
ENDBRANCH   1  24
TORSDOF 2
ENDMDL
