MODEL 1
REMARK VINA RESULT:      -9.1      0.000      0.000
REMARK  4 active torsions:
REMARK  status: ('A' for Active; 'I' for Inactive)
REMARK    1  A    between atoms: C5_5  and  C6_6 
REMARK    2  A    between atoms: N1_7  and  N2_8 
REMARK    3  A    between atoms: C8_11  and  O1_12 
REMARK    4  A    between atoms: C10_14  and  C11_15 
ROOT
HETATM    1  N2  UNL     1      23.535   1.220  52.957  1.00  0.00    -0.255 N 
HETATM    2  C7  UNL     1      22.119   1.329  52.812  1.00  0.00     0.226 C 
HETATM    3  N3  UNL     1      21.317   0.383  53.155  1.00  0.00    -0.252 NA
HETATM    4  C8  UNL     1      21.743  -0.870  53.713  1.00  0.00     0.244 C 
HETATM    5  C9  UNL     1      23.221  -1.062  53.760  1.00  0.00     0.087 C 
HETATM    6  C10 UNL     1      24.012   0.196  53.880  1.00  0.00     0.148 C 
ENDROOT
BRANCH   1   7
HETATM    7  N1  UNL     1      24.255   2.130  52.175  1.00  0.00    -0.182 NA
HETATM    8  C6  UNL     1      24.032   2.359  50.928  1.00  0.00     0.150 C 
BRANCH   8   9
HETATM    9  C5  UNL     1      24.877   3.341  50.260  1.00  0.00    -0.017 A 
HETATM   10  C4  UNL     1      26.188   3.121  49.933  1.00  0.00     0.013 A 
HETATM   11  C3  UNL     1      27.002   4.037  49.301  1.00  0.00     0.007 A 
HETATM   12  C2  UNL     1      26.493   5.265  48.962  1.00  0.00    -0.062 A 
HETATM   13  C1  UNL     1      27.420   6.211  48.282  1.00  0.00     0.048 C 
HETATM   14  C18 UNL     1      25.178   5.547  49.264  1.00  0.00     0.007 A 
HETATM   15  C17 UNL     1      24.418   4.587  49.897  1.00  0.00     0.013 A 
ENDBRANCH   8   9
ENDBRANCH   1   7
BRANCH   6  16
HETATM   16  C11 UNL     1      25.444  -0.093  53.763  1.00  0.00    -0.033 A 
HETATM   17  C12 UNL     1      26.373   0.440  54.651  1.00  0.00     0.011 A 
HETATM   18  C13 UNL     1      27.731   0.208  54.594  1.00  0.00     0.024 A 
HETATM   19  C14 UNL     1      28.206  -0.615  53.583  1.00  0.00     0.034 A 
HETATM   20 CL1  UNL     1      29.915  -0.969  53.431  1.00  0.00    -0.084 Cl
HETATM   21  C15 UNL     1      27.322  -1.164  52.683  1.00  0.00     0.024 A 
HETATM   22  C16 UNL     1      25.968  -0.908  52.770  1.00  0.00     0.011 A 
ENDBRANCH   6  16
BRANCH   4  23
HETATM   23  O1  UNL     1      21.147  -0.996  54.968  1.00  0.00    -0.375 OA
HETATM   24  H9  UNL     1      21.765  -1.213  55.696  1.00  0.00     0.212 HD
ENDBRANCH   4  23
TORSDOF 4
ENDMDL
MODEL 2
REMARK VINA RESULT:      -8.4      2.913      5.717
REMARK  4 active torsions:
REMARK  status: ('A' for Active; 'I' for Inactive)
REMARK    1  A    between atoms: C5_5  and  C6_6 
REMARK    2  A    between atoms: N1_7  and  N2_8 
REMARK    3  A    between atoms: C8_11  and  O1_12 
REMARK    4  A    between atoms: C10_14  and  C11_15 
ROOT
HETATM    1  N2  UNL     1      22.377  -0.673  52.931  1.00  0.00    -0.255 N 
HETATM    2  C7  UNL     1      21.754  -1.610  53.811  1.00  0.00     0.226 C 
HETATM    3  N3  UNL     1      20.516  -1.519  54.147  1.00  0.00    -0.252 NA
HETATM    4  C8  UNL     1      19.630  -0.486  53.689  1.00  0.00     0.244 C 
HETATM    5  C9  UNL     1      20.282   0.577  52.870  1.00  0.00     0.087 C 
HETATM    6  C10 UNL     1      21.481   0.129  52.105  1.00  0.00     0.148 C 
ENDROOT
BRANCH   1   7
HETATM    7  N1  UNL     1      23.774  -0.672  53.003  1.00  0.00    -0.182 NA
HETATM    8  C6  UNL     1      24.451  -0.431  54.070  1.00  0.00     0.150 C 
BRANCH   8   9
HETATM    9  C5  UNL     1      25.905  -0.470  53.972  1.00  0.00    -0.017 A 
HETATM   10  C4  UNL     1      26.584  -1.165  53.009  1.00  0.00     0.013 A 
HETATM   11  C3  UNL     1      27.958  -1.214  52.899  1.00  0.00     0.007 A 
HETATM   12  C2  UNL     1      28.727  -0.527  53.805  1.00  0.00    -0.062 A 
HETATM   13  C1  UNL     1      30.204  -0.617  53.634  1.00  0.00     0.048 C 
HETATM   14  C18 UNL     1      28.102   0.194  54.799  1.00  0.00     0.007 A 
HETATM   15  C17 UNL     1      26.724   0.200  54.853  1.00  0.00     0.013 A 
ENDBRANCH   8   9
ENDBRANCH   1   7
BRANCH   6  16
HETATM   16  C11 UNL     1      22.129   1.277  51.462  1.00  0.00    -0.033 A 
HETATM   17  C12 UNL     1      22.253   1.368  50.080  1.00  0.00     0.011 A 
HETATM   18  C13 UNL     1      22.851   2.418  49.417  1.00  0.00     0.024 A 
HETATM   19  C14 UNL     1      23.364   3.458  50.178  1.00  0.00     0.034 A 
HETATM   20 CL1  UNL     1      24.142   4.835  49.424  1.00  0.00    -0.084 Cl
HETATM   21  C15 UNL     1      23.263   3.409  51.550  1.00  0.00     0.024 A 
HETATM   22  C16 UNL     1      22.658   2.341  52.181  1.00  0.00     0.011 A 
ENDBRANCH   6  16
BRANCH   4  23
HETATM   23  O1  UNL     1      18.574  -1.104  53.020  1.00  0.00    -0.375 OA
HETATM   24  H9  UNL     1      18.816  -1.523  52.168  1.00  0.00     0.212 HD
ENDBRANCH   4  23
TORSDOF 4
ENDMDL
MODEL 3
REMARK VINA RESULT:      -8.2      3.272      6.554
REMARK  4 active torsions:
REMARK  status: ('A' for Active; 'I' for Inactive)
REMARK    1  A    between atoms: C5_5  and  C6_6 
REMARK    2  A    between atoms: N1_7  and  N2_8 
REMARK    3  A    between atoms: C8_11  and  O1_12 
REMARK    4  A    between atoms: C10_14  and  C11_15 
ROOT
HETATM    1  N2  UNL     1      25.097   0.493  53.317  1.00  0.00    -0.255 N 
HETATM    2  C7  UNL     1      25.523  -0.620  54.103  1.00  0.00     0.226 C 
HETATM    3  N3  UNL     1      26.765  -0.915  54.262  1.00  0.00    -0.252 NA
HETATM    4  C8  UNL     1      27.849  -0.176  53.679  1.00  0.00     0.244 C 
HETATM    5  C9  UNL     1      27.432   0.916  52.752  1.00  0.00     0.087 C 
HETATM    6  C10 UNL     1      26.102   1.517  53.052  1.00  0.00     0.148 C 
ENDROOT
BRANCH   1   7
HETATM    7  N1  UNL     1      23.758   0.424  52.917  1.00  0.00    -0.182 NA
HETATM    8  C6  UNL     1      22.838  -0.215  53.552  1.00  0.00     0.150 C 
BRANCH   8   9
HETATM    9  C5  UNL     1      21.490  -0.187  52.997  1.00  0.00    -0.017 A 
HETATM   10  C4  UNL     1      21.183   0.334  51.770  1.00  0.00     0.013 A 
HETATM   11  C3  UNL     1      19.915   0.369  51.228  1.00  0.00     0.007 A 
HETATM   12  C2  UNL     1      18.865  -0.147  51.946  1.00  0.00    -0.062 A 
HETATM   13  C1  UNL     1      17.521  -0.080  51.309  1.00  0.00     0.048 C 
HETATM   14  C18 UNL     1      19.110  -0.686  53.190  1.00  0.00     0.007 A 
HETATM   15  C17 UNL     1      20.402  -0.690  53.674  1.00  0.00     0.013 A 
ENDBRANCH   8   9
ENDBRANCH   1   7
BRANCH   6  16
HETATM   16  C11 UNL     1      25.725   2.465  51.999  1.00  0.00    -0.033 A 
HETATM   17  C12 UNL     1      26.467   2.590  50.829  1.00  0.00     0.011 A 
HETATM   18  C13 UNL     1      26.167   3.462  49.803  1.00  0.00     0.024 A 
HETATM   19  C14 UNL     1      25.047   4.269  49.945  1.00  0.00     0.034 A 
HETATM   20 CL1  UNL     1      24.587   5.406  48.694  1.00  0.00    -0.084 Cl
HETATM   21  C15 UNL     1      24.285   4.177  51.087  1.00  0.00     0.024 A 
HETATM   22  C16 UNL     1      24.616   3.294  52.094  1.00  0.00     0.011 A 
ENDBRANCH   6  16
BRANCH   4  23
HETATM   23  O1  UNL     1      28.652   0.285  54.722  1.00  0.00    -0.375 OA
HETATM   24  H9  UNL     1      29.610   0.324  54.517  1.00  0.00     0.212 HD
ENDBRANCH   4  23
TORSDOF 4
ENDMDL
MODEL 4
REMARK VINA RESULT:      -8.0      3.117      6.329
REMARK  4 active torsions:
REMARK  status: ('A' for Active; 'I' for Inactive)
REMARK    1  A    between atoms: C5_5  and  C6_6 
REMARK    2  A    between atoms: N1_7  and  N2_8 
REMARK    3  A    between atoms: C8_11  and  O1_12 
REMARK    4  A    between atoms: C10_14  and  C11_15 
ROOT
HETATM    1  N2  UNL     1      23.965   3.485  51.402  1.00  0.00    -0.255 N 
HETATM    2  C7  UNL     1      22.804   3.296  52.211  1.00  0.00     0.226 C 
HETATM    3  N3  UNL     1      21.835   4.142  52.232  1.00  0.00    -0.252 NA
HETATM    4  C8  UNL     1      21.808   5.354  51.462  1.00  0.00     0.244 C 
HETATM    5  C9  UNL     1      23.060   5.640  50.704  1.00  0.00     0.087 C 
HETATM    6  C10 UNL     1      23.837   4.433  50.301  1.00  0.00     0.148 C 
ENDROOT
BRANCH   1   7
HETATM    7  N1  UNL     1      25.063   2.715  51.802  1.00  0.00    -0.182 NA
HETATM    8  C6  UNL     1      24.989   1.507  52.239  1.00  0.00     0.150 C 
BRANCH   8   9
HETATM    9  C5  UNL     1      26.233   0.847  52.615  1.00  0.00    -0.017 A 
HETATM   10  C4  UNL     1      26.424  -0.507  52.556  1.00  0.00     0.013 A 
HETATM   11  C3  UNL     1      27.594  -1.148  52.907  1.00  0.00     0.007 A 
HETATM   12  C2  UNL     1      28.659  -0.405  53.351  1.00  0.00    -0.062 A 
HETATM   13  C1  UNL     1      29.893  -1.155  53.714  1.00  0.00     0.048 C 
HETATM   14  C18 UNL     1      28.529   0.964  53.432  1.00  0.00     0.007 A 
HETATM   15  C17 UNL     1      27.332   1.543  53.066  1.00  0.00     0.013 A 
ENDBRANCH   8   9
ENDBRANCH   1   7
BRANCH   6  16
HETATM   16  C11 UNL     1      25.115   4.830  49.703  1.00  0.00    -0.033 A 
HETATM   17  C12 UNL     1      25.380   6.149  49.353  1.00  0.00     0.011 A 
HETATM   18  C13 UNL     1      26.559   6.585  48.787  1.00  0.00     0.024 A 
HETATM   19  C14 UNL     1      27.552   5.646  48.550  1.00  0.00     0.034 A 
HETATM   20 CL1  UNL     1      29.083   6.105  47.835  1.00  0.00    -0.084 Cl
HETATM   21  C15 UNL     1      27.331   4.328  48.881  1.00  0.00     0.024 A 
HETATM   22  C16 UNL     1      26.137   3.927  49.445  1.00  0.00     0.011 A 
ENDBRANCH   6  16
BRANCH   4  23
HETATM   23  O1  UNL     1      20.683   5.302  50.638  1.00  0.00    -0.375 OA
HETATM   24  H9  UNL     1      20.354   4.399  50.448  1.00  0.00     0.212 HD
ENDBRANCH   4  23
TORSDOF 4
ENDMDL
MODEL 5
REMARK VINA RESULT:      -7.9      3.301      4.860
REMARK  4 active torsions:
REMARK  status: ('A' for Active; 'I' for Inactive)
REMARK    1  A    between atoms: C5_5  and  C6_6 
REMARK    2  A    between atoms: N1_7  and  N2_8 
REMARK    3  A    between atoms: C8_11  and  O1_12 
REMARK    4  A    between atoms: C10_14  and  C11_15 
ROOT
HETATM    1  N2  UNL     1      26.088   1.995  51.746  1.00  0.00    -0.255 N 
HETATM    2  C7  UNL     1      27.277   1.488  52.354  1.00  0.00     0.226 C 
HETATM    3  N3  UNL     1      27.247   0.651  53.331  1.00  0.00    -0.252 NA
HETATM    4  C8  UNL     1      26.039   0.139  53.916  1.00  0.00     0.244 C 
HETATM    5  C9  UNL     1      24.784   0.745  53.386  1.00  0.00     0.087 C 
HETATM    6  C10 UNL     1      24.868   1.230  51.978  1.00  0.00     0.148 C 
ENDROOT
BRANCH   1   7
HETATM    7  N1  UNL     1      26.286   3.169  51.011  1.00  0.00    -0.182 NA
HETATM    8  C6  UNL     1      26.557   3.206  49.753  1.00  0.00     0.150 C 
BRANCH   8   9
HETATM    9  C5  UNL     1      26.735   4.516  49.139  1.00  0.00    -0.017 A 
HETATM   10  C4  UNL     1      27.923   4.963  48.628  1.00  0.00     0.013 A 
HETATM   11  C3  UNL     1      28.109   6.198  48.043  1.00  0.00     0.007 A 
HETATM   12  C2  UNL     1      27.048   7.064  47.952  1.00  0.00    -0.062 A 
HETATM   13  C1  UNL     1      27.312   8.381  47.310  1.00  0.00     0.048 C 
HETATM   14  C18 UNL     1      25.824   6.672  48.448  1.00  0.00     0.007 A 
HETATM   15  C17 UNL     1      25.705   5.423  49.021  1.00  0.00     0.013 A 
ENDBRANCH   8   9
ENDBRANCH   1   7
BRANCH   6  16
HETATM   16  C11 UNL     1      23.639   1.940  51.613  1.00  0.00    -0.033 A 
HETATM   17  C12 UNL     1      23.028   2.840  52.480  1.00  0.00     0.011 A 
HETATM   18  C13 UNL     1      21.873   3.537  52.197  1.00  0.00     0.024 A 
HETATM   19  C14 UNL     1      21.277   3.329  50.962  1.00  0.00     0.034 A 
HETATM   20 CL1  UNL     1      19.807   4.170  50.512  1.00  0.00    -0.084 Cl
HETATM   21  C15 UNL     1      21.847   2.447  50.072  1.00  0.00     0.024 A 
HETATM   22  C16 UNL     1      23.005   1.765  50.391  1.00  0.00     0.011 A 
ENDBRANCH   6  16
BRANCH   4  23
HETATM   23  O1  UNL     1      26.062  -1.249  53.779  1.00  0.00    -0.375 OA
HETATM   24  H9  UNL     1      25.892  -1.575  52.871  1.00  0.00     0.212 HD
ENDBRANCH   4  23
TORSDOF 4
ENDMDL
MODEL 6
REMARK VINA RESULT:      -7.9      3.373      4.989
REMARK  4 active torsions:
REMARK  status: ('A' for Active; 'I' for Inactive)
REMARK    1  A    between atoms: C5_5  and  C6_6 
REMARK    2  A    between atoms: N1_7  and  N2_8 
REMARK    3  A    between atoms: C8_11  and  O1_12 
REMARK    4  A    between atoms: C10_14  and  C11_15 
ROOT
HETATM    1  N2  UNL     1      25.239   1.702  53.265  1.00  0.00    -0.255 N 
HETATM    2  C7  UNL     1      26.578   2.079  53.588  1.00  0.00     0.226 C 
HETATM    3  N3  UNL     1      27.341   1.346  54.321  1.00  0.00    -0.252 NA
HETATM    4  C8  UNL     1      26.945   0.089  54.890  1.00  0.00     0.244 C 
HETATM    5  C9  UNL     1      25.514  -0.271  54.673  1.00  0.00     0.087 C 
HETATM    6  C10 UNL     1      24.908   0.291  53.432  1.00  0.00     0.148 C 
ENDROOT
BRANCH   1   7
HETATM    7  N1  UNL     1      24.442   2.766  52.830  1.00  0.00    -0.182 NA
HETATM    8  C6  UNL     1      24.626   3.418  51.736  1.00  0.00     0.150 C 
BRANCH   8   9
HETATM    9  C5  UNL     1      23.701   4.504  51.432  1.00  0.00    -0.017 A 
HETATM   10  C4  UNL     1      24.096   5.743  51.006  1.00  0.00     0.013 A 
HETATM   11  C3  UNL     1      23.236   6.781  50.714  1.00  0.00     0.007 A 
HETATM   12  C2  UNL     1      21.883   6.590  50.849  1.00  0.00    -0.062 A 
HETATM   13  C1  UNL     1      21.007   7.747  50.518  1.00  0.00     0.048 C 
HETATM   14  C18 UNL     1      21.423   5.362  51.274  1.00  0.00     0.007 A 
HETATM   15  C17 UNL     1      22.337   4.366  51.550  1.00  0.00     0.013 A 
ENDBRANCH   8   9
ENDBRANCH   1   7
BRANCH   6  16
HETATM   16  C11 UNL     1      23.471   0.007  53.396  1.00  0.00    -0.033 A 
HETATM   17  C12 UNL     1      22.825  -0.633  54.449  1.00  0.00     0.011 A 
HETATM   18  C13 UNL     1      21.479  -0.930  54.476  1.00  0.00     0.024 A 
HETATM   19  C14 UNL     1      20.713  -0.565  53.379  1.00  0.00     0.034 A 
HETATM   20 CL1  UNL     1      18.994  -0.899  53.322  1.00  0.00    -0.084 Cl
HETATM   21  C15 UNL     1      21.310   0.070  52.314  1.00  0.00     0.024 A 
HETATM   22  C16 UNL     1      22.662   0.351  52.321  1.00  0.00     0.011 A 
ENDBRANCH   6  16
BRANCH   4  23
HETATM   23  O1  UNL     1      27.820  -0.885  54.408  1.00  0.00    -0.375 OA
HETATM   24  H9  UNL     1      28.109  -0.754  53.481  1.00  0.00     0.212 HD
ENDBRANCH   4  23
TORSDOF 4
ENDMDL
MODEL 7
REMARK VINA RESULT:      -7.8      3.107      4.566
REMARK  4 active torsions:
REMARK  status: ('A' for Active; 'I' for Inactive)
REMARK    1  A    between atoms: C5_5  and  C6_6 
REMARK    2  A    between atoms: N1_7  and  N2_8 
REMARK    3  A    between atoms: C8_11  and  O1_12 
REMARK    4  A    between atoms: C10_14  and  C11_15 
ROOT
HETATM    1  N2  UNL     1      26.521   1.641  52.484  1.00  0.00    -0.255 N 
HETATM    2  C7  UNL     1      27.877   1.944  52.814  1.00  0.00     0.226 C 
HETATM    3  N3  UNL     1      28.475   1.412  53.821  1.00  0.00    -0.252 NA
HETATM    4  C8  UNL     1      27.863   0.469  54.715  1.00  0.00     0.244 C 
HETATM    5  C9  UNL     1      26.412   0.228  54.469  1.00  0.00     0.087 C 
HETATM    6  C10 UNL     1      25.977   0.414  53.055  1.00  0.00     0.148 C 
ENDROOT
BRANCH   1   7
HETATM    7  N1  UNL     1      25.918   2.587  51.647  1.00  0.00    -0.182 NA
HETATM    8  C6  UNL     1      26.437   3.036  50.558  1.00  0.00     0.150 C 
BRANCH   8   9
HETATM    9  C5  UNL     1      25.674   4.022  49.803  1.00  0.00    -0.017 A 
HETATM   10  C4  UNL     1      26.190   5.212  49.368  1.00  0.00     0.013 A 
HETATM   11  C3  UNL     1      25.484   6.157  48.652  1.00  0.00     0.007 A 
HETATM   12  C2  UNL     1      24.169   5.916  48.339  1.00  0.00    -0.062 A 
HETATM   13  C1  UNL     1      23.461   6.973  47.565  1.00  0.00     0.048 C 
HETATM   14  C18 UNL     1      23.592   4.734  48.749  1.00  0.00     0.007 A 
HETATM   15  C17 UNL     1      24.354   3.832  49.462  1.00  0.00     0.013 A 
ENDBRANCH   8   9
ENDBRANCH   1   7
BRANCH   6  16
HETATM   16  C11 UNL     1      24.519   0.304  52.955  1.00  0.00    -0.033 A 
HETATM   17  C12 UNL     1      23.785  -0.502  53.820  1.00  0.00     0.011 A 
HETATM   18  C13 UNL     1      22.415  -0.648  53.777  1.00  0.00     0.024 A 
HETATM   19  C14 UNL     1      21.717   0.056  52.806  1.00  0.00     0.034 A 
HETATM   20 CL1  UNL     1      19.974  -0.067  52.674  1.00  0.00    -0.084 Cl
HETATM   21  C15 UNL     1      22.404   0.865  51.930  1.00  0.00     0.024 A 
HETATM   22  C16 UNL     1      23.777   0.987  52.001  1.00  0.00     0.011 A 
ENDBRANCH   6  16
BRANCH   4  23
HETATM   23  O1  UNL     1      28.616  -0.704  54.668  1.00  0.00    -0.375 OA
HETATM   24  H9  UNL     1      28.950  -0.942  53.778  1.00  0.00     0.212 HD
ENDBRANCH   4  23
TORSDOF 4
ENDMDL
MODEL 8
REMARK VINA RESULT:      -7.5      2.742      5.960
REMARK  4 active torsions:
REMARK  status: ('A' for Active; 'I' for Inactive)
REMARK    1  A    between atoms: C5_5  and  C6_6 
REMARK    2  A    between atoms: N1_7  and  N2_8 
REMARK    3  A    between atoms: C8_11  and  O1_12 
REMARK    4  A    between atoms: C10_14  and  C11_15 
ROOT
HETATM    1  N2  UNL     1      22.650   2.141  51.928  1.00  0.00    -0.255 N 
HETATM    2  C7  UNL     1      21.647   1.362  52.580  1.00  0.00     0.226 C 
HETATM    3  N3  UNL     1      20.451   1.799  52.768  1.00  0.00    -0.252 NA
HETATM    4  C8  UNL     1      19.993   3.096  52.355  1.00  0.00     0.244 C 
HETATM    5  C9  UNL     1      21.052   3.979  51.784  1.00  0.00     0.087 C 
HETATM    6  C10 UNL     1      22.175   3.258  51.119  1.00  0.00     0.148 C 
ENDROOT
BRANCH   1   7
HETATM    7  N1  UNL     1      23.955   1.700  52.174  1.00  0.00    -0.182 NA
HETATM    8  C6  UNL     1      24.269   0.776  53.013  1.00  0.00     0.150 C 
BRANCH   8   9
HETATM    9  C5  UNL     1      25.681   0.438  53.148  1.00  0.00    -0.017 A 
HETATM   10  C4  UNL     1      26.201  -0.791  52.845  1.00  0.00     0.013 A 
HETATM   11  C3  UNL     1      27.533  -1.129  52.966  1.00  0.00     0.007 A 
HETATM   12  C2  UNL     1      28.424  -0.190  53.420  1.00  0.00    -0.062 A 
HETATM   13  C1  UNL     1      29.847  -0.615  53.529  1.00  0.00     0.048 C 
HETATM   14  C18 UNL     1      27.962   1.067  53.741  1.00  0.00     0.007 A 
HETATM   15  C17 UNL     1      26.617   1.341  53.598  1.00  0.00     0.013 A 
ENDBRANCH   8   9
ENDBRANCH   1   7
BRANCH   6  16
HETATM   16  C11 UNL     1      23.226   4.205  50.734  1.00  0.00    -0.033 A 
HETATM   17  C12 UNL     1      24.044   3.982  49.631  1.00  0.00     0.011 A 
HETATM   18  C13 UNL     1      25.048   4.832  49.218  1.00  0.00     0.024 A 
HETATM   19  C14 UNL     1      25.258   5.991  49.950  1.00  0.00     0.034 A 
HETATM   20 CL1  UNL     1      26.511   7.131  49.502  1.00  0.00    -0.084 Cl
HETATM   21  C15 UNL     1      24.472   6.252  51.049  1.00  0.00     0.024 A 
HETATM   22  C16 UNL     1      23.476   5.377  51.435  1.00  0.00     0.011 A 
ENDBRANCH   6  16
BRANCH   4  23
HETATM   23  O1  UNL     1      18.926   2.905  51.478  1.00  0.00    -0.375 OA
HETATM   24  H9  UNL     1      19.177   2.839  50.533  1.00  0.00     0.212 HD
ENDBRANCH   4  23
TORSDOF 4
ENDMDL
MODEL 9
REMARK VINA RESULT:      -7.3      3.657      7.224
REMARK  4 active torsions:
REMARK  status: ('A' for Active; 'I' for Inactive)
REMARK    1  A    between atoms: C5_5  and  C6_6 
REMARK    2  A    between atoms: N1_7  and  N2_8 
REMARK    3  A    between atoms: C8_11  and  O1_12 
REMARK    4  A    between atoms: C10_14  and  C11_15 
ROOT
HETATM    1  N2  UNL     1      24.093   5.553  50.294  1.00  0.00    -0.255 N 
HETATM    2  C7  UNL     1      22.848   5.897  50.902  1.00  0.00     0.226 C 
HETATM    3  N3  UNL     1      22.376   7.094  50.874  1.00  0.00    -0.252 NA
HETATM    4  C8  UNL     1      23.033   8.203  50.241  1.00  0.00     0.244 C 
HETATM    5  C9  UNL     1      24.392   7.902  49.707  1.00  0.00     0.087 C 
HETATM    6  C10 UNL     1      24.601   6.485  49.293  1.00  0.00     0.148 C 
ENDROOT
BRANCH   1   7
HETATM    7  N1  UNL     1      24.639   4.353  50.763  1.00  0.00    -0.182 NA
HETATM    8  C6  UNL     1      23.957   3.397  51.291  1.00  0.00     0.150 C 
BRANCH   8   9
HETATM    9  C5  UNL     1      24.684   2.212  51.730  1.00  0.00    -0.017 A 
HETATM   10  C4  UNL     1      24.132   1.221  52.496  1.00  0.00     0.013 A 
HETATM   11  C3  UNL     1      24.804   0.093  52.920  1.00  0.00     0.007 A 
HETATM   12  C2  UNL     1      26.119  -0.077  52.566  1.00  0.00    -0.062 A 
HETATM   13  C1  UNL     1      26.789  -1.314  53.053  1.00  0.00     0.048 C 
HETATM   14  C18 UNL     1      26.731   0.886  51.794  1.00  0.00     0.007 A 
HETATM   15  C17 UNL     1      26.003   1.991  51.403  1.00  0.00     0.013 A 
ENDBRANCH   8   9
ENDBRANCH   1   7
BRANCH   6  16
HETATM   16  C11 UNL     1      26.005   6.265  48.931  1.00  0.00    -0.033 A 
HETATM   17  C12 UNL     1      26.573   4.996  48.939  1.00  0.00     0.011 A 
HETATM   18  C13 UNL     1      27.884   4.725  48.611  1.00  0.00     0.024 A 
HETATM   19  C14 UNL     1      28.695   5.789  48.246  1.00  0.00     0.034 A 
HETATM   20 CL1  UNL     1      30.374   5.542  47.812  1.00  0.00    -0.084 Cl
HETATM   21  C15 UNL     1      28.174   7.063  48.225  1.00  0.00     0.024 A 
HETATM   22  C16 UNL     1      26.856   7.298  48.561  1.00  0.00     0.011 A 
ENDBRANCH   6  16
BRANCH   4  23
HETATM   23  O1  UNL     1      22.170   8.699  49.263  1.00  0.00    -0.375 OA
HETATM   24  H9  UNL     1      21.607   9.446  49.552  1.00  0.00     0.212 HD
ENDBRANCH   4  23
TORSDOF 4
ENDMDL
