MODEL 1
REMARK VINA RESULT:      -9.3      0.000      0.000
REMARK  5 active torsions:
REMARK  status: ('A' for Active; 'I' for Inactive)
REMARK    1  A    between atoms: N1_1  and  C1_2 
REMARK    2  A    between atoms: C2_3  and  C3_4 
REMARK    3  A    between atoms: N3_7  and  C5_8 
REMARK    4  A    between atoms: C15_20  and  N6_21 
REMARK    5  A    between atoms: N6_21  and  C16_22 
ROOT
HETATM    1  C1  UNL     1      23.682   5.579  51.360  1.00  0.00     0.024 C 
HETATM    2  C2  UNL     1      23.687   4.217  51.283  1.00  0.00     0.014 C 
HETATM    3  C11 UNL     1      22.111   4.122  51.404  1.00  0.00     0.020 C 
HETATM    4  C12 UNL     1      21.542   5.342  51.587  1.00  0.00     0.002 C 
HETATM    5  C13 UNL     1      22.439   5.747  50.479  1.00  0.00     0.079 C 
HETATM    6  C14 UNL     1      21.900   4.892  49.445  1.00  0.00     0.165 C 
HETATM    7  N5  UNL     1      20.988   3.697  50.094  1.00  0.00    -0.271 NA
HETATM    8  C15 UNL     1      21.970   2.842  50.587  1.00  0.00     0.134 C 
ENDROOT
BRANCH   2   9
HETATM    9  C3  UNL     1      25.022   3.566  51.191  1.00  0.00     0.013 A 
HETATM   10  C4  UNL     1      25.935   3.673  50.176  1.00  0.00     0.152 A 
HETATM   11  N2  UNL     1      26.892   2.857  50.584  1.00  0.00    -0.184 NA
HETATM   12  N3  UNL     1      26.619   2.294  51.731  1.00  0.00    -0.276 N 
HETATM   13  C10 UNL     1      25.432   2.694  52.197  1.00  0.00     0.126 A 
BRANCH  12  14
HETATM   14  C5  UNL     1      27.472   1.357  52.427  1.00  0.00     0.113 C 
HETATM   15  C6  UNL     1      27.764   1.813  53.829  1.00  0.00     0.057 C 
HETATM   16  C7  UNL     1      28.844   0.858  54.359  1.00  0.00     0.271 C 
HETATM   17  N4  UNL     1      28.248  -0.455  54.424  1.00  0.00     0.083 N 
HETATM   18  C8  UNL     1      27.904  -0.921  53.083  1.00  0.00     0.271 C 
HETATM   19  H9  UNL     1      28.995  -1.115  54.791  1.00  0.00     0.315 HD
HETATM   20  C9  UNL     1      26.832  -0.010  52.515  1.00  0.00     0.057 C 
ENDBRANCH  12  14
ENDBRANCH   2   9
BRANCH   1  21
HETATM   21  N1  UNL     1      24.472   6.605  51.958  1.00  0.00    -0.401 N 
HETATM   22  H1  UNL     1      25.414   6.790  51.537  1.00  0.00     0.156 HD
HETATM   23  H2  UNL     1      24.253   7.217  52.771  1.00  0.00     0.156 HD
ENDBRANCH   1  21
BRANCH   8  24
HETATM   24  N6  UNL     1      22.472   1.538  50.536  1.00  0.00    -0.341 N 
HETATM   25  H19 UNL     1      23.103   1.480  49.725  1.00  0.00     0.167 HD
BRANCH  24  26
HETATM   26  C16 UNL     1      21.964   0.781  51.606  1.00  0.00     0.035 A 
HETATM   27  C17 UNL     1      23.011   0.484  52.430  1.00  0.00     0.032 A 
HETATM   28  C18 UNL     1      22.717  -0.288  53.565  1.00  0.00     0.046 A 
HETATM   29  C19 UNL     1      21.448  -0.741  53.863  1.00  0.00     0.138 A 
HETATM   30  F1  UNL     1      21.167  -1.486  54.957  1.00  0.00    -0.204 F 
HETATM   31  C20 UNL     1      20.449  -0.404  52.987  1.00  0.00     0.074 A 
HETATM   32 CL1  UNL     1      18.783  -0.892  53.207  1.00  0.00    -0.081 Cl
HETATM   33  C21 UNL     1      20.703   0.350  51.868  1.00  0.00     0.056 A 
ENDBRANCH  24  26
ENDBRANCH   8  24
TORSDOF 5
ENDMDL
MODEL 2
REMARK VINA RESULT:      -8.7      3.452      5.973
REMARK  5 active torsions:
REMARK  status: ('A' for Active; 'I' for Inactive)
REMARK    1  A    between atoms: N1_1  and  C1_2 
REMARK    2  A    between atoms: C2_3  and  C3_4 
REMARK    3  A    between atoms: N3_7  and  C5_8 
REMARK    4  A    between atoms: C15_20  and  N6_21 
REMARK    5  A    between atoms: N6_21  and  C16_22 
ROOT
HETATM    1  C1  UNL     1      23.042   3.491  50.040  1.00  0.00     0.024 C 
HETATM    2  C2  UNL     1      24.186   3.597  50.776  1.00  0.00     0.014 C 
HETATM    3  C11 UNL     1      23.447   3.237  52.129  1.00  0.00     0.020 C 
HETATM    4  C12 UNL     1      22.111   3.075  51.949  1.00  0.00     0.002 C 
HETATM    5  C13 UNL     1      22.530   2.255  50.788  1.00  0.00     0.079 C 
HETATM    6  C14 UNL     1      23.252   1.226  51.502  1.00  0.00     0.165 C 
HETATM    7  N5  UNL     1      23.600   1.711  53.027  1.00  0.00    -0.271 NA
HETATM    8  C15 UNL     1      24.655   2.590  52.798  1.00  0.00     0.134 C 
ENDROOT
BRANCH   2   9
HETATM    9  C3  UNL     1      25.411   4.008  50.037  1.00  0.00     0.013 A 
HETATM   10  C4  UNL     1      26.428   3.205  49.594  1.00  0.00     0.152 A 
HETATM   11  N2  UNL     1      27.261   4.087  49.069  1.00  0.00    -0.184 NA
HETATM   12  N3  UNL     1      26.824   5.314  49.166  1.00  0.00    -0.276 N 
HETATM   13  C10 UNL     1      25.636   5.358  49.777  1.00  0.00     0.126 A 
BRANCH  12  14
HETATM   14  C5  UNL     1      27.515   6.489  48.684  1.00  0.00     0.113 C 
HETATM   15  C6  UNL     1      28.779   6.127  47.957  1.00  0.00     0.057 C 
HETATM   16  C7  UNL     1      29.509   7.455  47.709  1.00  0.00     0.271 C 
HETATM   17  N4  UNL     1      28.680   8.231  46.818  1.00  0.00     0.083 N 
HETATM   18  C8  UNL     1      27.416   8.568  47.470  1.00  0.00     0.271 C 
HETATM   19  H9  UNL     1      29.186   9.149  46.647  1.00  0.00     0.315 HD
HETATM   20  C9  UNL     1      26.651   7.284  47.732  1.00  0.00     0.057 C 
ENDBRANCH  12  14
ENDBRANCH   2   9
BRANCH   1  21
HETATM   21  N1  UNL     1      22.426   4.165  48.944  1.00  0.00    -0.401 N 
HETATM   22  H1  UNL     1      23.054   4.697  48.296  1.00  0.00     0.156 HD
HETATM   23  H2  UNL     1      21.420   4.211  48.680  1.00  0.00     0.156 HD
ENDBRANCH   1  21
BRANCH   8  24
HETATM   24  N6  UNL     1      25.991   2.867  53.104  1.00  0.00    -0.341 N 
HETATM   25  H19 UNL     1      26.067   3.880  53.268  1.00  0.00     0.167 HD
BRANCH  24  26
HETATM   26  C16 UNL     1      26.746   1.682  53.103  1.00  0.00     0.035 A 
HETATM   27  C17 UNL     1      27.996   1.992  53.555  1.00  0.00     0.032 A 
HETATM   28  C18 UNL     1      28.921   0.937  53.617  1.00  0.00     0.046 A 
HETATM   29  C19 UNL     1      28.617  -0.357  53.248  1.00  0.00     0.138 A 
HETATM   30  F1  UNL     1      29.510  -1.372  53.308  1.00  0.00    -0.204 F 
HETATM   31  C20 UNL     1      27.341  -0.591  52.803  1.00  0.00     0.074 A 
HETATM   32 CL1  UNL     1      26.782  -2.169  52.295  1.00  0.00    -0.081 Cl
HETATM   33  C21 UNL     1      26.413   0.419  52.730  1.00  0.00     0.056 A 
ENDBRANCH  24  26
ENDBRANCH   8  24
TORSDOF 5
ENDMDL
MODEL 3
REMARK VINA RESULT:      -8.4      1.854      2.639
REMARK  5 active torsions:
REMARK  status: ('A' for Active; 'I' for Inactive)
REMARK    1  A    between atoms: N1_1  and  C1_2 
REMARK    2  A    between atoms: C2_3  and  C3_4 
REMARK    3  A    between atoms: N3_7  and  C5_8 
REMARK    4  A    between atoms: C15_20  and  N6_21 
REMARK    5  A    between atoms: N6_21  and  C16_22 
ROOT
HETATM    1  C1  UNL     1      23.453   4.730  52.568  1.00  0.00     0.024 C 
HETATM    2  C2  UNL     1      23.130   3.472  52.150  1.00  0.00     0.014 C 
HETATM    3  C11 UNL     1      21.924   3.988  51.264  1.00  0.00     0.020 C 
HETATM    4  C12 UNL     1      21.744   5.329  51.384  1.00  0.00     0.002 C 
HETATM    5  C13 UNL     1      23.214   5.380  51.202  1.00  0.00     0.079 C 
HETATM    6  C14 UNL     1      23.283   4.817  49.871  1.00  0.00     0.165 C 
HETATM    7  N5  UNL     1      21.887   4.053  49.488  1.00  0.00    -0.271 NA
HETATM    8  C15 UNL     1      22.010   2.877  50.223  1.00  0.00     0.134 C 
ENDROOT
BRANCH   2   9
HETATM    9  C3  UNL     1      23.943   2.360  52.713  1.00  0.00     0.013 A 
HETATM   10  C4  UNL     1      23.496   1.151  53.174  1.00  0.00     0.152 A 
HETATM   11  N2  UNL     1      24.616   0.593  53.602  1.00  0.00    -0.184 NA
HETATM   12  N3  UNL     1      25.659   1.361  53.433  1.00  0.00    -0.276 N 
HETATM   13  C10 UNL     1      25.318   2.523  52.865  1.00  0.00     0.126 A 
BRANCH  12  14
HETATM   14  C5  UNL     1      27.015   1.025  53.802  1.00  0.00     0.113 C 
HETATM   15  C6  UNL     1      27.526  -0.150  53.016  1.00  0.00     0.057 C 
HETATM   16  C7  UNL     1      28.866  -0.530  53.664  1.00  0.00     0.271 C 
HETATM   17  N4  UNL     1      29.764   0.581  53.456  1.00  0.00     0.083 N 
HETATM   18  C8  UNL     1      29.280   1.761  54.167  1.00  0.00     0.271 C 
HETATM   19  H9  UNL     1      30.691   0.317  53.904  1.00  0.00     0.315 HD
HETATM   20  C9  UNL     1      27.956   2.183  53.559  1.00  0.00     0.057 C 
ENDBRANCH  12  14
ENDBRANCH   2   9
BRANCH   1  21
HETATM   21  N1  UNL     1      23.895   5.362  53.769  1.00  0.00    -0.401 N 
HETATM   22  H1  UNL     1      23.473   6.292  54.002  1.00  0.00     0.156 HD
HETATM   23  H2  UNL     1      24.591   5.033  54.469  1.00  0.00     0.156 HD
ENDBRANCH   1  21
BRANCH   8  24
HETATM   24  N6  UNL     1      22.033   1.482  50.139  1.00  0.00    -0.341 N 
HETATM   25  H19 UNL     1      22.955   1.208  49.774  1.00  0.00     0.167 HD
BRANCH  24  26
HETATM   26  C16 UNL     1      20.816   0.948  50.597  1.00  0.00     0.035 A 
HETATM   27  C17 UNL     1      19.857   1.266  49.679  1.00  0.00     0.032 A 
HETATM   28  C18 UNL     1      18.552   0.833  49.958  1.00  0.00     0.046 A 
HETATM   29  C19 UNL     1      18.218   0.122  51.091  1.00  0.00     0.138 A 
HETATM   30  F1  UNL     1      16.958  -0.294  51.359  1.00  0.00    -0.204 F 
HETATM   31  C20 UNL     1      19.234  -0.159  51.968  1.00  0.00     0.074 A 
HETATM   32 CL1  UNL     1      18.992  -1.050  53.455  1.00  0.00    -0.081 Cl
HETATM   33  C21 UNL     1      20.521   0.250  51.724  1.00  0.00     0.056 A 
ENDBRANCH  24  26
ENDBRANCH   8  24
TORSDOF 5
ENDMDL
MODEL 4
REMARK VINA RESULT:      -8.4      3.027      5.864
REMARK  5 active torsions:
REMARK  status: ('A' for Active; 'I' for Inactive)
REMARK    1  A    between atoms: N1_1  and  C1_2 
REMARK    2  A    between atoms: C2_3  and  C3_4 
REMARK    3  A    between atoms: N3_7  and  C5_8 
REMARK    4  A    between atoms: C15_20  and  N6_21 
REMARK    5  A    between atoms: N6_21  and  C16_22 
ROOT
HETATM    1  C1  UNL     1      20.969   2.194  52.186  1.00  0.00     0.024 C 
HETATM    2  C2  UNL     1      22.305   2.231  51.911  1.00  0.00     0.014 C 
HETATM    3  C11 UNL     1      22.663   1.264  53.112  1.00  0.00     0.020 C 
HETATM    4  C12 UNL     1      21.565   0.934  53.842  1.00  0.00     0.002 C 
HETATM    5  C13 UNL     1      20.952   0.698  52.513  1.00  0.00     0.079 C 
HETATM    6  C14 UNL     1      21.819  -0.370  52.066  1.00  0.00     0.165 C 
HETATM    7  N5  UNL     1      23.183  -0.429  52.969  1.00  0.00    -0.271 NA
HETATM    8  C15 UNL     1      23.895   0.651  52.456  1.00  0.00     0.134 C 
ENDROOT
BRANCH   2   9
HETATM    9  C3  UNL     1      22.723   3.106  50.783  1.00  0.00     0.013 A 
HETATM   10  C4  UNL     1      22.311   3.042  49.478  1.00  0.00     0.152 A 
HETATM   11  N2  UNL     1      23.031   3.999  48.918  1.00  0.00    -0.184 NA
HETATM   12  N3  UNL     1      23.814   4.605  49.770  1.00  0.00    -0.276 N 
HETATM   13  C10 UNL     1      23.681   4.095  50.999  1.00  0.00     0.126 A 
BRANCH  12  14
HETATM   14  C5  UNL     1      24.716   5.690  49.453  1.00  0.00     0.113 C 
HETATM   15  C6  UNL     1      24.891   6.621  50.619  1.00  0.00     0.057 C 
HETATM   16  C7  UNL     1      25.676   7.823  50.075  1.00  0.00     0.271 C 
HETATM   17  N4  UNL     1      26.977   7.335  49.684  1.00  0.00     0.083 N 
HETATM   18  C8  UNL     1      26.850   6.388  48.579  1.00  0.00     0.271 C 
HETATM   19  H9  UNL     1      27.519   8.167  49.309  1.00  0.00     0.315 HD
HETATM   20  C9  UNL     1      26.084   5.174  49.069  1.00  0.00     0.057 C 
ENDBRANCH  12  14
ENDBRANCH   2   9
BRANCH   1  21
HETATM   21  N1  UNL     1      19.866   3.099  52.185  1.00  0.00    -0.401 N 
HETATM   22  H1  UNL     1      19.982   3.993  51.651  1.00  0.00     0.156 HD
HETATM   23  H2  UNL     1      18.938   3.008  52.647  1.00  0.00     0.156 HD
ENDBRANCH   1  21
BRANCH   8  24
HETATM   24  N6  UNL     1      25.095   1.038  51.851  1.00  0.00    -0.341 N 
HETATM   25  H19 UNL     1      24.860   1.676  51.078  1.00  0.00     0.167 HD
BRANCH  24  26
HETATM   26  C16 UNL     1      26.185   0.449  52.513  1.00  0.00     0.035 A 
HETATM   27  C17 UNL     1      26.690   1.378  53.377  1.00  0.00     0.032 A 
HETATM   28  C18 UNL     1      27.807   0.989  54.135  1.00  0.00     0.046 A 
HETATM   29  C19 UNL     1      28.390  -0.257  54.037  1.00  0.00     0.138 A 
HETATM   30  F1  UNL     1      29.466  -0.629  54.767  1.00  0.00    -0.204 F 
HETATM   31  C20 UNL     1      27.828  -1.135  53.146  1.00  0.00     0.074 A 
HETATM   32 CL1  UNL     1      28.436  -2.756  52.892  1.00  0.00    -0.081 Cl
HETATM   33  C21 UNL     1      26.736  -0.787  52.391  1.00  0.00     0.056 A 
ENDBRANCH  24  26
ENDBRANCH   8  24
TORSDOF 5
ENDMDL
MODEL 5
REMARK VINA RESULT:      -8.2      3.808      5.593
REMARK  5 active torsions:
REMARK  status: ('A' for Active; 'I' for Inactive)
REMARK    1  A    between atoms: N1_1  and  C1_2 
REMARK    2  A    between atoms: C2_3  and  C3_4 
REMARK    3  A    between atoms: N3_7  and  C5_8 
REMARK    4  A    between atoms: C15_20  and  N6_21 
REMARK    5  A    between atoms: N6_21  and  C16_22 
ROOT
HETATM    1  C1  UNL     1      21.923   1.246  51.205  1.00  0.00     0.024 C 
HETATM    2  C2  UNL     1      23.125   1.820  50.908  1.00  0.00     0.014 C 
HETATM    3  C11 UNL     1      22.777   1.945  49.368  1.00  0.00     0.020 C 
HETATM    4  C12 UNL     1      21.568   1.398  49.076  1.00  0.00     0.002 C 
HETATM    5  C13 UNL     1      21.118   2.153  50.269  1.00  0.00     0.079 C 
HETATM    6  C14 UNL     1      21.395   3.490  49.792  1.00  0.00     0.165 C 
HETATM    7  N5  UNL     1      22.402   3.452  48.503  1.00  0.00    -0.271 NA
HETATM    8  C15 UNL     1      23.623   3.189  49.119  1.00  0.00     0.134 C 
ENDROOT
BRANCH   2   9
HETATM    9  C3  UNL     1      24.080   1.975  52.038  1.00  0.00     0.013 A 
HETATM   10  C4  UNL     1      23.998   2.852  53.087  1.00  0.00     0.152 A 
HETATM   11  N2  UNL     1      25.119   2.598  53.741  1.00  0.00    -0.184 NA
HETATM   12  N3  UNL     1      25.835   1.665  53.173  1.00  0.00    -0.276 N 
HETATM   13  C10 UNL     1      25.241   1.205  52.066  1.00  0.00     0.126 A 
BRANCH  12  14
HETATM   14  C5  UNL     1      27.106   1.175  53.654  1.00  0.00     0.113 C 
HETATM   15  C6  UNL     1      27.574  -0.016  52.865  1.00  0.00     0.057 C 
HETATM   16  C7  UNL     1      28.797  -0.558  53.620  1.00  0.00     0.271 C 
HETATM   17  N4  UNL     1      29.818   0.460  53.553  1.00  0.00     0.083 N 
HETATM   18  C8  UNL     1      29.386   1.657  54.271  1.00  0.00     0.271 C 
HETATM   19  H9  UNL     1      30.663   0.083  54.075  1.00  0.00     0.315 HD
HETATM   20  C9  UNL     1      28.178   2.237  53.558  1.00  0.00     0.057 C 
ENDBRANCH  12  14
ENDBRANCH   2   9
BRANCH   1  21
HETATM   21  N1  UNL     1      21.429   0.215  52.058  1.00  0.00    -0.401 N 
HETATM   22  H1  UNL     1      21.974  -0.679  52.093  1.00  0.00     0.156 HD
HETATM   23  H2  UNL     1      20.586   0.212  52.669  1.00  0.00     0.156 HD
ENDBRANCH   1  21
BRANCH   8  24
HETATM   24  N6  UNL     1      24.929   3.654  49.298  1.00  0.00    -0.341 N 
HETATM   25  H19 UNL     1      25.553   2.836  49.296  1.00  0.00     0.167 HD
BRANCH  24  26
HETATM   26  C16 UNL     1      24.936   5.056  49.396  1.00  0.00     0.035 A 
HETATM   27  C17 UNL     1      24.551   5.381  50.664  1.00  0.00     0.032 A 
HETATM   28  C18 UNL     1      24.479   6.750  50.967  1.00  0.00     0.046 A 
HETATM   29  C19 UNL     1      24.773   7.742  50.056  1.00  0.00     0.138 A 
HETATM   30  F1  UNL     1      24.702   9.062  50.350  1.00  0.00    -0.204 F 
HETATM   31  C20 UNL     1      25.151   7.338  48.801  1.00  0.00     0.074 A 
HETATM   32 CL1  UNL     1      25.560   8.459  47.521  1.00  0.00    -0.081 Cl
HETATM   33  C21 UNL     1      25.232   6.008  48.473  1.00  0.00     0.056 A 
ENDBRANCH  24  26
ENDBRANCH   8  24
TORSDOF 5
ENDMDL
MODEL 6
REMARK VINA RESULT:      -8.2      4.260      6.180
REMARK  5 active torsions:
REMARK  status: ('A' for Active; 'I' for Inactive)
REMARK    1  A    between atoms: N1_1  and  C1_2 
REMARK    2  A    between atoms: C2_3  and  C3_4 
REMARK    3  A    between atoms: N3_7  and  C5_8 
REMARK    4  A    between atoms: C15_20  and  N6_21 
REMARK    5  A    between atoms: N6_21  and  C16_22 
ROOT
HETATM    1  C1  UNL     1      21.780   2.456  49.126  1.00  0.00     0.024 C 
HETATM    2  C2  UNL     1      22.841   3.096  49.698  1.00  0.00     0.014 C 
HETATM    3  C11 UNL     1      23.031   4.064  48.460  1.00  0.00     0.020 C 
HETATM    4  C12 UNL     1      22.162   3.777  47.455  1.00  0.00     0.002 C 
HETATM    5  C13 UNL     1      21.163   3.734  48.549  1.00  0.00     0.079 C 
HETATM    6  C14 UNL     1      21.268   5.108  48.988  1.00  0.00     0.165 C 
HETATM    7  N5  UNL     1      22.641   5.797  48.421  1.00  0.00    -0.271 NA
HETATM    8  C15 UNL     1      23.596   5.232  49.261  1.00  0.00     0.134 C 
ENDROOT
BRANCH   2   9
HETATM    9  C3  UNL     1      23.280   2.588  51.026  1.00  0.00     0.013 A 
HETATM   10  C4  UNL     1      22.805   2.952  52.258  1.00  0.00     0.152 A 
HETATM   11  N2  UNL     1      23.577   2.246  53.067  1.00  0.00    -0.184 NA
HETATM   12  N3  UNL     1      24.446   1.515  52.422  1.00  0.00    -0.276 N 
HETATM   13  C10 UNL     1      24.327   1.672  51.100  1.00  0.00     0.126 A 
BRANCH  12  14
HETATM   14  C5  UNL     1      25.422   0.641  53.034  1.00  0.00     0.113 C 
HETATM   15  C6  UNL     1      26.390   0.100  52.019  1.00  0.00     0.057 C 
HETATM   16  C7  UNL     1      27.208  -0.971  52.758  1.00  0.00     0.271 C 
HETATM   17  N4  UNL     1      27.959  -0.291  53.785  1.00  0.00     0.083 N 
HETATM   18  C8  UNL     1      27.054   0.292  54.772  1.00  0.00     0.271 C 
HETATM   19  H9  UNL     1      28.525  -1.032  54.295  1.00  0.00     0.315 HD
HETATM   20  C9  UNL     1      26.224   1.364  54.091  1.00  0.00     0.057 C 
ENDBRANCH  12  14
ENDBRANCH   2   9
BRANCH   1  21
HETATM   21  N1  UNL     1      21.275   1.125  49.035  1.00  0.00    -0.401 N 
HETATM   22  H1  UNL     1      21.957   0.372  48.781  1.00  0.00     0.156 HD
HETATM   23  H2  UNL     1      20.306   0.777  49.184  1.00  0.00     0.156 HD
ENDBRANCH   1  21
BRANCH   8  24
HETATM   24  N6  UNL     1      24.612   5.513  50.180  1.00  0.00    -0.341 N 
HETATM   25  H19 UNL     1      24.219   5.389  51.123  1.00  0.00     0.167 HD
BRANCH  24  26
HETATM   26  C16 UNL     1      25.800   5.841  49.505  1.00  0.00     0.035 A 
HETATM   27  C17 UNL     1      26.476   4.677  49.277  1.00  0.00     0.032 A 
HETATM   28  C18 UNL     1      27.711   4.787  48.619  1.00  0.00     0.046 A 
HETATM   29  C19 UNL     1      28.245   5.991  48.210  1.00  0.00     0.138 A 
HETATM   30  F1  UNL     1      29.436   6.095  47.576  1.00  0.00    -0.204 F 
HETATM   31  C20 UNL     1      27.508   7.117  48.475  1.00  0.00     0.074 A 
HETATM   32 CL1  UNL     1      28.032   8.726  48.029  1.00  0.00    -0.081 Cl
HETATM   33  C21 UNL     1      26.297   7.044  49.117  1.00  0.00     0.056 A 
ENDBRANCH  24  26
ENDBRANCH   8  24
TORSDOF 5
ENDMDL
MODEL 7
REMARK VINA RESULT:      -8.1      3.399      5.071
REMARK  5 active torsions:
REMARK  status: ('A' for Active; 'I' for Inactive)
REMARK    1  A    between atoms: N1_1  and  C1_2 
REMARK    2  A    between atoms: C2_3  and  C3_4 
REMARK    3  A    between atoms: N3_7  and  C5_8 
REMARK    4  A    between atoms: C15_20  and  N6_21 
REMARK    5  A    between atoms: N6_21  and  C16_22 
ROOT
HETATM    1  C1  UNL     1      21.336   0.594  53.460  1.00  0.00     0.024 C 
HETATM    2  C2  UNL     1      22.178   0.843  52.415  1.00  0.00     0.014 C 
HETATM    3  C11 UNL     1      21.078   0.484  51.335  1.00  0.00     0.020 C 
HETATM    4  C12 UNL     1      19.923   0.059  51.911  1.00  0.00     0.002 C 
HETATM    5  C13 UNL     1      20.117   1.236  52.790  1.00  0.00     0.079 C 
HETATM    6  C14 UNL     1      20.036   2.270  51.783  1.00  0.00     0.165 C 
HETATM    7  N5  UNL     1      20.231   1.640  50.284  1.00  0.00    -0.271 NA
HETATM    8  C15 UNL     1      21.606   1.424  50.257  1.00  0.00     0.134 C 
ENDROOT
BRANCH   2   9
HETATM    9  C3  UNL     1      23.571   1.229  52.768  1.00  0.00     0.013 A 
HETATM   10  C4  UNL     1      24.041   2.481  53.065  1.00  0.00     0.152 A 
HETATM   11  N2  UNL     1      25.332   2.253  53.238  1.00  0.00    -0.184 NA
HETATM   12  N3  UNL     1      25.649   0.997  53.071  1.00  0.00    -0.276 N 
HETATM   13  C10 UNL     1      24.574   0.262  52.765  1.00  0.00     0.126 A 
BRANCH  12  14
HETATM   14  C5  UNL     1      26.980   0.446  53.193  1.00  0.00     0.113 C 
HETATM   15  C6  UNL     1      27.567   0.718  54.550  1.00  0.00     0.057 C 
HETATM   16  C7  UNL     1      29.038   0.285  54.458  1.00  0.00     0.271 C 
HETATM   17  N4  UNL     1      29.044  -1.141  54.239  1.00  0.00     0.083 N 
HETATM   18  C8  UNL     1      28.439  -1.456  52.947  1.00  0.00     0.271 C 
HETATM   19  H9  UNL     1      30.062  -1.439  54.177  1.00  0.00     0.315 HD
HETATM   20  C9  UNL     1      26.977  -1.052  52.988  1.00  0.00     0.057 C 
ENDBRANCH  12  14
ENDBRANCH   2   9
BRANCH   1  21
HETATM   21  N1  UNL     1      21.410   0.005  54.757  1.00  0.00    -0.401 N 
HETATM   22  H1  UNL     1      20.559   0.078  55.364  1.00  0.00     0.156 HD
HETATM   23  H2  UNL     1      22.201  -0.499  55.208  1.00  0.00     0.156 HD
ENDBRANCH   1  21
BRANCH   8  24
HETATM   24  N6  UNL     1      22.790   1.719  49.575  1.00  0.00    -0.341 N 
HETATM   25  H19 UNL     1      23.511   1.063  49.907  1.00  0.00     0.167 HD
BRANCH  24  26
HETATM   26  C16 UNL     1      22.581   2.776  48.674  1.00  0.00     0.035 A 
HETATM   27  C17 UNL     1      22.873   3.938  49.329  1.00  0.00     0.032 A 
HETATM   28  C18 UNL     1      22.713   5.127  48.600  1.00  0.00     0.046 A 
HETATM   29  C19 UNL     1      22.284   5.159  47.290  1.00  0.00     0.138 A 
HETATM   30  F1  UNL     1      22.130   6.307  46.590  1.00  0.00    -0.204 F 
HETATM   31  C20 UNL     1      22.008   3.952  46.699  1.00  0.00     0.074 A 
HETATM   32 CL1  UNL     1      21.454   3.804  45.046  1.00  0.00    -0.081 Cl
HETATM   33  C21 UNL     1      22.155   2.772  47.384  1.00  0.00     0.056 A 
ENDBRANCH  24  26
ENDBRANCH   8  24
TORSDOF 5
ENDMDL
MODEL 8
REMARK VINA RESULT:      -8.1      4.515      6.560
REMARK  5 active torsions:
REMARK  status: ('A' for Active; 'I' for Inactive)
REMARK    1  A    between atoms: N1_1  and  C1_2 
REMARK    2  A    between atoms: C2_3  and  C3_4 
REMARK    3  A    between atoms: N3_7  and  C5_8 
REMARK    4  A    between atoms: C15_20  and  N6_21 
REMARK    5  A    between atoms: N6_21  and  C16_22 
ROOT
HETATM    1  C1  UNL     1      22.882   3.679  49.572  1.00  0.00     0.024 C 
HETATM    2  C2  UNL     1      23.926   4.472  49.949  1.00  0.00     0.014 C 
HETATM    3  C11 UNL     1      23.133   5.806  49.635  1.00  0.00     0.020 C 
HETATM    4  C12 UNL     1      21.905   5.554  49.110  1.00  0.00     0.002 C 
HETATM    5  C13 UNL     1      21.813   4.570  50.214  1.00  0.00     0.079 C 
HETATM    6  C14 UNL     1      21.903   5.489  51.327  1.00  0.00     0.165 C 
HETATM    7  N5  UNL     1      22.482   6.940  50.839  1.00  0.00    -0.271 NA
HETATM    8  C15 UNL     1      23.836   6.656  50.688  1.00  0.00     0.134 C 
ENDROOT
BRANCH   2   9
HETATM    9  C3  UNL     1      25.170   3.771  50.366  1.00  0.00     0.013 A 
HETATM   10  C4  UNL     1      26.369   3.734  49.705  1.00  0.00     0.152 A 
HETATM   11  N2  UNL     1      27.083   2.938  50.482  1.00  0.00    -0.184 NA
HETATM   12  N3  UNL     1      26.415   2.515  51.521  1.00  0.00    -0.276 N 
HETATM   13  C10 UNL     1      25.170   3.003  51.528  1.00  0.00     0.126 A 
BRANCH  12  14
HETATM   14  C5  UNL     1      26.928   1.633  52.545  1.00  0.00     0.113 C 
HETATM   15  C6  UNL     1      28.198   2.166  53.146  1.00  0.00     0.057 C 
HETATM   16  C7  UNL     1      28.740   1.038  54.036  1.00  0.00     0.271 C 
HETATM   17  N4  UNL     1      27.783   0.843  55.098  1.00  0.00     0.083 N 
HETATM   18  C8  UNL     1      26.514   0.368  54.553  1.00  0.00     0.271 C 
HETATM   19  H9  UNL     1      28.159   0.064  55.714  1.00  0.00     0.315 HD
HETATM   20  C9  UNL     1      25.932   1.453  53.668  1.00  0.00     0.057 C 
ENDBRANCH  12  14
ENDBRANCH   2   9
BRANCH   1  21
HETATM   21  N1  UNL     1      22.688   2.448  48.877  1.00  0.00    -0.401 N 
HETATM   22  H1  UNL     1      23.502   1.790  48.836  1.00  0.00     0.156 HD
HETATM   23  H2  UNL     1      21.840   2.092  48.390  1.00  0.00     0.156 HD
ENDBRANCH   1  21
BRANCH   8  24
HETATM   24  N6  UNL     1      25.125   7.014  51.094  1.00  0.00    -0.341 N 
HETATM   25  H19 UNL     1      25.245   6.692  52.065  1.00  0.00     0.167 HD
BRANCH  24  26
HETATM   26  C16 UNL     1      25.805   7.656  50.046  1.00  0.00     0.035 A 
HETATM   27  C17 UNL     1      25.345   8.940  49.986  1.00  0.00     0.032 A 
HETATM   28  C18 UNL     1      25.893   9.757  48.984  1.00  0.00     0.046 A 
HETATM   29  C19 UNL     1      26.847   9.319  48.089  1.00  0.00     0.138 A 
HETATM   30  F1  UNL     1      27.372  10.108  47.123  1.00  0.00    -0.204 F 
HETATM   31  C20 UNL     1      27.257   8.016  48.210  1.00  0.00     0.074 A 
HETATM   32 CL1  UNL     1      28.457   7.293  47.161  1.00  0.00    -0.081 Cl
HETATM   33  C21 UNL     1      26.742   7.192  49.179  1.00  0.00     0.056 A 
ENDBRANCH  24  26
ENDBRANCH   8  24
TORSDOF 5
ENDMDL
MODEL 9
REMARK VINA RESULT:      -8.0      1.644      2.068
REMARK  5 active torsions:
REMARK  status: ('A' for Active; 'I' for Inactive)
REMARK    1  A    between atoms: N1_1  and  C1_2 
REMARK    2  A    between atoms: C2_3  and  C3_4 
REMARK    3  A    between atoms: N3_7  and  C5_8 
REMARK    4  A    between atoms: C15_20  and  N6_21 
REMARK    5  A    between atoms: N6_21  and  C16_22 
ROOT
HETATM    1  C1  UNL     1      24.062   4.491  50.600  1.00  0.00     0.024 C 
HETATM    2  C2  UNL     1      23.688   3.308  51.166  1.00  0.00     0.014 C 
HETATM    3  C11 UNL     1      22.288   3.302  50.426  1.00  0.00     0.020 C 
HETATM    4  C12 UNL     1      22.100   4.428  49.688  1.00  0.00     0.002 C 
HETATM    5  C13 UNL     1      23.481   4.158  49.222  1.00  0.00     0.079 C 
HETATM    6  C14 UNL     1      23.246   2.879  48.588  1.00  0.00     0.165 C 
HETATM    7  N5  UNL     1      21.823   2.237  49.082  1.00  0.00    -0.271 NA
HETATM    8  C15 UNL     1      22.156   1.785  50.355  1.00  0.00     0.134 C 
ENDROOT
BRANCH   2   9
HETATM    9  C3  UNL     1      24.646   2.706  52.132  1.00  0.00     0.013 A 
HETATM   10  C4  UNL     1      24.681   2.878  53.490  1.00  0.00     0.152 A 
HETATM   11  N2  UNL     1      25.749   2.173  53.825  1.00  0.00    -0.184 NA
HETATM   12  N3  UNL     1      26.328   1.615  52.796  1.00  0.00    -0.276 N 
HETATM   13  C10 UNL     1      25.684   1.905  51.661  1.00  0.00     0.126 A 
BRANCH  12  14
HETATM   14  C5  UNL     1      27.513   0.787  52.849  1.00  0.00     0.113 C 
HETATM   15  C6  UNL     1      28.517   1.324  53.830  1.00  0.00     0.057 C 
HETATM   16  C7  UNL     1      29.790   0.492  53.614  1.00  0.00     0.271 C 
HETATM   17  N4  UNL     1      29.473  -0.866  53.986  1.00  0.00     0.083 N 
HETATM   18  C8  UNL     1      28.463  -1.414  53.084  1.00  0.00     0.271 C 
HETATM   19  H9  UNL     1      30.355  -1.441  53.838  1.00  0.00     0.315 HD
HETATM   20  C9  UNL     1      27.178  -0.627  53.264  1.00  0.00     0.057 C 
ENDBRANCH  12  14
ENDBRANCH   2   9
BRANCH   1  21
HETATM   21  N1  UNL     1      24.760   5.673  50.989  1.00  0.00    -0.401 N 
HETATM   22  H1  UNL     1      24.739   6.482  50.322  1.00  0.00     0.156 HD
HETATM   23  H2  UNL     1      25.302   5.863  51.856  1.00  0.00     0.156 HD
ENDBRANCH   1  21
BRANCH   8  24
HETATM   24  N6  UNL     1      22.201   0.662  51.187  1.00  0.00    -0.341 N 
HETATM   25  H19 UNL     1      23.189   0.393  51.291  1.00  0.00     0.167 HD
BRANCH  24  26
HETATM   26  C16 UNL     1      20.905   0.313  51.602  1.00  0.00     0.035 A 
HETATM   27  C17 UNL     1      20.993  -0.130  52.891  1.00  0.00     0.032 A 
HETATM   28  C18 UNL     1      19.796  -0.546  53.494  1.00  0.00     0.046 A 
HETATM   29  C19 UNL     1      18.576  -0.524  52.849  1.00  0.00     0.138 A 
HETATM   30  F1  UNL     1      17.424  -0.927  53.433  1.00  0.00    -0.204 F 
HETATM   31  C20 UNL     1      18.568  -0.068  51.556  1.00  0.00     0.074 A 
HETATM   32 CL1  UNL     1      17.113   0.029  50.589  1.00  0.00    -0.081 Cl
HETATM   33  C21 UNL     1      19.721   0.347  50.937  1.00  0.00     0.056 A 
ENDBRANCH  24  26
ENDBRANCH   8  24
TORSDOF 5
ENDMDL
