MODEL 1
REMARK VINA RESULT:      -8.6      0.000      0.000
REMARK  4 active torsions:
REMARK  status: ('A' for Active; 'I' for Inactive)
REMARK    1  A    between atoms: O1_1  and  C1_2 
REMARK    2  A    between atoms: C1_2  and  C2_3 
REMARK    3  A    between atoms: C6_7  and  C7_8 
REMARK    4  A    between atoms: N3_12  and  C9_13 
ROOT
HETATM    1  C7  UNL     1      26.118   1.886  51.634  1.00  0.00     0.163 A 
HETATM    2  N1  UNL     1      26.809   2.830  50.932  1.00  0.00    -0.220 NA
HETATM    3  C8  UNL     1      25.940   3.671  50.348  1.00  0.00     0.258 A 
HETATM    4  N2  UNL     1      24.711   3.247  50.689  1.00  0.00    -0.159 NA
HETATM    5  N3  UNL     1      24.814   2.165  51.469  1.00  0.00    -0.214 N 
ENDROOT
BRANCH   1   6
HETATM    6  C6  UNL     1      26.949   0.903  52.322  1.00  0.00     0.012 A 
HETATM    7  C5  UNL     1      27.861   1.446  53.233  1.00  0.00     0.015 A 
HETATM    8  C4  UNL     1      28.734   0.648  53.977  1.00  0.00     0.002 A 
HETATM    9  C3  UNL     1      28.671  -0.718  53.786  1.00  0.00     0.009 A 
HETATM   10  C2  UNL     1      27.773  -1.256  52.889  1.00  0.00    -0.034 A 
HETATM   11  C15 UNL     1      26.914  -0.458  52.158  1.00  0.00     0.024 A 
BRANCH  10  12
HETATM   12  C1  UNL     1      27.721  -2.749  52.696  1.00  0.00     0.202 C 
BRANCH  12  13
HETATM   13  O1  UNL     1      28.681  -3.370  53.455  1.00  0.00    -0.396 OA
HETATM   14  H1  UNL     1      28.745  -4.316  53.168  1.00  0.00     0.209 HD
ENDBRANCH  12  13
ENDBRANCH  10  12
ENDBRANCH   1   6
BRANCH   5  15
HETATM   15  C9  UNL     1      23.884   1.305  52.117  1.00  0.00     0.062 A 
HETATM   16  C10 UNL     1      24.054   0.600  53.297  1.00  0.00     0.035 A 
HETATM   17  C11 UNL     1      23.010  -0.190  53.762  1.00  0.00     0.046 A 
HETATM   18  C12 UNL     1      21.801  -0.315  53.107  1.00  0.00     0.138 A 
HETATM   19  F1  UNL     1      20.832  -1.104  53.621  1.00  0.00    -0.204 F 
HETATM   20  C13 UNL     1      21.636   0.395  51.922  1.00  0.00     0.074 A 
HETATM   21 CL1  UNL     1      20.103   0.239  51.088  1.00  0.00    -0.081 Cl
HETATM   22  C14 UNL     1      22.672   1.189  51.449  1.00  0.00     0.058 A 
ENDBRANCH   5  15
TORSDOF 4
ENDMDL
MODEL 2
REMARK VINA RESULT:      -8.3      3.260      5.355
REMARK  4 active torsions:
REMARK  status: ('A' for Active; 'I' for Inactive)
REMARK    1  A    between atoms: O1_1  and  C1_2 
REMARK    2  A    between atoms: C1_2  and  C2_3 
REMARK    3  A    between atoms: C6_7  and  C7_8 
REMARK    4  A    between atoms: N3_12  and  C9_13 
ROOT
HETATM    1  C7  UNL     1      24.171   1.508  51.783  1.00  0.00     0.163 A 
HETATM    2  N1  UNL     1      23.405   2.371  51.054  1.00  0.00    -0.220 NA
HETATM    3  C8  UNL     1      24.207   3.159  50.318  1.00  0.00     0.258 A 
HETATM    4  N2  UNL     1      25.468   2.782  50.592  1.00  0.00    -0.159 NA
HETATM    5  N3  UNL     1      25.451   1.782  51.479  1.00  0.00    -0.214 N 
ENDROOT
BRANCH   1   6
HETATM    6  C6  UNL     1      23.419   0.590  52.632  1.00  0.00     0.012 A 
HETATM    7  C5  UNL     1      22.115   0.330  52.199  1.00  0.00     0.015 A 
HETATM    8  C4  UNL     1      21.256  -0.526  52.894  1.00  0.00     0.002 A 
HETATM    9  C3  UNL     1      21.739  -1.120  54.043  1.00  0.00     0.009 A 
HETATM   10  C2  UNL     1      23.024  -0.866  54.473  1.00  0.00    -0.034 A 
HETATM   11  C15 UNL     1      23.866  -0.018  53.778  1.00  0.00     0.024 A 
BRANCH  10  12
HETATM   12  C1  UNL     1      23.531  -1.525  55.729  1.00  0.00     0.202 C 
BRANCH  12  13
HETATM   13  O1  UNL     1      24.901  -1.457  55.793  1.00  0.00    -0.396 OA
HETATM   14  H1  UNL     1      25.183  -0.546  55.526  1.00  0.00     0.209 HD
ENDBRANCH  12  13
ENDBRANCH  10  12
ENDBRANCH   1   6
BRANCH   5  15
HETATM   15  C9  UNL     1      26.448   1.000  52.126  1.00  0.00     0.062 A 
HETATM   16  C10 UNL     1      26.623  -0.373  52.072  1.00  0.00     0.035 A 
HETATM   17  C11 UNL     1      27.669  -0.944  52.784  1.00  0.00     0.046 A 
HETATM   18  C12 UNL     1      28.555  -0.214  53.551  1.00  0.00     0.138 A 
HETATM   19  F1  UNL     1      29.550  -0.841  54.216  1.00  0.00    -0.204 F 
HETATM   20  C13 UNL     1      28.375   1.164  53.601  1.00  0.00     0.074 A 
HETATM   21 CL1  UNL     1      29.497   2.095  54.574  1.00  0.00    -0.081 Cl
HETATM   22  C14 UNL     1      27.332   1.746  52.893  1.00  0.00     0.058 A 
ENDBRANCH   5  15
TORSDOF 4
ENDMDL
MODEL 3
REMARK VINA RESULT:      -8.2      3.065      4.269
REMARK  4 active torsions:
REMARK  status: ('A' for Active; 'I' for Inactive)
REMARK    1  A    between atoms: O1_1  and  C1_2 
REMARK    2  A    between atoms: C1_2  and  C2_3 
REMARK    3  A    between atoms: C6_7  and  C7_8 
REMARK    4  A    between atoms: N3_12  and  C9_13 
ROOT
HETATM    1  C7  UNL     1      23.904  -0.006  53.728  1.00  0.00     0.163 A 
HETATM    2  N1  UNL     1      23.368  -0.929  54.579  1.00  0.00    -0.220 NA
HETATM    3  C8  UNL     1      22.043  -0.726  54.672  1.00  0.00     0.258 A 
HETATM    4  N2  UNL     1      21.761   0.321  53.878  1.00  0.00    -0.159 NA
HETATM    5  N3  UNL     1      22.886   0.761  53.304  1.00  0.00    -0.214 N 
ENDROOT
BRANCH   1   6
HETATM    6  C6  UNL     1      25.347  -0.115  53.537  1.00  0.00     0.012 A 
HETATM    7  C5  UNL     1      25.768  -1.309  52.943  1.00  0.00     0.015 A 
HETATM    8  C4  UNL     1      27.115  -1.578  52.686  1.00  0.00     0.002 A 
HETATM    9  C3  UNL     1      28.038  -0.616  53.043  1.00  0.00     0.009 A 
HETATM   10  C2  UNL     1      27.626   0.563  53.629  1.00  0.00    -0.034 A 
HETATM   11  C15 UNL     1      26.291   0.820  53.878  1.00  0.00     0.024 A 
BRANCH  10  12
HETATM   12  C1  UNL     1      28.650   1.600  54.010  1.00  0.00     0.202 C 
BRANCH  12  13
HETATM   13  O1  UNL     1      28.073   2.843  54.093  1.00  0.00    -0.396 OA
HETATM   14  H1  UNL     1      28.785   3.526  54.003  1.00  0.00     0.209 HD
ENDBRANCH  12  13
ENDBRANCH  10  12
ENDBRANCH   1   6
BRANCH   5  15
HETATM   15  C9  UNL     1      23.203   1.808  52.395  1.00  0.00     0.062 A 
HETATM   16  C10 UNL     1      23.803   3.026  52.672  1.00  0.00     0.035 A 
HETATM   17  C11 UNL     1      24.026   3.915  51.630  1.00  0.00     0.046 A 
HETATM   18  C12 UNL     1      23.680   3.654  50.319  1.00  0.00     0.138 A 
HETATM   19  F1  UNL     1      23.929   4.570  49.358  1.00  0.00    -0.204 F 
HETATM   20  C13 UNL     1      23.078   2.430  50.046  1.00  0.00     0.074 A 
HETATM   21 CL1  UNL     1      22.637   2.094  48.384  1.00  0.00    -0.081 Cl
HETATM   22  C14 UNL     1      22.850   1.532  51.081  1.00  0.00     0.058 A 
ENDBRANCH   5  15
TORSDOF 4
ENDMDL
MODEL 4
REMARK VINA RESULT:      -8.2      2.957      4.143
REMARK  4 active torsions:
REMARK  status: ('A' for Active; 'I' for Inactive)
REMARK    1  A    between atoms: O1_1  and  C1_2 
REMARK    2  A    between atoms: C1_2  and  C2_3 
REMARK    3  A    between atoms: C6_7  and  C7_8 
REMARK    4  A    between atoms: N3_12  and  C9_13 
ROOT
HETATM    1  C7  UNL     1      24.963   0.311  53.069  1.00  0.00     0.163 A 
HETATM    2  N1  UNL     1      24.105  -0.511  53.742  1.00  0.00    -0.220 NA
HETATM    3  C8  UNL     1      22.842  -0.208  53.399  1.00  0.00     0.258 A 
HETATM    4  N2  UNL     1      22.919   0.801  52.515  1.00  0.00    -0.159 NA
HETATM    5  N3  UNL     1      24.202   1.119  52.312  1.00  0.00    -0.214 N 
ENDROOT
BRANCH   1   6
HETATM    6  C6  UNL     1      26.376   0.086  53.353  1.00  0.00     0.012 A 
HETATM    7  C5  UNL     1      27.013   1.140  54.015  1.00  0.00     0.015 A 
HETATM    8  C4  UNL     1      28.365   1.093  54.363  1.00  0.00     0.002 A 
HETATM    9  C3  UNL     1      29.071  -0.046  54.029  1.00  0.00     0.009 A 
HETATM   10  C2  UNL     1      28.446  -1.088  53.376  1.00  0.00    -0.034 A 
HETATM   11  C15 UNL     1      27.108  -1.030  53.036  1.00  0.00     0.024 A 
BRANCH  10  12
HETATM   12  C1  UNL     1      29.234  -2.321  53.021  1.00  0.00     0.202 C 
BRANCH  12  13
HETATM   13  O1  UNL     1      28.563  -3.454  53.407  1.00  0.00    -0.396 OA
HETATM   14  H1  UNL     1      28.208  -3.313  54.321  1.00  0.00     0.209 HD
ENDBRANCH  12  13
ENDBRANCH  10  12
ENDBRANCH   1   6
BRANCH   5  15
HETATM   15  C9  UNL     1      24.882   2.077  51.509  1.00  0.00     0.062 A 
HETATM   16  C10 UNL     1      26.050   1.907  50.785  1.00  0.00     0.035 A 
HETATM   17  C11 UNL     1      26.551   2.981  50.060  1.00  0.00     0.046 A 
HETATM   18  C12 UNL     1      25.945   4.221  50.020  1.00  0.00     0.138 A 
HETATM   19  F1  UNL     1      26.492   5.218  49.291  1.00  0.00    -0.204 F 
HETATM   20  C13 UNL     1      24.771   4.385  50.749  1.00  0.00     0.074 A 
HETATM   21 CL1  UNL     1      23.999   5.958  50.701  1.00  0.00    -0.081 Cl
HETATM   22  C14 UNL     1      24.261   3.319  51.477  1.00  0.00     0.058 A 
ENDBRANCH   5  15
TORSDOF 4
ENDMDL
MODEL 5
REMARK VINA RESULT:      -7.9      3.454      5.248
REMARK  4 active torsions:
REMARK  status: ('A' for Active; 'I' for Inactive)
REMARK    1  A    between atoms: O1_1  and  C1_2 
REMARK    2  A    between atoms: C1_2  and  C2_3 
REMARK    3  A    between atoms: C6_7  and  C7_8 
REMARK    4  A    between atoms: N3_12  and  C9_13 
ROOT
HETATM    1  C7  UNL     1      24.957   0.217  52.784  1.00  0.00     0.163 A 
HETATM    2  N1  UNL     1      25.949  -0.718  52.844  1.00  0.00    -0.220 NA
HETATM    3  C8  UNL     1      27.061  -0.220  52.279  1.00  0.00     0.258 A 
HETATM    4  N2  UNL     1      26.757   1.024  51.870  1.00  0.00    -0.159 NA
HETATM    5  N3  UNL     1      25.483   1.293  52.174  1.00  0.00    -0.214 N 
ENDROOT
BRANCH   1   6
HETATM    6  C6  UNL     1      23.685  -0.199  53.366  1.00  0.00     0.012 A 
HETATM    7  C5  UNL     1      23.797  -0.887  54.579  1.00  0.00     0.015 A 
HETATM    8  C4  UNL     1      22.680  -1.358  55.274  1.00  0.00     0.002 A 
HETATM    9  C3  UNL     1      21.438  -1.121  54.720  1.00  0.00     0.009 A 
HETATM   10  C2  UNL     1      21.324  -0.444  53.525  1.00  0.00    -0.034 A 
HETATM   11  C15 UNL     1      22.435   0.018  52.846  1.00  0.00     0.024 A 
BRANCH  10  12
HETATM   12  C1  UNL     1      19.959  -0.196  52.938  1.00  0.00     0.202 C 
BRANCH  12  13
HETATM   13  O1  UNL     1      18.988  -0.800  53.697  1.00  0.00    -0.396 OA
HETATM   14  H1  UNL     1      18.103  -0.572  53.315  1.00  0.00     0.209 HD
ENDBRANCH  12  13
ENDBRANCH  10  12
ENDBRANCH   1   6
BRANCH   5  15
HETATM   15  C9  UNL     1      24.626   2.415  51.995  1.00  0.00     0.062 A 
HETATM   16  C10 UNL     1      24.183   3.311  52.953  1.00  0.00     0.035 A 
HETATM   17  C11 UNL     1      23.343   4.347  52.564  1.00  0.00     0.046 A 
HETATM   18  C12 UNL     1      22.920   4.536  51.264  1.00  0.00     0.138 A 
HETATM   19  F1  UNL     1      22.102   5.568  50.962  1.00  0.00    -0.204 F 
HETATM   20  C13 UNL     1      23.368   3.632  50.305  1.00  0.00     0.074 A 
HETATM   21 CL1  UNL     1      22.833   3.869  48.653  1.00  0.00    -0.081 Cl
HETATM   22  C14 UNL     1      24.208   2.593  50.682  1.00  0.00     0.058 A 
ENDBRANCH   5  15
TORSDOF 4
ENDMDL
MODEL 6
REMARK VINA RESULT:      -7.6      1.843      2.353
REMARK  4 active torsions:
REMARK  status: ('A' for Active; 'I' for Inactive)
REMARK    1  A    between atoms: O1_1  and  C1_2 
REMARK    2  A    between atoms: C1_2  and  C2_3 
REMARK    3  A    between atoms: C6_7  and  C7_8 
REMARK    4  A    between atoms: N3_12  and  C9_13 
ROOT
HETATM    1  C7  UNL     1      26.218   2.728  50.942  1.00  0.00     0.163 A 
HETATM    2  N1  UNL     1      27.114   3.482  50.240  1.00  0.00    -0.220 NA
HETATM    3  C8  UNL     1      26.448   4.385  49.500  1.00  0.00     0.258 A 
HETATM    4  N2  UNL     1      25.141   4.188  49.744  1.00  0.00    -0.159 NA
HETATM    5  N3  UNL     1      24.997   3.185  50.617  1.00  0.00    -0.214 N 
ENDROOT
BRANCH   1   6
HETATM    6  C6  UNL     1      26.814   1.702  51.792  1.00  0.00     0.012 A 
HETATM    7  C5  UNL     1      26.320   0.411  51.579  1.00  0.00     0.015 A 
HETATM    8  C4  UNL     1      26.780  -0.690  52.306  1.00  0.00     0.002 A 
HETATM    9  C3  UNL     1      27.753  -0.466  53.259  1.00  0.00     0.009 A 
HETATM   10  C2  UNL     1      28.241   0.807  53.471  1.00  0.00    -0.034 A 
HETATM   11  C15 UNL     1      27.780   1.889  52.747  1.00  0.00     0.024 A 
BRANCH  10  12
HETATM   12  C1  UNL     1      29.303   1.030  54.516  1.00  0.00     0.202 C 
BRANCH  12  13
HETATM   13  O1  UNL     1      29.304   2.337  54.935  1.00  0.00    -0.396 OA
HETATM   14  H1  UNL     1      29.479   2.354  55.910  1.00  0.00     0.209 HD
ENDBRANCH  12  13
ENDBRANCH  10  12
ENDBRANCH   1   6
BRANCH   5  15
HETATM   15  C9  UNL     1      23.885   2.545  51.233  1.00  0.00     0.062 A 
HETATM   16  C10 UNL     1      23.617   2.416  52.585  1.00  0.00     0.035 A 
HETATM   17  C11 UNL     1      22.465   1.748  52.979  1.00  0.00     0.046 A 
HETATM   18  C12 UNL     1      21.562   1.199  52.091  1.00  0.00     0.138 A 
HETATM   19  F1  UNL     1      20.463   0.563  52.550  1.00  0.00    -0.204 F 
HETATM   20  C13 UNL     1      21.836   1.332  50.733  1.00  0.00     0.074 A 
HETATM   21 CL1  UNL     1      20.693   0.636  49.602  1.00  0.00    -0.081 Cl
HETATM   22  C14 UNL     1      22.985   1.998  50.328  1.00  0.00     0.058 A 
ENDBRANCH   5  15
TORSDOF 4
ENDMDL
MODEL 7
REMARK VINA RESULT:      -7.4      3.215      4.729
REMARK  4 active torsions:
REMARK  status: ('A' for Active; 'I' for Inactive)
REMARK    1  A    between atoms: O1_1  and  C1_2 
REMARK    2  A    between atoms: C1_2  and  C2_3 
REMARK    3  A    between atoms: C6_7  and  C7_8 
REMARK    4  A    between atoms: N3_12  and  C9_13 
ROOT
HETATM    1  C7  UNL     1      26.559   0.940  53.463  1.00  0.00     0.163 A 
HETATM    2  N1  UNL     1      27.912   1.117  53.430  1.00  0.00    -0.220 NA
HETATM    3  C8  UNL     1      28.502   0.148  54.149  1.00  0.00     0.258 A 
HETATM    4  N2  UNL     1      27.514  -0.628  54.627  1.00  0.00    -0.159 NA
HETATM    5  N3  UNL     1      26.335  -0.151  54.214  1.00  0.00    -0.214 N 
ENDROOT
BRANCH   1   6
HETATM    6  C6  UNL     1      25.792   1.933  52.717  1.00  0.00     0.012 A 
HETATM    7  C5  UNL     1      26.086   1.989  51.351  1.00  0.00     0.015 A 
HETATM    8  C4  UNL     1      25.446   2.882  50.488  1.00  0.00     0.002 A 
HETATM    9  C3  UNL     1      24.496   3.724  51.030  1.00  0.00     0.009 A 
HETATM   10  C2  UNL     1      24.204   3.671  52.377  1.00  0.00    -0.034 A 
HETATM   11  C15 UNL     1      24.843   2.784  53.222  1.00  0.00     0.024 A 
BRANCH  10  12
HETATM   12  C1  UNL     1      23.163   4.599  52.949  1.00  0.00     0.202 C 
BRANCH  12  13
HETATM   13  O1  UNL     1      23.092   5.757  52.216  1.00  0.00    -0.396 OA
HETATM   14  H1  UNL     1      23.744   6.404  52.587  1.00  0.00     0.209 HD
ENDBRANCH  12  13
ENDBRANCH  10  12
ENDBRANCH   1   6
BRANCH   5  15
HETATM   15  C9  UNL     1      24.978  -0.540  54.396  1.00  0.00     0.062 A 
HETATM   16  C10 UNL     1      24.402  -1.129  55.510  1.00  0.00     0.035 A 
HETATM   17  C11 UNL     1      23.047  -1.431  55.482  1.00  0.00     0.046 A 
HETATM   18  C12 UNL     1      22.232  -1.177  54.397  1.00  0.00     0.138 A 
HETATM   19  F1  UNL     1      20.922  -1.501  54.444  1.00  0.00    -0.204 F 
HETATM   20  C13 UNL     1      22.816  -0.586  53.281  1.00  0.00     0.074 A 
HETATM   21 CL1  UNL     1      21.786  -0.262  51.901  1.00  0.00    -0.081 Cl
HETATM   22  C14 UNL     1      24.170  -0.279  53.297  1.00  0.00     0.058 A 
ENDBRANCH   5  15
TORSDOF 4
ENDMDL
MODEL 8
REMARK VINA RESULT:      -7.4      4.053      5.685
REMARK  4 active torsions:
REMARK  status: ('A' for Active; 'I' for Inactive)
REMARK    1  A    between atoms: O1_1  and  C1_2 
REMARK    2  A    between atoms: C1_2  and  C2_3 
REMARK    3  A    between atoms: C6_7  and  C7_8 
REMARK    4  A    between atoms: N3_12  and  C9_13 
ROOT
HETATM    1  C7  UNL     1      23.145   2.293  50.380  1.00  0.00     0.163 A 
HETATM    2  N1  UNL     1      22.291   1.339  49.908  1.00  0.00    -0.220 NA
HETATM    3  C8  UNL     1      21.531   1.870  48.936  1.00  0.00     0.258 A 
HETATM    4  N2  UNL     1      21.915   3.151  48.808  1.00  0.00    -0.159 NA
HETATM    5  N3  UNL     1      22.893   3.412  49.681  1.00  0.00    -0.214 N 
ENDROOT
BRANCH   1   6
HETATM    6  C6  UNL     1      24.034   1.845  51.448  1.00  0.00     0.012 A 
HETATM    7  C5  UNL     1      23.454   0.949  52.351  1.00  0.00     0.015 A 
HETATM    8  C4  UNL     1      24.162   0.420  53.434  1.00  0.00     0.002 A 
HETATM    9  C3  UNL     1      25.476   0.814  53.591  1.00  0.00     0.009 A 
HETATM   10  C2  UNL     1      26.050   1.698  52.702  1.00  0.00    -0.034 A 
HETATM   11  C15 UNL     1      25.341   2.215  51.635  1.00  0.00     0.024 A 
BRANCH  10  12
HETATM   12  C1  UNL     1      27.486   2.115  52.892  1.00  0.00     0.202 C 
BRANCH  12  13
HETATM   13  O1  UNL     1      27.635   2.821  54.060  1.00  0.00    -0.396 OA
HETATM   14  H1  UNL     1      27.429   3.773  53.880  1.00  0.00     0.209 HD
ENDBRANCH  12  13
ENDBRANCH  10  12
ENDBRANCH   1   6
BRANCH   5  15
HETATM   15  C9  UNL     1      23.671   4.560  50.000  1.00  0.00     0.062 A 
HETATM   16  C10 UNL     1      23.415   5.523  50.962  1.00  0.00     0.035 A 
HETATM   17  C11 UNL     1      24.311   6.574  51.113  1.00  0.00     0.046 A 
HETATM   18  C12 UNL     1      25.454   6.715  50.352  1.00  0.00     0.138 A 
HETATM   19  F1  UNL     1      26.278   7.765  50.558  1.00  0.00    -0.204 F 
HETATM   20  C13 UNL     1      25.706   5.744  49.388  1.00  0.00     0.074 A 
HETATM   21 CL1  UNL     1      27.156   5.919  48.419  1.00  0.00    -0.081 Cl
HETATM   22  C14 UNL     1      24.818   4.689  49.228  1.00  0.00     0.058 A 
ENDBRANCH   5  15
TORSDOF 4
ENDMDL
MODEL 9
REMARK VINA RESULT:      -7.3      3.346      5.407
REMARK  4 active torsions:
REMARK  status: ('A' for Active; 'I' for Inactive)
REMARK    1  A    between atoms: O1_1  and  C1_2 
REMARK    2  A    between atoms: C1_2  and  C2_3 
REMARK    3  A    between atoms: C6_7  and  C7_8 
REMARK    4  A    between atoms: N3_12  and  C9_13 
ROOT
HETATM    1  C7  UNL     1      24.871   1.091  52.309  1.00  0.00     0.163 A 
HETATM    2  N1  UNL     1      25.842   0.146  52.473  1.00  0.00    -0.220 NA
HETATM    3  C8  UNL     1      27.048   0.722  52.335  1.00  0.00     0.258 A 
HETATM    4  N2  UNL     1      26.822   2.023  52.085  1.00  0.00    -0.159 NA
HETATM    5  N3  UNL     1      25.504   2.251  52.069  1.00  0.00    -0.214 N 
ENDROOT
BRANCH   1   6
HETATM    6  C6  UNL     1      23.504   0.595  52.435  1.00  0.00     0.012 A 
HETATM    7  C5  UNL     1      22.647   0.980  51.399  1.00  0.00     0.015 A 
HETATM    8  C4  UNL     1      21.305   0.593  51.361  1.00  0.00     0.002 A 
HETATM    9  C3  UNL     1      20.838  -0.194  52.394  1.00  0.00     0.009 A 
HETATM   10  C2  UNL     1      21.681  -0.575  53.417  1.00  0.00    -0.034 A 
HETATM   11  C15 UNL     1      23.007  -0.188  53.445  1.00  0.00     0.024 A 
BRANCH  10  12
HETATM   12  C1  UNL     1      21.151  -1.435  54.535  1.00  0.00     0.202 C 
BRANCH  12  13
HETATM   13  O1  UNL     1      22.178  -1.905  55.314  1.00  0.00    -0.396 OA
HETATM   14  H1  UNL     1      21.824  -2.092  56.221  1.00  0.00     0.209 HD
ENDBRANCH  12  13
ENDBRANCH  10  12
ENDBRANCH   1   6
BRANCH   5  15
HETATM   15  C9  UNL     1      24.690   3.399  51.861  1.00  0.00     0.062 A 
HETATM   16  C10 UNL     1      23.843   4.019  52.766  1.00  0.00     0.035 A 
HETATM   17  C11 UNL     1      23.131   5.139  52.358  1.00  0.00     0.046 A 
HETATM   18  C12 UNL     1      23.218   5.676  51.089  1.00  0.00     0.138 A 
HETATM   19  F1  UNL     1      22.493   6.769  50.766  1.00  0.00    -0.204 F 
HETATM   20  C13 UNL     1      24.071   5.050  50.185  1.00  0.00     0.074 A 
HETATM   21 CL1  UNL     1      24.185   5.729  48.573  1.00  0.00    -0.081 Cl
HETATM   22  C14 UNL     1      24.788   3.930  50.582  1.00  0.00     0.058 A 
ENDBRANCH   5  15
TORSDOF 4
ENDMDL
