MODEL 1
REMARK VINA RESULT:      -7.2      0.000      0.000
REMARK  4 active torsions:
REMARK  status: ('A' for Active; 'I' for Inactive)
REMARK    1  A    between atoms: C7_9  and  C8_10 
REMARK    2  A    between atoms: C8_10  and  C9_12 
REMARK    3  A    between atoms: C9_12  and  S1_13 
REMARK    4  A    between atoms: S1_13  and  C10_16 
ROOT
HETATM    1  C9  UNL     1      23.669   4.434  52.124  1.00  0.00     0.224 C 
ENDROOT
BRANCH   1   2
HETATM    2  C8  UNL     1      22.686   3.350  51.830  1.00  0.00     0.155 C 
HETATM    3  O1  UNL     1      21.619   3.733  52.289  1.00  0.00    -0.296 OA
BRANCH   2   4
HETATM    4  C7  UNL     1      23.278   2.191  51.105  1.00  0.00     0.148 C 
HETATM    5  C2  UNL     1      24.110   1.326  51.987  1.00  0.00    -0.070 C 
HETATM    6  C1  UNL     1      25.571   1.259  51.697  1.00  0.00     0.044 C 
HETATM    7  C3  UNL     1      23.551   0.637  53.002  1.00  0.00    -0.021 C 
HETATM    8  C4  UNL     1      22.147   0.544  53.479  1.00  0.00     0.049 C 
HETATM    9  C5  UNL     1      21.135   0.249  52.446  1.00  0.00     0.154 C 
HETATM   10  N1  UNL     1      21.371   0.573  51.119  1.00  0.00    -0.281 NA
HETATM   11  C6  UNL     1      22.206   1.336  50.523  1.00  0.00     0.113 C 
HETATM   12 CL1  UNL     1      21.797   1.150  48.820  1.00  0.00    -0.067 Cl
ENDBRANCH   2   4
ENDBRANCH   1   2
BRANCH   1  13
HETATM   13  S1  UNL     1      23.730   5.490  50.694  1.00  0.00     0.180 S 
HETATM   14  O2  UNL     1      22.684   4.956  49.736  1.00  0.00    -0.222 OA
HETATM   15  O3  UNL     1      23.297   6.857  51.108  1.00  0.00    -0.222 OA
BRANCH  13  16
HETATM   16  C10 UNL     1      25.303   5.505  49.951  1.00  0.00     0.055 A 
HETATM   17  C11 UNL     1      25.783   4.320  49.567  1.00  0.00     0.024 A 
HETATM   18  C12 UNL     1      27.104   4.334  48.942  1.00  0.00     0.043 A 
HETATM   19  C13 UNL     1      27.845   5.412  48.735  1.00  0.00     0.099 A 
HETATM   20 CL2  UNL     1      29.428   5.392  47.982  1.00  0.00    -0.065 Cl
HETATM   21  N2  UNL     1      27.256   6.631  49.176  1.00  0.00    -0.376 N 
HETATM   22  C14 UNL     1      25.974   6.820  49.809  1.00  0.00     0.171 A 
HETATM   23  H14 UNL     1      27.744   7.543  49.066  1.00  0.00     0.160 HD
ENDBRANCH  13  16
ENDBRANCH   1  13
TORSDOF 4
ENDMDL
MODEL 2
REMARK VINA RESULT:      -7.0      3.933      5.088
REMARK  4 active torsions:
REMARK  status: ('A' for Active; 'I' for Inactive)
REMARK    1  A    between atoms: C7_9  and  C8_10 
REMARK    2  A    between atoms: C8_10  and  C9_12 
REMARK    3  A    between atoms: C9_12  and  S1_13 
REMARK    4  A    between atoms: S1_13  and  C10_16 
ROOT
HETATM    1  C9  UNL     1      25.543   1.281  51.499  1.00  0.00     0.224 C 
ENDROOT
BRANCH   1   2
HETATM    2  C8  UNL     1      26.163   1.146  52.850  1.00  0.00     0.155 C 
HETATM    3  O1  UNL     1      26.557   2.264  53.149  1.00  0.00    -0.296 OA
BRANCH   2   4
HETATM    4  C7  UNL     1      26.115  -0.241  53.391  1.00  0.00     0.148 C 
HETATM    5  C2  UNL     1      27.132  -1.135  52.770  1.00  0.00    -0.070 C 
HETATM    6  C1  UNL     1      26.630  -2.270  51.944  1.00  0.00     0.044 C 
HETATM    7  C3  UNL     1      28.449  -0.915  52.955  1.00  0.00    -0.021 C 
HETATM    8  C4  UNL     1      29.178   0.130  53.721  1.00  0.00     0.049 C 
HETATM    9  C5  UNL     1      28.736   0.333  55.113  1.00  0.00     0.154 C 
HETATM   10  N1  UNL     1      27.445   0.003  55.495  1.00  0.00    -0.281 NA
HETATM   11  C6  UNL     1      26.362  -0.237  54.860  1.00  0.00     0.113 C 
HETATM   12 CL1  UNL     1      25.195  -0.571  56.138  1.00  0.00    -0.067 Cl
ENDBRANCH   2   4
ENDBRANCH   1   2
BRANCH   1  13
HETATM   13  S1  UNL     1      24.016   2.167  51.708  1.00  0.00     0.180 S 
HETATM   14  O2  UNL     1      23.037   1.547  50.731  1.00  0.00    -0.222 OA
HETATM   15  O3  UNL     1      23.504   1.894  53.082  1.00  0.00    -0.222 OA
BRANCH  13  16
HETATM   16  C10 UNL     1      24.196   3.871  51.408  1.00  0.00     0.055 A 
HETATM   17  C11 UNL     1      24.905   4.207  50.329  1.00  0.00     0.024 A 
HETATM   18  C12 UNL     1      25.055   5.639  50.079  1.00  0.00     0.043 A 
HETATM   19  C13 UNL     1      24.550   6.608  50.828  1.00  0.00     0.099 A 
HETATM   20 CL2  UNL     1      24.749   8.318  50.498  1.00  0.00    -0.065 Cl
HETATM   21  N2  UNL     1      23.809   6.159  51.958  1.00  0.00    -0.376 N 
HETATM   22  C14 UNL     1      23.552   4.801  52.369  1.00  0.00     0.171 A 
HETATM   23  H14 UNL     1      23.364   6.828  52.619  1.00  0.00     0.160 HD
ENDBRANCH  13  16
ENDBRANCH   1  13
TORSDOF 4
ENDMDL
MODEL 3
REMARK VINA RESULT:      -6.9      4.261      6.843
REMARK  4 active torsions:
REMARK  status: ('A' for Active; 'I' for Inactive)
REMARK    1  A    between atoms: C7_9  and  C8_10 
REMARK    2  A    between atoms: C8_10  and  C9_12 
REMARK    3  A    between atoms: C9_12  and  S1_13 
REMARK    4  A    between atoms: S1_13  and  C10_16 
ROOT
HETATM    1  C9  UNL     1      25.502   1.462  51.578  1.00  0.00     0.224 C 
ENDROOT
BRANCH   1   2
HETATM    2  C8  UNL     1      26.569   1.135  52.568  1.00  0.00     0.155 C 
HETATM    3  O1  UNL     1      27.338   2.086  52.557  1.00  0.00    -0.296 OA
BRANCH   2   4
HETATM    4  C7  UNL     1      26.381  -0.185  53.232  1.00  0.00     0.148 C 
HETATM    5  C2  UNL     1      27.349  -1.212  52.756  1.00  0.00    -0.070 C 
HETATM    6  C1  UNL     1      26.797  -2.379  52.012  1.00  0.00     0.044 C 
HETATM    7  C3  UNL     1      28.670  -1.077  52.995  1.00  0.00    -0.021 C 
HETATM    8  C4  UNL     1      29.444  -0.022  53.700  1.00  0.00     0.049 C 
HETATM    9  C5  UNL     1      28.951   0.349  55.040  1.00  0.00     0.154 C 
HETATM   10  N1  UNL     1      27.619   0.159  55.377  1.00  0.00    -0.281 NA
HETATM   11  C6  UNL     1      26.553  -0.057  54.706  1.00  0.00     0.113 C 
HETATM   12 CL1  UNL     1      25.301  -0.174  55.940  1.00  0.00    -0.067 Cl
ENDBRANCH   2   4
ENDBRANCH   1   2
BRANCH   1  13
HETATM   13  S1  UNL     1      24.277   2.433  52.427  1.00  0.00     0.180 S 
HETATM   14  O2  UNL     1      24.894   2.812  53.758  1.00  0.00    -0.222 OA
HETATM   15  O3  UNL     1      24.069   3.694  51.658  1.00  0.00    -0.222 OA
BRANCH  13  16
HETATM   16  C10 UNL     1      22.789   1.561  52.658  1.00  0.00     0.055 A 
HETATM   17  C11 UNL     1      22.904   0.311  53.111  1.00  0.00     0.024 A 
HETATM   18  C12 UNL     1      21.653  -0.419  53.305  1.00  0.00     0.043 A 
HETATM   19  C13 UNL     1      20.440   0.057  53.070  1.00  0.00     0.099 A 
HETATM   20 CL2  UNL     1      18.958  -0.847  53.314  1.00  0.00    -0.065 Cl
HETATM   21  N2  UNL     1      20.411   1.397  52.590  1.00  0.00    -0.376 N 
HETATM   22  C14 UNL     1      21.528   2.274  52.336  1.00  0.00     0.171 A 
HETATM   23  H14 UNL     1      19.516   1.879  52.370  1.00  0.00     0.160 HD
ENDBRANCH  13  16
ENDBRANCH   1  13
TORSDOF 4
ENDMDL
MODEL 4
REMARK VINA RESULT:      -6.9      3.914      5.854
REMARK  4 active torsions:
REMARK  status: ('A' for Active; 'I' for Inactive)
REMARK    1  A    between atoms: C7_9  and  C8_10 
REMARK    2  A    between atoms: C8_10  and  C9_12 
REMARK    3  A    between atoms: C9_12  and  S1_13 
REMARK    4  A    between atoms: S1_13  and  C10_16 
ROOT
HETATM    1  C9  UNL     1      22.977   1.140  53.455  1.00  0.00     0.224 C 
ENDROOT
BRANCH   1   2
HETATM    2  C8  UNL     1      22.074   1.061  52.269  1.00  0.00     0.155 C 
HETATM    3  O1  UNL     1      20.991   0.691  52.699  1.00  0.00    -0.296 OA
BRANCH   2   4
HETATM    4  C7  UNL     1      22.738   1.437  50.990  1.00  0.00     0.148 C 
HETATM    5  C2  UNL     1      21.780   1.970  49.981  1.00  0.00    -0.070 C 
HETATM    6  C1  UNL     1      21.578   1.169  48.741  1.00  0.00     0.044 C 
HETATM    7  C3  UNL     1      21.129   3.131  50.195  1.00  0.00    -0.021 C 
HETATM    8  C4  UNL     1      21.163   4.089  51.331  1.00  0.00     0.049 C 
HETATM    9  C5  UNL     1      22.505   4.520  51.768  1.00  0.00     0.154 C 
HETATM   10  N1  UNL     1      23.611   3.716  51.538  1.00  0.00    -0.281 NA
HETATM   11  C6  UNL     1      23.769   2.487  51.225  1.00  0.00     0.113 C 
HETATM   12 CL1  UNL     1      25.518   2.302  51.133  1.00  0.00    -0.067 Cl
ENDBRANCH   2   4
ENDBRANCH   1   2
BRANCH   1  13
HETATM   13  S1  UNL     1      23.619  -0.494  53.738  1.00  0.00     0.180 S 
HETATM   14  O2  UNL     1      23.063  -0.934  55.077  1.00  0.00    -0.222 OA
HETATM   15  O3  UNL     1      23.050  -1.403  52.700  1.00  0.00    -0.222 OA
BRANCH  13  16
HETATM   16  C10 UNL     1      25.358  -0.527  53.747  1.00  0.00     0.055 A 
HETATM   17  C11 UNL     1      25.943  -0.987  52.639  1.00  0.00     0.024 A 
HETATM   18  C12 UNL     1      27.404  -1.014  52.647  1.00  0.00     0.043 A 
HETATM   19  C13 UNL     1      28.175  -0.626  53.652  1.00  0.00     0.099 A 
HETATM   20 CL2  UNL     1      29.927  -0.672  53.629  1.00  0.00    -0.065 Cl
HETATM   21  N2  UNL     1      27.467  -0.151  54.793  1.00  0.00    -0.376 N 
HETATM   22  C14 UNL     1      26.040  -0.047  54.974  1.00  0.00     0.171 A 
HETATM   23  H14 UNL     1      27.966   0.183  55.643  1.00  0.00     0.160 HD
ENDBRANCH  13  16
ENDBRANCH   1  13
TORSDOF 4
ENDMDL
MODEL 5
REMARK VINA RESULT:      -6.8      3.323      5.781
REMARK  4 active torsions:
REMARK  status: ('A' for Active; 'I' for Inactive)
REMARK    1  A    between atoms: C7_9  and  C8_10 
REMARK    2  A    between atoms: C8_10  and  C9_12 
REMARK    3  A    between atoms: C9_12  and  S1_13 
REMARK    4  A    between atoms: S1_13  and  C10_16 
ROOT
HETATM    1  C9  UNL     1      23.681   3.116  52.040  1.00  0.00     0.224 C 
ENDROOT
BRANCH   1   2
HETATM    2  C8  UNL     1      22.945   3.472  50.792  1.00  0.00     0.155 C 
HETATM    3  O1  UNL     1      21.899   3.990  51.157  1.00  0.00    -0.296 OA
BRANCH   2   4
HETATM    4  C7  UNL     1      23.674   3.103  49.547  1.00  0.00     0.148 C 
HETATM    5  C2  UNL     1      22.838   3.262  48.324  1.00  0.00    -0.070 C 
HETATM    6  C1  UNL     1      22.497   2.025  47.565  1.00  0.00     0.044 C 
HETATM    7  C3  UNL     1      22.415   4.480  47.931  1.00  0.00    -0.021 C 
HETATM    8  C4  UNL     1      22.622   5.833  48.511  1.00  0.00     0.049 C 
HETATM    9  C5  UNL     1      24.018   6.190  48.827  1.00  0.00     0.154 C 
HETATM   10  N1  UNL     1      24.955   5.201  49.085  1.00  0.00    -0.281 NA
HETATM   11  C6  UNL     1      24.882   3.959  49.376  1.00  0.00     0.113 C 
HETATM   12 CL1  UNL     1      26.567   3.469  49.535  1.00  0.00    -0.067 Cl
ENDBRANCH   2   4
ENDBRANCH   1   2
BRANCH   1  13
HETATM   13  S1  UNL     1      23.429   1.379  52.323  1.00  0.00     0.180 S 
HETATM   14  O2  UNL     1      22.496   1.280  53.513  1.00  0.00    -0.222 OA
HETATM   15  O3  UNL     1      22.708   0.816  51.145  1.00  0.00    -0.222 OA
BRANCH  13  16
HETATM   16  C10 UNL     1      24.921   0.538  52.633  1.00  0.00     0.055 A 
HETATM   17  C11 UNL     1      25.982   0.945  51.934  1.00  0.00     0.024 A 
HETATM   18  C12 UNL     1      27.234   0.238  52.196  1.00  0.00     0.043 A 
HETATM   19  C13 UNL     1      27.390  -0.756  53.057  1.00  0.00     0.099 A 
HETATM   20 CL2  UNL     1      28.908  -1.583  53.347  1.00  0.00    -0.065 Cl
HETATM   21  N2  UNL     1      26.207  -1.125  53.759  1.00  0.00    -0.376 N 
HETATM   22  C14 UNL     1      24.889  -0.552  53.640  1.00  0.00     0.171 A 
HETATM   23  H14 UNL     1      26.207  -1.892  54.462  1.00  0.00     0.160 HD
ENDBRANCH  13  16
ENDBRANCH   1  13
TORSDOF 4
ENDMDL
MODEL 6
REMARK VINA RESULT:      -6.7      3.746      5.600
REMARK  4 active torsions:
REMARK  status: ('A' for Active; 'I' for Inactive)
REMARK    1  A    between atoms: C7_9  and  C8_10 
REMARK    2  A    between atoms: C8_10  and  C9_12 
REMARK    3  A    between atoms: C9_12  and  S1_13 
REMARK    4  A    between atoms: S1_13  and  C10_16 
ROOT
HETATM    1  C9  UNL     1      24.329   3.004  53.148  1.00  0.00     0.224 C 
ENDROOT
BRANCH   1   2
HETATM    2  C8  UNL     1      23.617   3.627  51.995  1.00  0.00     0.155 C 
HETATM    3  O1  UNL     1      22.445   3.298  52.109  1.00  0.00    -0.296 OA
BRANCH   2   4
HETATM    4  C7  UNL     1      24.509   4.418  51.102  1.00  0.00     0.148 C 
HETATM    5  C2  UNL     1      24.932   3.659  49.892  1.00  0.00    -0.070 C 
HETATM    6  C1  UNL     1      26.381   3.334  49.762  1.00  0.00     0.044 C 
HETATM    7  C3  UNL     1      24.030   3.287  48.962  1.00  0.00    -0.021 C 
HETATM    8  C4  UNL     1      22.560   3.491  48.873  1.00  0.00     0.049 C 
HETATM    9  C5  UNL     1      22.090   4.875  49.077  1.00  0.00     0.154 C 
HETATM   10  N1  UNL     1      22.846   5.772  49.815  1.00  0.00    -0.281 NA
HETATM   11  C6  UNL     1      23.819   5.654  50.636  1.00  0.00     0.113 C 
HETATM   12 CL1  UNL     1      24.172   7.314  51.105  1.00  0.00    -0.067 Cl
ENDBRANCH   2   4
ENDBRANCH   1   2
BRANCH   1  13
HETATM   13  S1  UNL     1      24.374   1.251  52.854  1.00  0.00     0.180 S 
HETATM   14  O2  UNL     1      23.358   0.643  53.800  1.00  0.00    -0.222 OA
HETATM   15  O3  UNL     1      23.891   1.000  51.464  1.00  0.00    -0.222 OA
BRANCH  13  16
HETATM   16  C10 UNL     1      25.955   0.576  53.123  1.00  0.00     0.055 A 
HETATM   17  C11 UNL     1      26.962   1.448  53.193  1.00  0.00     0.024 A 
HETATM   18  C12 UNL     1      28.289   0.880  53.419  1.00  0.00     0.043 A 
HETATM   19  C13 UNL     1      28.561  -0.409  53.557  1.00  0.00     0.099 A 
HETATM   20 CL2  UNL     1      30.167  -1.057  53.829  1.00  0.00    -0.065 Cl
HETATM   21  N2  UNL     1      27.428  -1.266  53.469  1.00  0.00    -0.376 N 
HETATM   22  C14 UNL     1      26.050  -0.899  53.251  1.00  0.00     0.171 A 
HETATM   23  H14 UNL     1      27.517  -2.299  53.563  1.00  0.00     0.160 HD
ENDBRANCH  13  16
ENDBRANCH   1  13
TORSDOF 4
ENDMDL
MODEL 7
REMARK VINA RESULT:      -6.5      2.790      5.565
REMARK  4 active torsions:
REMARK  status: ('A' for Active; 'I' for Inactive)
REMARK    1  A    between atoms: C7_9  and  C8_10 
REMARK    2  A    between atoms: C8_10  and  C9_12 
REMARK    3  A    between atoms: C9_12  and  S1_13 
REMARK    4  A    between atoms: S1_13  and  C10_16 
ROOT
HETATM    1  C9  UNL     1      22.623   4.313  51.256  1.00  0.00     0.224 C 
ENDROOT
BRANCH   1   2
HETATM    2  C8  UNL     1      23.834   5.079  50.838  1.00  0.00     0.155 C 
HETATM    3  O1  UNL     1      24.144   5.765  51.801  1.00  0.00    -0.296 OA
BRANCH   2   4
HETATM    4  C7  UNL     1      24.270   4.787  49.444  1.00  0.00     0.148 C 
HETATM    5  C2  UNL     1      23.419   5.459  48.423  1.00  0.00    -0.070 C 
HETATM    6  C1  UNL     1      22.609   4.586  47.526  1.00  0.00     0.044 C 
HETATM    7  C3  UNL     1      23.391   6.803  48.325  1.00  0.00    -0.021 C 
HETATM    8  C4  UNL     1      24.096   7.865  49.091  1.00  0.00     0.049 C 
HETATM    9  C5  UNL     1      25.555   7.696  49.230  1.00  0.00     0.154 C 
HETATM   10  N1  UNL     1      26.127   6.436  49.152  1.00  0.00    -0.281 NA
HETATM   11  C6  UNL     1      25.671   5.244  49.229  1.00  0.00     0.113 C 
HETATM   12 CL1  UNL     1      27.101   4.237  49.020  1.00  0.00    -0.067 Cl
ENDBRANCH   2   4
ENDBRANCH   1   2
BRANCH   1  13
HETATM   13  S1  UNL     1      23.110   2.612  51.429  1.00  0.00     0.180 S 
HETATM   14  O2  UNL     1      22.061   1.965  52.310  1.00  0.00    -0.222 OA
HETATM   15  O3  UNL     1      23.023   1.965  50.087  1.00  0.00    -0.222 OA
BRANCH  13  16
HETATM   16  C10 UNL     1      24.695   2.447  52.128  1.00  0.00     0.055 A 
HETATM   17  C11 UNL     1      25.648   1.980  51.319  1.00  0.00     0.024 A 
HETATM   18  C12 UNL     1      26.979   1.842  51.907  1.00  0.00     0.043 A 
HETATM   19  C13 UNL     1      27.302   2.140  53.156  1.00  0.00     0.099 A 
HETATM   20 CL2  UNL     1      28.911   1.962  53.830  1.00  0.00    -0.065 Cl
HETATM   21  N2  UNL     1      26.225   2.631  53.947  1.00  0.00    -0.376 N 
HETATM   22  C14 UNL     1      24.853   2.835  53.551  1.00  0.00     0.171 A 
HETATM   23  H14 UNL     1      26.358   2.898  54.943  1.00  0.00     0.160 HD
ENDBRANCH  13  16
ENDBRANCH   1  13
TORSDOF 4
ENDMDL
MODEL 8
REMARK VINA RESULT:      -6.4      5.872      9.899
REMARK  4 active torsions:
REMARK  status: ('A' for Active; 'I' for Inactive)
REMARK    1  A    between atoms: C7_9  and  C8_10 
REMARK    2  A    between atoms: C8_10  and  C9_12 
REMARK    3  A    between atoms: C9_12  and  S1_13 
REMARK    4  A    between atoms: S1_13  and  C10_16 
ROOT
HETATM    1  C9  UNL     1      31.492   7.459  48.879  1.00  0.00     0.224 C 
ENDROOT
BRANCH   1   2
HETATM    2  C8  UNL     1      32.207   6.254  48.366  1.00  0.00     0.155 C 
HETATM    3  O1  UNL     1      31.807   5.316  49.041  1.00  0.00    -0.296 OA
BRANCH   2   4
HETATM    4  C7  UNL     1      33.142   6.550  47.245  1.00  0.00     0.148 C 
HETATM    5  C2  UNL     1      34.403   7.197  47.704  1.00  0.00    -0.070 C 
HETATM    6  C1  UNL     1      34.655   8.596  47.256  1.00  0.00     0.044 C 
HETATM    7  C3  UNL     1      35.271   6.532  48.493  1.00  0.00    -0.021 C 
HETATM    8  C4  UNL     1      35.240   5.158  49.059  1.00  0.00     0.049 C 
HETATM    9  C5  UNL     1      34.959   4.074  48.099  1.00  0.00     0.154 C 
HETATM   10  N1  UNL     1      34.255   4.332  46.933  1.00  0.00    -0.281 NA
HETATM   11  C6  UNL     1      33.517   5.296  46.533  1.00  0.00     0.113 C 
HETATM   12 CL1  UNL     1      33.027   4.801  44.915  1.00  0.00    -0.067 Cl
ENDBRANCH   2   4
ENDBRANCH   1   2
BRANCH   1  13
HETATM   13  S1  UNL     1      30.085   7.725  47.824  1.00  0.00     0.180 S 
HETATM   14  O2  UNL     1      29.885   9.226  47.764  1.00  0.00    -0.222 OA
HETATM   15  O3  UNL     1      30.441   7.268  46.449  1.00  0.00    -0.222 OA
BRANCH  13  16
HETATM   16  C10 UNL     1      28.654   6.932  48.420  1.00  0.00     0.055 A 
HETATM   17  C11 UNL     1      28.567   5.622  48.186  1.00  0.00     0.024 A 
HETATM   18  C12 UNL     1      27.366   4.958  48.687  1.00  0.00     0.043 A 
HETATM   19  C13 UNL     1      26.378   5.548  49.343  1.00  0.00     0.099 A 
HETATM   20 CL2  UNL     1      24.949   4.720  49.931  1.00  0.00    -0.065 Cl
HETATM   21  N2  UNL     1      26.554   6.945  49.548  1.00  0.00    -0.376 N 
HETATM   22  C14 UNL     1      27.660   7.772  49.133  1.00  0.00     0.171 A 
HETATM   23  H14 UNL     1      25.845   7.516  50.052  1.00  0.00     0.160 HD
ENDBRANCH  13  16
ENDBRANCH   1  13
TORSDOF 4
ENDMDL
MODEL 9
REMARK VINA RESULT:      -6.3      1.804      2.372
REMARK  4 active torsions:
REMARK  status: ('A' for Active; 'I' for Inactive)
REMARK    1  A    between atoms: C7_9  and  C8_10 
REMARK    2  A    between atoms: C8_10  and  C9_12 
REMARK    3  A    between atoms: C9_12  and  S1_13 
REMARK    4  A    between atoms: S1_13  and  C10_16 
ROOT
HETATM    1  C9  UNL     1      24.337   5.763  50.928  1.00  0.00     0.224 C 
ENDROOT
BRANCH   1   2
HETATM    2  C8  UNL     1      23.383   4.799  50.305  1.00  0.00     0.155 C 
HETATM    3  O1  UNL     1      22.271   5.138  50.685  1.00  0.00    -0.296 OA
BRANCH   2   4
HETATM    4  C7  UNL     1      24.045   3.771  49.456  1.00  0.00     0.148 C 
HETATM    5  C2  UNL     1      25.133   3.048  50.172  1.00  0.00    -0.070 C 
HETATM    6  C1  UNL     1      26.524   3.239  49.672  1.00  0.00     0.044 C 
HETATM    7  C3  UNL     1      24.857   2.258  51.229  1.00  0.00    -0.021 C 
HETATM    8  C4  UNL     1      23.575   1.918  51.900  1.00  0.00     0.049 C 
HETATM    9  C5  UNL     1      22.484   1.469  51.013  1.00  0.00     0.154 C 
HETATM   10  N1  UNL     1      22.461   1.849  49.680  1.00  0.00    -0.281 NA
HETATM   11  C6  UNL     1      23.057   2.753  49.001  1.00  0.00     0.113 C 
HETATM   12 CL1  UNL     1      22.435   2.525  47.369  1.00  0.00    -0.067 Cl
ENDBRANCH   2   4
ENDBRANCH   1   2
BRANCH   1  13
HETATM   13  S1  UNL     1      24.516   7.128  49.803  1.00  0.00     0.180 S 
HETATM   14  O2  UNL     1      23.662   6.790  48.598  1.00  0.00    -0.222 OA
HETATM   15  O3  UNL     1      23.922   8.338  50.443  1.00  0.00    -0.222 OA
BRANCH  13  16
HETATM   16  C10 UNL     1      26.172   7.387  49.338  1.00  0.00     0.055 A 
HETATM   17  C11 UNL     1      26.671   6.534  48.441  1.00  0.00     0.024 A 
HETATM   18  C12 UNL     1      28.062   6.753  48.051  1.00  0.00     0.043 A 
HETATM   19  C13 UNL     1      28.848   7.714  48.512  1.00  0.00     0.099 A 
HETATM   20 CL2  UNL     1      30.515   7.948  48.021  1.00  0.00    -0.065 Cl
HETATM   21  N2  UNL     1      28.234   8.577  49.464  1.00  0.00    -0.376 N 
HETATM   22  C14 UNL     1      26.885   8.523  49.972  1.00  0.00     0.171 A 
HETATM   23  H14 UNL     1      28.753   9.369  49.895  1.00  0.00     0.160 HD
ENDBRANCH  13  16
ENDBRANCH   1  13
TORSDOF 4
ENDMDL
