MODEL 1
REMARK VINA RESULT:      -7.2      0.000      0.000
REMARK  6 active torsions:
REMARK  status: ('A' for Active; 'I' for Inactive)
REMARK    1  A    between atoms: O1_2  and  C2_3 
REMARK    2  A    between atoms: C5_6  and  N1_7 
REMARK    3  A    between atoms: N1_7  and  C6_8 
REMARK    4  A    between atoms: C8_12  and  N4_13 
REMARK    5  A    between atoms: N4_13  and  C9_14 
REMARK    6  A    between atoms: C10_15  and  N5_16 
ROOT
HETATM    1  C6  UNL     1      27.580   0.422  54.054  1.00  0.00     0.150 A 
HETATM    2  N2  UNL     1      28.728   0.517  54.685  1.00  0.00    -0.225 NA
HETATM    3  C7  UNL     1      29.161   1.890  54.584  1.00  0.00     0.232 A 
HETATM    4  N3  UNL     1      28.312   2.589  53.922  1.00  0.00    -0.249 NA
HETATM    5  C8  UNL     1      27.226   1.740  53.518  1.00  0.00     0.277 A 
ENDROOT
BRANCH   1   6
HETATM    6  N1  UNL     1      26.851  -0.803  53.948  1.00  0.00    -0.341 N 
HETATM    7  H6  UNL     1      27.417  -1.674  53.723  1.00  0.00     0.167 HD
BRANCH   6   8
HETATM    8  C5  UNL     1      25.449  -0.837  54.134  1.00  0.00     0.033 A 
HETATM    9  C4  UNL     1      24.460  -0.565  53.222  1.00  0.00     0.032 A 
HETATM   10  C3  UNL     1      23.107  -0.609  53.461  1.00  0.00     0.039 A 
HETATM   11  C2  UNL     1      22.722  -0.965  54.751  1.00  0.00     0.068 A 
HETATM   12  C14 UNL     1      23.650  -1.259  55.738  1.00  0.00     0.039 A 
HETATM   13  C13 UNL     1      25.010  -1.191  55.417  1.00  0.00     0.032 A 
BRANCH  11  14
HETATM   14  O1  UNL     1      21.335  -1.008  54.977  1.00  0.00    -0.356 OA
HETATM   15  C1  UNL     1      20.415  -0.944  53.905  1.00  0.00     0.210 C 
ENDBRANCH  11  14
ENDBRANCH   6   8
ENDBRANCH   1   6
BRANCH   5  16
HETATM   16  N4  UNL     1      27.144   1.776  52.058  1.00  0.00    -0.361 N 
HETATM   17  H9  UNL     1      27.697   1.153  51.428  1.00  0.00     0.162 HD
BRANCH  16  18
HETATM   18  C9  UNL     1      26.267   2.708  51.444  1.00  0.00     0.050 C 
HETATM   19  C10 UNL     1      26.297   3.598  50.466  1.00  0.00     0.032 C 
HETATM   20  C11 UNL     1      24.956   4.253  50.361  1.00  0.00     0.220 C 
HETATM   21  O2  UNL     1      24.137   3.490  51.156  1.00  0.00    -0.380 OA
HETATM   22  C12 UNL     1      24.891   2.739  52.024  1.00  0.00     0.226 C 
BRANCH  19  23
HETATM   23  N5  UNL     1      27.280   4.058  49.527  1.00  0.00    -0.303 NA
HETATM   24  H10 UNL     1      27.955   3.424  49.002  1.00  0.00     0.124 HD
HETATM   25  H11 UNL     1      27.922   3.399  49.036  1.00  0.00     0.124 HD
ENDBRANCH  19  23
ENDBRANCH  16  18
ENDBRANCH   5  16
TORSDOF 6
ENDMDL
MODEL 2
REMARK VINA RESULT:      -7.0      2.979      5.842
REMARK  6 active torsions:
REMARK  status: ('A' for Active; 'I' for Inactive)
REMARK    1  A    between atoms: O1_2  and  C2_3 
REMARK    2  A    between atoms: C5_6  and  N1_7 
REMARK    3  A    between atoms: N1_7  and  C6_8 
REMARK    4  A    between atoms: C8_12  and  N4_13 
REMARK    5  A    between atoms: N4_13  and  C9_14 
REMARK    6  A    between atoms: C10_15  and  N5_16 
ROOT
HETATM    1  C6  UNL     1      23.875  -0.132  53.494  1.00  0.00     0.150 A 
HETATM    2  N2  UNL     1      23.211  -0.816  54.398  1.00  0.00    -0.225 NA
HETATM    3  C7  UNL     1      24.165  -1.268  55.382  1.00  0.00     0.232 A 
HETATM    4  N3  UNL     1      25.350  -0.875  55.083  1.00  0.00    -0.249 NA
HETATM    5  C8  UNL     1      25.294  -0.117  53.864  1.00  0.00     0.277 A 
ENDROOT
BRANCH   1   6
HETATM    6  N1  UNL     1      23.248   0.471  52.360  1.00  0.00    -0.341 N 
HETATM    7  H6  UNL     1      22.510  -0.109  51.862  1.00  0.00     0.167 HD
BRANCH   6   8
HETATM    8  C5  UNL     1      23.604   1.772  51.935  1.00  0.00     0.033 A 
HETATM    9  C4  UNL     1      24.353   2.139  50.845  1.00  0.00     0.032 A 
HETATM   10  C3  UNL     1      24.674   3.426  50.481  1.00  0.00     0.039 A 
HETATM   11  C2  UNL     1      24.184   4.437  51.305  1.00  0.00     0.068 A 
HETATM   12  C14 UNL     1      23.418   4.162  52.427  1.00  0.00     0.039 A 
HETATM   13  C13 UNL     1      23.135   2.826  52.731  1.00  0.00     0.032 A 
BRANCH  11  14
HETATM   14  O1  UNL     1      24.519   5.746  50.917  1.00  0.00    -0.356 OA
HETATM   15  C1  UNL     1      25.496   5.990  49.924  1.00  0.00     0.210 C 
ENDBRANCH  11  14
ENDBRANCH   6   8
ENDBRANCH   1   6
BRANCH   5  16
HETATM   16  N4  UNL     1      26.161  -0.775  52.885  1.00  0.00    -0.361 N 
HETATM   17  H9  UNL     1      25.820  -1.189  51.990  1.00  0.00     0.162 HD
BRANCH  16  18
HETATM   18  C9  UNL     1      27.552  -0.863  53.153  1.00  0.00     0.050 C 
HETATM   19  C10 UNL     1      28.494  -1.790  53.195  1.00  0.00     0.032 C 
HETATM   20  C11 UNL     1      29.795  -1.149  53.562  1.00  0.00     0.220 C 
HETATM   21  O2  UNL     1      29.554   0.200  53.462  1.00  0.00    -0.380 OA
HETATM   22  C12 UNL     1      28.202   0.438  53.491  1.00  0.00     0.226 C 
BRANCH  19  23
HETATM   23  N5  UNL     1      28.548  -3.208  52.979  1.00  0.00    -0.303 NA
HETATM   24  H10 UNL     1      28.063  -3.714  52.178  1.00  0.00     0.124 HD
HETATM   25  H11 UNL     1      28.056  -3.662  52.179  1.00  0.00     0.124 HD
ENDBRANCH  19  23
ENDBRANCH  16  18
ENDBRANCH   5  16
TORSDOF 6
ENDMDL
MODEL 3
REMARK VINA RESULT:      -6.9      2.305      4.448
REMARK  6 active torsions:
REMARK  status: ('A' for Active; 'I' for Inactive)
REMARK    1  A    between atoms: O1_2  and  C2_3 
REMARK    2  A    between atoms: C5_6  and  N1_7 
REMARK    3  A    between atoms: N1_7  and  C6_8 
REMARK    4  A    between atoms: C8_12  and  N4_13 
REMARK    5  A    between atoms: N4_13  and  C9_14 
REMARK    6  A    between atoms: C10_15  and  N5_16 
ROOT
HETATM    1  C6  UNL     1      25.091   3.086  51.530  1.00  0.00     0.150 A 
HETATM    2  N2  UNL     1      24.897   3.834  50.467  1.00  0.00    -0.225 NA
HETATM    3  C7  UNL     1      26.000   3.599  49.568  1.00  0.00     0.232 A 
HETATM    4  N3  UNL     1      26.823   2.749  50.068  1.00  0.00    -0.249 NA
HETATM    5  C8  UNL     1      26.338   2.335  51.355  1.00  0.00     0.277 A 
ENDROOT
BRANCH   1   6
HETATM    6  N1  UNL     1      24.190   3.062  52.639  1.00  0.00    -0.341 N 
HETATM    7  H6  UNL     1      24.331   3.810  53.382  1.00  0.00     0.167 HD
BRANCH   6   8
HETATM    8  C5  UNL     1      23.169   2.087  52.729  1.00  0.00     0.033 A 
HETATM    9  C4  UNL     1      23.272   0.779  53.131  1.00  0.00     0.032 A 
HETATM   10  C3  UNL     1      22.242  -0.130  53.195  1.00  0.00     0.039 A 
HETATM   11  C2  UNL     1      20.987   0.337  52.815  1.00  0.00     0.068 A 
HETATM   12  C14 UNL     1      20.786   1.644  52.396  1.00  0.00     0.039 A 
HETATM   13  C13 UNL     1      21.886   2.508  52.358  1.00  0.00     0.032 A 
BRANCH  11  14
HETATM   14  O1  UNL     1      19.944  -0.604  52.888  1.00  0.00    -0.356 OA
HETATM   15  C1  UNL     1      18.643  -0.294  52.430  1.00  0.00     0.210 C 
ENDBRANCH  11  14
ENDBRANCH   6   8
ENDBRANCH   1   6
BRANCH   5  16
HETATM   16  N4  UNL     1      27.363   2.661  52.348  1.00  0.00    -0.361 N 
HETATM   17  H9  UNL     1      27.764   3.616  52.479  1.00  0.00     0.162 HD
BRANCH  16  18
HETATM   18  C9  UNL     1      27.851   1.629  53.191  1.00  0.00     0.050 C 
HETATM   19  C10 UNL     1      28.770   1.470  54.129  1.00  0.00     0.032 C 
HETATM   20  C11 UNL     1      28.737   0.054  54.611  1.00  0.00     0.220 C 
HETATM   21  O2  UNL     1      27.587  -0.466  54.070  1.00  0.00    -0.380 OA
HETATM   22  C12 UNL     1      27.168   0.312  53.019  1.00  0.00     0.226 C 
BRANCH  19  23
HETATM   23  N5  UNL     1      29.749   2.310  54.759  1.00  0.00    -0.303 NA
HETATM   24  H10 UNL     1      29.683   2.665  55.761  1.00  0.00     0.124 HD
HETATM   25  H11 UNL     1      29.642   2.635  55.745  1.00  0.00     0.124 HD
ENDBRANCH  19  23
ENDBRANCH  16  18
ENDBRANCH   5  16
TORSDOF 6
ENDMDL
MODEL 4
REMARK VINA RESULT:      -6.9      3.195      7.444
REMARK  6 active torsions:
REMARK  status: ('A' for Active; 'I' for Inactive)
REMARK    1  A    between atoms: O1_2  and  C2_3 
REMARK    2  A    between atoms: C5_6  and  N1_7 
REMARK    3  A    between atoms: N1_7  and  C6_8 
REMARK    4  A    between atoms: C8_12  and  N4_13 
REMARK    5  A    between atoms: N4_13  and  C9_14 
REMARK    6  A    between atoms: C10_15  and  N5_16 
ROOT
HETATM    1  C6  UNL     1      24.974   2.905  51.028  1.00  0.00     0.150 A 
HETATM    2  N2  UNL     1      23.775   2.794  51.554  1.00  0.00    -0.225 NA
HETATM    3  C7  UNL     1      23.946   2.453  52.946  1.00  0.00     0.232 A 
HETATM    4  N3  UNL     1      25.192   2.362  53.243  1.00  0.00    -0.249 NA
HETATM    5  C8  UNL     1      25.972   2.638  52.069  1.00  0.00     0.277 A 
ENDROOT
BRANCH   1   6
HETATM    6  N1  UNL     1      25.193   3.235  49.655  1.00  0.00    -0.341 N 
HETATM    7  H6  UNL     1      24.824   2.544  48.936  1.00  0.00     0.167 HD
BRANCH   6   8
HETATM    8  C5  UNL     1      25.868   4.423  49.288  1.00  0.00     0.033 A 
HETATM    9  C4  UNL     1      25.374   5.701  49.227  1.00  0.00     0.032 A 
HETATM   10  C3  UNL     1      26.077   6.823  48.858  1.00  0.00     0.039 A 
HETATM   11  C2  UNL     1      27.413   6.625  48.517  1.00  0.00     0.068 A 
HETATM   12  C14 UNL     1      28.000   5.369  48.550  1.00  0.00     0.039 A 
HETATM   13  C13 UNL     1      27.217   4.277  48.937  1.00  0.00     0.032 A 
BRANCH  11  14
HETATM   14  O1  UNL     1      28.119   7.783  48.143  1.00  0.00    -0.356 OA
HETATM   15  C1  UNL     1      28.477   8.763  49.097  1.00  0.00     0.210 C 
ENDBRANCH  11  14
ENDBRANCH   6   8
ENDBRANCH   1   6
BRANCH   5  16
HETATM   16  N4  UNL     1      26.804   1.465  51.796  1.00  0.00    -0.361 N 
HETATM   17  H9  UNL     1      26.874   1.006  50.861  1.00  0.00     0.162 HD
BRANCH  16  18
HETATM   18  C9  UNL     1      27.566   0.905  52.854  1.00  0.00     0.050 C 
HETATM   19  C10 UNL     1      28.471   1.298  53.735  1.00  0.00     0.032 C 
HETATM   20  C11 UNL     1      28.860   0.131  54.588  1.00  0.00     0.220 C 
HETATM   21  O2  UNL     1      27.933  -0.837  54.289  1.00  0.00    -0.380 OA
HETATM   22  C12 UNL     1      27.319  -0.547  53.096  1.00  0.00     0.226 C 
BRANCH  19  23
HETATM   23  N5  UNL     1      29.135   2.532  54.044  1.00  0.00    -0.303 NA
HETATM   24  H10 UNL     1      29.951   2.932  53.489  1.00  0.00     0.124 HD
HETATM   25  H11 UNL     1      29.932   2.885  53.472  1.00  0.00     0.124 HD
ENDBRANCH  19  23
ENDBRANCH  16  18
ENDBRANCH   5  16
TORSDOF 6
ENDMDL
MODEL 5
REMARK VINA RESULT:      -6.9      1.647      5.061
REMARK  6 active torsions:
REMARK  status: ('A' for Active; 'I' for Inactive)
REMARK    1  A    between atoms: O1_2  and  C2_3 
REMARK    2  A    between atoms: C5_6  and  N1_7 
REMARK    3  A    between atoms: N1_7  and  C6_8 
REMARK    4  A    between atoms: C8_12  and  N4_13 
REMARK    5  A    between atoms: N4_13  and  C9_14 
REMARK    6  A    between atoms: C10_15  and  N5_16 
ROOT
HETATM    1  C6  UNL     1      28.033   0.763  53.767  1.00  0.00     0.150 A 
HETATM    2  N2  UNL     1      29.317   0.508  53.877  1.00  0.00    -0.225 NA
HETATM    3  C7  UNL     1      29.487  -0.917  53.733  1.00  0.00     0.232 A 
HETATM    4  N3  UNL     1      28.356  -1.495  53.546  1.00  0.00    -0.249 NA
HETATM    5  C8  UNL     1      27.320  -0.500  53.547  1.00  0.00     0.277 A 
ENDROOT
BRANCH   1   6
HETATM    6  N1  UNL     1      27.491   2.082  53.859  1.00  0.00    -0.341 N 
HETATM    7  H6  UNL     1      27.946   2.733  54.567  1.00  0.00     0.167 HD
BRANCH   6   8
HETATM    8  C5  UNL     1      26.406   2.484  53.047  1.00  0.00     0.033 A 
HETATM    9  C4  UNL     1      25.143   2.857  53.432  1.00  0.00     0.032 A 
HETATM   10  C3  UNL     1      24.121   3.236  52.593  1.00  0.00     0.039 A 
HETATM   11  C2  UNL     1      24.412   3.237  51.232  1.00  0.00     0.068 A 
HETATM   12  C14 UNL     1      25.661   2.876  50.749  1.00  0.00     0.039 A 
HETATM   13  C13 UNL     1      26.649   2.502  51.666  1.00  0.00     0.032 A 
BRANCH  11  14
HETATM   14  O1  UNL     1      23.358   3.628  50.388  1.00  0.00    -0.356 OA
HETATM   15  C1  UNL     1      23.238   3.115  49.076  1.00  0.00     0.210 C 
ENDBRANCH  11  14
ENDBRANCH   6   8
ENDBRANCH   1   6
BRANCH   5  16
HETATM   16  N4  UNL     1      26.375  -0.833  54.614  1.00  0.00    -0.361 N 
HETATM   17  H9  UNL     1      26.658  -1.049  55.595  1.00  0.00     0.162 HD
BRANCH  16  18
HETATM   18  C9  UNL     1      24.989  -0.871  54.313  1.00  0.00     0.050 C 
HETATM   19  C10 UNL     1      23.854  -1.178  54.919  1.00  0.00     0.032 C 
HETATM   20  C11 UNL     1      22.720  -0.978  53.963  1.00  0.00     0.220 C 
HETATM   21  O2  UNL     1      23.279  -0.305  52.904  1.00  0.00    -0.380 OA
HETATM   22  C12 UNL     1      24.644  -0.449  52.923  1.00  0.00     0.226 C 
BRANCH  19  23
HETATM   23  N5  UNL     1      23.481  -1.640  56.226  1.00  0.00    -0.303 NA
HETATM   24  H10 UNL     1      22.478  -1.710  56.576  1.00  0.00     0.124 HD
HETATM   25  H11 UNL     1      22.483  -1.691  56.526  1.00  0.00     0.124 HD
ENDBRANCH  19  23
ENDBRANCH  16  18
ENDBRANCH   5  16
TORSDOF 6
ENDMDL
MODEL 6
REMARK VINA RESULT:      -6.8      3.346      5.354
REMARK  6 active torsions:
REMARK  status: ('A' for Active; 'I' for Inactive)
REMARK    1  A    between atoms: O1_2  and  C2_3 
REMARK    2  A    between atoms: C5_6  and  N1_7 
REMARK    3  A    between atoms: N1_7  and  C6_8 
REMARK    4  A    between atoms: C8_12  and  N4_13 
REMARK    5  A    between atoms: N4_13  and  C9_14 
REMARK    6  A    between atoms: C10_15  and  N5_16 
ROOT
HETATM    1  C6  UNL     1      24.313   0.220  53.051  1.00  0.00     0.150 A 
HETATM    2  N2  UNL     1      23.581  -0.497  53.872  1.00  0.00    -0.225 NA
HETATM    3  C7  UNL     1      24.456  -0.994  54.907  1.00  0.00     0.232 A 
HETATM    4  N3  UNL     1      25.661  -0.595  54.715  1.00  0.00    -0.249 NA
HETATM    5  C8  UNL     1      25.700   0.212  53.528  1.00  0.00     0.277 A 
ENDROOT
BRANCH   1   6
HETATM    6  N1  UNL     1      23.777   0.872  51.898  1.00  0.00    -0.341 N 
HETATM    7  H6  UNL     1      24.340   0.788  51.000  1.00  0.00     0.167 HD
BRANCH   6   8
HETATM    8  C5  UNL     1      22.560   1.590  51.966  1.00  0.00     0.033 A 
HETATM    9  C4  UNL     1      22.362   2.905  52.302  1.00  0.00     0.032 A 
HETATM   10  C3  UNL     1      21.149   3.552  52.356  1.00  0.00     0.039 A 
HETATM   11  C2  UNL     1      20.031   2.787  52.035  1.00  0.00     0.068 A 
HETATM   12  C14 UNL     1      20.134   1.450  51.681  1.00  0.00     0.039 A 
HETATM   13  C13 UNL     1      21.403   0.863  51.650  1.00  0.00     0.032 A 
BRANCH  11  14
HETATM   14  O1  UNL     1      18.800   3.464  52.093  1.00  0.00    -0.356 OA
HETATM   15  C1  UNL     1      17.638   2.925  51.493  1.00  0.00     0.210 C 
ENDBRANCH  11  14
ENDBRANCH   6   8
ENDBRANCH   1   6
BRANCH   5  16
HETATM   16  N4  UNL     1      26.638  -0.409  52.592  1.00  0.00    -0.361 N 
HETATM   17  H9  UNL     1      26.402  -0.649  51.604  1.00  0.00     0.162 HD
BRANCH  16  18
HETATM   18  C9  UNL     1      27.952  -0.711  53.038  1.00  0.00     0.050 C 
HETATM   19  C10 UNL     1      28.716  -1.776  53.212  1.00  0.00     0.032 C 
HETATM   20  C11 UNL     1      30.049  -1.340  53.735  1.00  0.00     0.220 C 
HETATM   21  O2  UNL     1      30.046   0.026  53.588  1.00  0.00    -0.380 OA
HETATM   22  C12 UNL     1      28.759   0.479  53.440  1.00  0.00     0.226 C 
BRANCH  19  23
HETATM   23  N5  UNL     1      28.564  -3.190  53.023  1.00  0.00    -0.303 NA
HETATM   24  H10 UNL     1      29.064  -3.755  52.271  1.00  0.00     0.124 HD
HETATM   25  H11 UNL     1      29.074  -3.702  52.271  1.00  0.00     0.124 HD
ENDBRANCH  19  23
ENDBRANCH  16  18
ENDBRANCH   5  16
TORSDOF 6
ENDMDL
MODEL 7
REMARK VINA RESULT:      -6.6      2.687      6.398
REMARK  6 active torsions:
REMARK  status: ('A' for Active; 'I' for Inactive)
REMARK    1  A    between atoms: O1_2  and  C2_3 
REMARK    2  A    between atoms: C5_6  and  N1_7 
REMARK    3  A    between atoms: N1_7  and  C6_8 
REMARK    4  A    between atoms: C8_12  and  N4_13 
REMARK    5  A    between atoms: N4_13  and  C9_14 
REMARK    6  A    between atoms: C10_15  and  N5_16 
ROOT
HETATM    1  C6  UNL     1      23.461   1.011  51.951  1.00  0.00     0.150 A 
HETATM    2  N2  UNL     1      22.560   0.154  52.375  1.00  0.00    -0.225 NA
HETATM    3  C7  UNL     1      23.079  -0.458  53.574  1.00  0.00     0.232 A 
HETATM    4  N3  UNL     1      24.240   0.009  53.859  1.00  0.00    -0.249 NA
HETATM    5  C8  UNL     1      24.605   0.983  52.869  1.00  0.00     0.277 A 
ENDROOT
BRANCH   1   6
HETATM    6  N1  UNL     1      23.287   1.807  50.777  1.00  0.00    -0.341 N 
HETATM    7  H6  UNL     1      22.775   1.348  49.965  1.00  0.00     0.167 HD
BRANCH   6   8
HETATM    8  C5  UNL     1      23.776   3.132  50.713  1.00  0.00     0.033 A 
HETATM    9  C4  UNL     1      23.380   4.224  51.444  1.00  0.00     0.032 A 
HETATM   10  C3  UNL     1      23.890   5.496  51.336  1.00  0.00     0.039 A 
HETATM   11  C2  UNL     1      24.901   5.675  50.395  1.00  0.00     0.068 A 
HETATM   12  C14 UNL     1      25.366   4.630  49.611  1.00  0.00     0.039 A 
HETATM   13  C13 UNL     1      24.796   3.363  49.780  1.00  0.00     0.032 A 
BRANCH  11  14
HETATM   14  O1  UNL     1      25.413   6.981  50.299  1.00  0.00    -0.356 OA
HETATM   15  C1  UNL     1      26.457   7.295  49.398  1.00  0.00     0.210 C 
ENDBRANCH  11  14
ENDBRANCH   6   8
ENDBRANCH   1   6
BRANCH   5  16
HETATM   16  N4  UNL     1      25.851   0.542  52.240  1.00  0.00    -0.361 N 
HETATM   17  H9  UNL     1      25.933   0.280  51.233  1.00  0.00     0.162 HD
BRANCH  16  18
HETATM   18  C9  UNL     1      27.025   0.460  53.032  1.00  0.00     0.050 C 
HETATM   19  C10 UNL     1      27.793   1.264  53.749  1.00  0.00     0.032 C 
HETATM   20  C11 UNL     1      28.915   0.470  54.340  1.00  0.00     0.220 C 
HETATM   21  O2  UNL     1      28.564  -0.840  54.116  1.00  0.00    -0.380 OA
HETATM   22  C12 UNL     1      27.615  -0.909  53.127  1.00  0.00     0.226 C 
BRANCH  19  23
HETATM   23  N5  UNL     1      27.794   2.662  54.072  1.00  0.00    -0.303 NA
HETATM   24  H10 UNL     1      26.966   3.185  54.491  1.00  0.00     0.124 HD
HETATM   25  H11 UNL     1      26.958   3.133  54.481  1.00  0.00     0.124 HD
ENDBRANCH  19  23
ENDBRANCH  16  18
ENDBRANCH   5  16
TORSDOF 6
ENDMDL
MODEL 8
REMARK VINA RESULT:      -6.6      2.345      4.393
REMARK  6 active torsions:
REMARK  status: ('A' for Active; 'I' for Inactive)
REMARK    1  A    between atoms: O1_2  and  C2_3 
REMARK    2  A    between atoms: C5_6  and  N1_7 
REMARK    3  A    between atoms: N1_7  and  C6_8 
REMARK    4  A    between atoms: C8_12  and  N4_13 
REMARK    5  A    between atoms: N4_13  and  C9_14 
REMARK    6  A    between atoms: C10_15  and  N5_16 
ROOT
HETATM    1  C6  UNL     1      24.339   1.587  52.120  1.00  0.00     0.150 A 
HETATM    2  N2  UNL     1      23.491   2.352  51.472  1.00  0.00    -0.225 NA
HETATM    3  C7  UNL     1      24.260   3.356  50.777  1.00  0.00     0.232 A 
HETATM    4  N3  UNL     1      25.515   3.202  50.997  1.00  0.00    -0.249 NA
HETATM    5  C8  UNL     1      25.700   2.072  51.866  1.00  0.00     0.277 A 
ENDROOT
BRANCH   1   6
HETATM    6  N1  UNL     1      23.930   0.479  52.924  1.00  0.00    -0.341 N 
HETATM    7  H6  UNL     1      24.700  -0.040  53.443  1.00  0.00     0.167 HD
BRANCH   6   8
HETATM    8  C5  UNL     1      22.569   0.104  53.014  1.00  0.00     0.033 A 
HETATM    9  C4  UNL     1      21.540   0.416  52.161  1.00  0.00     0.032 A 
HETATM   10  C3  UNL     1      20.229   0.026  52.300  1.00  0.00     0.039 A 
HETATM   11  C2  UNL     1      19.937  -0.757  53.414  1.00  0.00     0.068 A 
HETATM   12  C14 UNL     1      20.912  -1.123  54.330  1.00  0.00     0.039 A 
HETATM   13  C13 UNL     1      22.224  -0.686  54.118  1.00  0.00     0.032 A 
BRANCH  11  14
HETATM   14  O1  UNL     1      18.592  -1.148  53.541  1.00  0.00    -0.356 OA
HETATM   15  C1  UNL     1      17.654  -0.894  52.514  1.00  0.00     0.210 C 
ENDBRANCH  11  14
ENDBRANCH   6   8
ENDBRANCH   1   6
BRANCH   5  16
HETATM   16  N4  UNL     1      26.391   2.537  53.069  1.00  0.00    -0.361 N 
HETATM   17  H9  UNL     1      26.264   3.486  53.484  1.00  0.00     0.162 HD
BRANCH  16  18
HETATM   18  C9  UNL     1      27.292   1.657  53.723  1.00  0.00     0.050 C 
HETATM   19  C10 UNL     1      27.247   0.532  54.418  1.00  0.00     0.032 C 
HETATM   20  C11 UNL     1      28.636   0.150  54.820  1.00  0.00     0.220 C 
HETATM   21  O2  UNL     1      29.447   0.984  54.089  1.00  0.00    -0.380 OA
HETATM   22  C12 UNL     1      28.727   2.062  53.637  1.00  0.00     0.226 C 
BRANCH  19  23
HETATM   23  N5  UNL     1      26.213  -0.363  54.854  1.00  0.00    -0.303 NA
HETATM   24  H10 UNL     1      26.211  -0.870  55.791  1.00  0.00     0.124 HD
HETATM   25  H11 UNL     1      26.253  -0.839  55.782  1.00  0.00     0.124 HD
ENDBRANCH  19  23
ENDBRANCH  16  18
ENDBRANCH   5  16
TORSDOF 6
ENDMDL
MODEL 9
REMARK VINA RESULT:      -6.6      2.775      5.798
REMARK  6 active torsions:
REMARK  status: ('A' for Active; 'I' for Inactive)
REMARK    1  A    between atoms: O1_2  and  C2_3 
REMARK    2  A    between atoms: C5_6  and  N1_7 
REMARK    3  A    between atoms: N1_7  and  C6_8 
REMARK    4  A    between atoms: C8_12  and  N4_13 
REMARK    5  A    between atoms: N4_13  and  C9_14 
REMARK    6  A    between atoms: C10_15  and  N5_16 
ROOT
HETATM    1  C6  UNL     1      24.185   3.026  51.494  1.00  0.00     0.150 A 
HETATM    2  N2  UNL     1      24.660   3.528  50.377  1.00  0.00    -0.225 NA
HETATM    3  C7  UNL     1      23.631   3.399  49.375  1.00  0.00     0.232 A 
HETATM    4  N3  UNL     1      22.583   2.843  49.866  1.00  0.00    -0.249 NA
HETATM    5  C8  UNL     1      22.819   2.550  51.252  1.00  0.00     0.277 A 
ENDROOT
BRANCH   1   6
HETATM    6  N1  UNL     1      24.935   2.984  52.710  1.00  0.00    -0.341 N 
HETATM    7  H6  UNL     1      24.825   3.815  53.364  1.00  0.00     0.167 HD
BRANCH   6   8
HETATM    8  C5  UNL     1      25.777   1.889  53.011  1.00  0.00     0.033 A 
HETATM    9  C4  UNL     1      26.372   1.573  54.206  1.00  0.00     0.032 A 
HETATM   10  C3  UNL     1      27.189   0.492  54.442  1.00  0.00     0.039 A 
HETATM   11  C2  UNL     1      27.423  -0.348  53.357  1.00  0.00     0.068 A 
HETATM   12  C14 UNL     1      26.865  -0.110  52.110  1.00  0.00     0.039 A 
HETATM   13  C13 UNL     1      26.044   1.012  51.951  1.00  0.00     0.032 A 
BRANCH  11  14
HETATM   14  O1  UNL     1      28.259  -1.449  53.615  1.00  0.00    -0.356 OA
HETATM   15  C1  UNL     1      29.668  -1.327  53.571  1.00  0.00     0.210 C 
ENDBRANCH  11  14
ENDBRANCH   6   8
ENDBRANCH   1   6
BRANCH   5  16
HETATM   16  N4  UNL     1      22.659   1.107  51.441  1.00  0.00    -0.361 N 
HETATM   17  H9  UNL     1      22.924   0.394  50.727  1.00  0.00     0.162 HD
BRANCH  16  18
HETATM   18  C9  UNL     1      22.113   0.634  52.662  1.00  0.00     0.050 C 
HETATM   19  C10 UNL     1      22.490  -0.100  53.696  1.00  0.00     0.032 C 
HETATM   20  C11 UNL     1      21.356  -0.198  54.666  1.00  0.00     0.220 C 
HETATM   21  O2  UNL     1      20.444   0.729  54.224  1.00  0.00    -0.380 OA
HETATM   22  C12 UNL     1      20.703   1.055  52.915  1.00  0.00     0.226 C 
BRANCH  19  23
HETATM   23  N5  UNL     1      23.687  -0.794  54.079  1.00  0.00    -0.303 NA
HETATM   24  H10 UNL     1      24.629  -0.324  54.244  1.00  0.00     0.124 HD
HETATM   25  H11 UNL     1      24.589  -0.292  54.229  1.00  0.00     0.124 HD
ENDBRANCH  19  23
ENDBRANCH  16  18
ENDBRANCH   5  16
TORSDOF 6
ENDMDL
