MODEL 1
REMARK VINA RESULT:      -9.2      0.000      0.000
REMARK  4 active torsions:
REMARK  status: ('A' for Active; 'I' for Inactive)
REMARK    1  A    between atoms: N1_1  and  C1_2 
REMARK    2  A    between atoms: C3_4  and  N2_5 
REMARK    3  A    between atoms: N2_5  and  C4_6 
REMARK    4  A    between atoms: C14_21  and  N7_22 
ROOT
HETATM    1  C1  UNL     1      22.345   0.370  52.190  1.00  0.00     0.056 A 
HETATM    2  C2  UNL     1      22.589  -0.224  53.296  1.00  0.00     0.086 A 
HETATM    3  C3  UNL     1      23.907  -0.186  53.572  1.00  0.00     0.145 A 
HETATM    4  N3  UNL     1      24.405  -0.757  54.677  1.00  0.00    -0.223 NA
HETATM    5  C10 UNL     1      23.597  -1.409  55.574  1.00  0.00     0.237 A 
HETATM    6  N4  UNL     1      22.258  -1.480  55.343  1.00  0.00    -0.220 NA
HETATM    7  C11 UNL     1      21.811  -0.884  54.212  1.00  0.00     0.186 A 
HETATM    8  N5  UNL     1      20.560  -1.004  54.019  1.00  0.00    -0.153 NA
HETATM    9  N6  UNL     1      19.573  -0.691  53.132  1.00  0.00    -0.275 N 
HETATM   10  C12 UNL     1      19.844   0.070  51.932  1.00  0.00     0.065 A 
HETATM   11  C13 UNL     1      18.682   0.287  51.206  1.00  0.00     0.060 A 
HETATM   12  C14 UNL     1      18.769   0.996  50.044  1.00  0.00     0.028 A 
HETATM   13  C15 UNL     1      19.971   1.470  49.626  1.00  0.00     0.030 A 
HETATM   14  C16 UNL     1      21.150   1.287  50.300  1.00  0.00     0.018 A 
HETATM   15  C17 UNL     1      21.080   0.569  51.483  1.00  0.00     0.019 A 
HETATM   16  H9  UNL     1      18.587  -1.000  53.299  1.00  0.00     0.189 HD
ENDROOT
BRANCH   3  17
HETATM   17  N2  UNL     1      24.987   0.354  52.857  1.00  0.00    -0.340 N 
HETATM   18  H3  UNL     1      24.536   0.615  51.926  1.00  0.00     0.167 HD
BRANCH  17  19
HETATM   19  C4  UNL     1      26.402   0.566  53.116  1.00  0.00     0.035 A 
HETATM   20  C5  UNL     1      26.696   1.892  53.324  1.00  0.00     0.029 A 
HETATM   21  C6  UNL     1      27.986   2.217  53.599  1.00  0.00     0.004 A 
HETATM   22  C7  UNL     1      28.993   1.295  53.678  1.00  0.00     0.024 A 
HETATM   23  C8  UNL     1      28.562   0.017  53.452  1.00  0.00     0.036 A 
HETATM   24 CL1  UNL     1      29.794  -1.253  53.536  1.00  0.00    -0.084 Cl
HETATM   25  C9  UNL     1      27.310  -0.536  53.158  1.00  0.00     0.053 A 
ENDBRANCH  17  19
ENDBRANCH   3  17
BRANCH   1  26
HETATM   26  N1  UNL     1      23.336   0.985  51.392  1.00  0.00    -0.397 N 
HETATM   27  H1  UNL     1      24.035   1.468  50.824  1.00  0.00     0.156 HD
HETATM   28  H2  UNL     1      24.193   1.117  50.832  1.00  0.00     0.156 HD
ENDBRANCH   1  26
BRANCH  12  29
HETATM   29  N7  UNL     1      17.524   1.146  49.386  1.00  0.00    -0.399 N 
HETATM   30  H11 UNL     1      17.323   2.154  49.521  1.00  0.00     0.156 HD
HETATM   31  H12 UNL     1      16.886   0.507  48.870  1.00  0.00     0.156 HD
ENDBRANCH  12  29
TORSDOF 4
ENDMDL
MODEL 2
REMARK VINA RESULT:      -9.1      3.666      5.289
REMARK  4 active torsions:
REMARK  status: ('A' for Active; 'I' for Inactive)
REMARK    1  A    between atoms: N1_1  and  C1_2 
REMARK    2  A    between atoms: C3_4  and  N2_5 
REMARK    3  A    between atoms: N2_5  and  C4_6 
REMARK    4  A    between atoms: C14_21  and  N7_22 
ROOT
HETATM    1  C1  UNL     1      24.254   1.216  52.188  1.00  0.00     0.056 A 
HETATM    2  C2  UNL     1      25.467   1.310  52.581  1.00  0.00     0.086 A 
HETATM    3  C3  UNL     1      26.169   2.118  51.764  1.00  0.00     0.145 A 
HETATM    4  N3  UNL     1      27.471   2.359  51.970  1.00  0.00    -0.223 NA
HETATM    5  C10 UNL     1      28.149   1.791  53.018  1.00  0.00     0.237 A 
HETATM    6  N4  UNL     1      27.489   0.964  53.873  1.00  0.00    -0.220 NA
HETATM    7  C11 UNL     1      26.175   0.758  53.618  1.00  0.00     0.186 A 
HETATM    8  N5  UNL     1      25.607  -0.047  54.422  1.00  0.00    -0.153 NA
HETATM    9  N6  UNL     1      24.412  -0.652  54.674  1.00  0.00    -0.275 N 
HETATM   10  C12 UNL     1      23.243  -0.390  53.863  1.00  0.00     0.065 A 
HETATM   11  C13 UNL     1      22.144  -1.097  54.329  1.00  0.00     0.060 A 
HETATM   12  C14 UNL     1      20.958  -0.955  53.672  1.00  0.00     0.028 A 
HETATM   13  C15 UNL     1      20.875  -0.138  52.591  1.00  0.00     0.030 A 
HETATM   14  C16 UNL     1      21.924   0.583  52.084  1.00  0.00     0.018 A 
HETATM   15  C17 UNL     1      23.138   0.451  52.741  1.00  0.00     0.019 A 
HETATM   16  H9  UNL     1      24.312  -1.329  55.466  1.00  0.00     0.189 HD
ENDROOT
BRANCH   3  17
HETATM   17  N2  UNL     1      25.794   2.810  50.601  1.00  0.00    -0.340 N 
HETATM   18  H3  UNL     1      25.242   2.071  50.065  1.00  0.00     0.167 HD
BRANCH  17  19
HETATM   19  C4  UNL     1      26.011   4.146  50.072  1.00  0.00     0.035 A 
HETATM   20  C5  UNL     1      27.037   4.180  49.159  1.00  0.00     0.029 A 
HETATM   21  C6  UNL     1      27.323   5.372  48.574  1.00  0.00     0.004 A 
HETATM   22  C7  UNL     1      26.644   6.527  48.849  1.00  0.00     0.024 A 
HETATM   23  C8  UNL     1      25.649   6.351  49.771  1.00  0.00     0.036 A 
HETATM   24 CL1  UNL     1      24.706   7.790  50.193  1.00  0.00    -0.084 Cl
HETATM   25  C9  UNL     1      25.189   5.239  50.486  1.00  0.00     0.053 A 
ENDBRANCH  17  19
ENDBRANCH   3  17
BRANCH   1  26
HETATM   26  N1  UNL     1      23.741   1.889  51.055  1.00  0.00    -0.397 N 
HETATM   27  H1  UNL     1      23.338   2.345  50.235  1.00  0.00     0.156 HD
HETATM   28  H2  UNL     1      23.601   2.610  50.330  1.00  0.00     0.156 HD
ENDBRANCH   1  26
BRANCH  12  29
HETATM   29  N7  UNL     1      19.912  -1.729  54.232  1.00  0.00    -0.399 N 
HETATM   30  H11 UNL     1      20.398  -2.239  54.993  1.00  0.00     0.156 HD
HETATM   31  H12 UNL     1      18.898  -1.844  54.033  1.00  0.00     0.156 HD
ENDBRANCH  12  29
TORSDOF 4
ENDMDL
MODEL 3
REMARK VINA RESULT:      -8.9      1.772      3.541
REMARK  4 active torsions:
REMARK  status: ('A' for Active; 'I' for Inactive)
REMARK    1  A    between atoms: N1_1  and  C1_2 
REMARK    2  A    between atoms: C3_4  and  N2_5 
REMARK    3  A    between atoms: N2_5  and  C4_6 
REMARK    4  A    between atoms: C14_21  and  N7_22 
ROOT
HETATM    1  C1  UNL     1      23.304   0.668  52.841  1.00  0.00     0.056 A 
HETATM    2  C2  UNL     1      23.788   1.442  51.945  1.00  0.00     0.086 A 
HETATM    3  C3  UNL     1      25.090   1.689  52.187  1.00  0.00     0.145 A 
HETATM    4  N3  UNL     1      25.809   2.487  51.386  1.00  0.00    -0.223 NA
HETATM    5  C10 UNL     1      25.253   3.091  50.287  1.00  0.00     0.237 A 
HETATM    6  N4  UNL     1      23.941   2.878  49.998  1.00  0.00    -0.220 NA
HETATM    7  C11 UNL     1      23.264   2.062  50.839  1.00  0.00     0.186 A 
HETATM    8  N5  UNL     1      22.034   1.918  50.550  1.00  0.00    -0.153 NA
HETATM    9  N6  UNL     1      20.892   1.309  50.978  1.00  0.00    -0.275 N 
HETATM   10  C12 UNL     1      20.878   0.457  52.147  1.00  0.00     0.065 A 
HETATM   11  C13 UNL     1      19.613  -0.069  52.366  1.00  0.00     0.060 A 
HETATM   12  C14 UNL     1      19.434  -0.899  53.433  1.00  0.00     0.028 A 
HETATM   13  C15 UNL     1      20.480  -1.192  54.248  1.00  0.00     0.030 A 
HETATM   14  C16 UNL     1      21.749  -0.702  54.083  1.00  0.00     0.018 A 
HETATM   15  C17 UNL     1      21.949   0.143  53.003  1.00  0.00     0.019 A 
HETATM   16  H9  UNL     1      19.988   1.448  50.467  1.00  0.00     0.189 HD
ENDROOT
BRANCH   3  17
HETATM   17  N2  UNL     1      25.934   1.269  53.227  1.00  0.00    -0.340 N 
HETATM   18  H3  UNL     1      25.407   1.600  54.094  1.00  0.00     0.167 HD
BRANCH  17  19
HETATM   19  C4  UNL     1      27.214   0.586  53.315  1.00  0.00     0.035 A 
HETATM   20  C5  UNL     1      28.236   1.444  53.644  1.00  0.00     0.029 A 
HETATM   21  C6  UNL     1      29.482   0.919  53.779  1.00  0.00     0.004 A 
HETATM   22  C7  UNL     1      29.762  -0.408  53.605  1.00  0.00     0.024 A 
HETATM   23  C8  UNL     1      28.656  -1.146  53.283  1.00  0.00     0.036 A 
HETATM   24 CL1  UNL     1      28.914  -2.882  53.040  1.00  0.00    -0.084 Cl
HETATM   25  C9  UNL     1      27.307  -0.822  53.096  1.00  0.00     0.053 A 
ENDBRANCH  17  19
ENDBRANCH   3  17
BRANCH   1  26
HETATM   26  N1  UNL     1      24.054   0.148  53.919  1.00  0.00    -0.397 N 
HETATM   27  H1  UNL     1      24.620  -0.193  54.698  1.00  0.00     0.156 HD
HETATM   28  H2  UNL     1      24.343  -0.459  54.702  1.00  0.00     0.156 HD
ENDBRANCH   1  26
BRANCH  12  29
HETATM   29  N7  UNL     1      18.103  -1.367  53.560  1.00  0.00    -0.399 N 
HETATM   30  H11 UNL     1      18.183  -2.050  54.336  1.00  0.00     0.156 HD
HETATM   31  H12 UNL     1      17.205  -1.163  53.078  1.00  0.00     0.156 HD
ENDBRANCH  12  29
TORSDOF 4
ENDMDL
MODEL 4
REMARK VINA RESULT:      -8.9      3.125      7.172
REMARK  4 active torsions:
REMARK  status: ('A' for Active; 'I' for Inactive)
REMARK    1  A    between atoms: N1_1  and  C1_2 
REMARK    2  A    between atoms: C3_4  and  N2_5 
REMARK    3  A    between atoms: N2_5  and  C4_6 
REMARK    4  A    between atoms: C14_21  and  N7_22 
ROOT
HETATM    1  C1  UNL     1      24.157   0.513  52.994  1.00  0.00     0.056 A 
HETATM    2  C2  UNL     1      23.306  -0.218  53.608  1.00  0.00     0.086 A 
HETATM    3  C3  UNL     1      22.093  -0.117  53.032  1.00  0.00     0.145 A 
HETATM    4  N3  UNL     1      21.034  -0.785  53.511  1.00  0.00    -0.223 NA
HETATM    5  C10 UNL     1      21.137  -1.598  54.611  1.00  0.00     0.237 A 
HETATM    6  N4  UNL     1      22.339  -1.735  55.233  1.00  0.00    -0.220 NA
HETATM    7  C11 UNL     1      23.373  -1.038  54.705  1.00  0.00     0.186 A 
HETATM    8  N5  UNL     1      24.468  -1.169  55.339  1.00  0.00    -0.153 NA
HETATM    9  N6  UNL     1      25.764  -0.746  55.346  1.00  0.00    -0.275 N 
HETATM   10  C12 UNL     1      26.274   0.155  54.337  1.00  0.00     0.065 A 
HETATM   11  C13 UNL     1      27.621   0.418  54.537  1.00  0.00     0.060 A 
HETATM   12  C14 UNL     1      28.254   1.252  53.663  1.00  0.00     0.028 A 
HETATM   13  C15 UNL     1      27.566   1.801  52.630  1.00  0.00     0.030 A 
HETATM   14  C16 UNL     1      26.237   1.581  52.382  1.00  0.00     0.018 A 
HETATM   15  C17 UNL     1      25.578   0.734  53.260  1.00  0.00     0.019 A 
HETATM   16  H9  UNL     1      26.426  -1.066  56.092  1.00  0.00     0.189 HD
ENDROOT
BRANCH   3  17
HETATM   17  N2  UNL     1      21.647   0.645  51.940  1.00  0.00    -0.340 N 
HETATM   18  H3  UNL     1      22.517   0.688  51.323  1.00  0.00     0.167 HD
BRANCH  17  19
HETATM   19  C4  UNL     1      20.405   1.303  51.571  1.00  0.00     0.035 A 
HETATM   20  C5  UNL     1      20.344   2.593  52.041  1.00  0.00     0.029 A 
HETATM   21  C6  UNL     1      19.238   3.323  51.741  1.00  0.00     0.004 A 
HETATM   22  C7  UNL     1      18.196   2.838  51.000  1.00  0.00     0.024 A 
HETATM   23  C8  UNL     1      18.388   1.546  50.594  1.00  0.00     0.036 A 
HETATM   24 CL1  UNL     1      17.093   0.827  49.623  1.00  0.00    -0.084 Cl
HETATM   25  C9  UNL     1      19.425   0.625  50.784  1.00  0.00     0.053 A 
ENDBRANCH  17  19
ENDBRANCH   3  17
BRANCH   1  26
HETATM   26  N1  UNL     1      23.846   1.299  51.862  1.00  0.00    -0.397 N 
HETATM   27  H1  UNL     1      23.599   1.894  51.069  1.00  0.00     0.156 HD
HETATM   28  H2  UNL     1      23.863   1.671  50.899  1.00  0.00     0.156 HD
ENDBRANCH   1  26
BRANCH  12  29
HETATM   29  N7  UNL     1      29.622   1.451  53.972  1.00  0.00    -0.399 N 
HETATM   30  H11 UNL     1      29.785   2.420  53.639  1.00  0.00     0.156 HD
HETATM   31  H12 UNL     1      30.366   0.873  54.412  1.00  0.00     0.156 HD
ENDBRANCH  12  29
TORSDOF 4
ENDMDL
MODEL 5
REMARK VINA RESULT:      -8.4      2.939      3.781
REMARK  4 active torsions:
REMARK  status: ('A' for Active; 'I' for Inactive)
REMARK    1  A    between atoms: N1_1  and  C1_2 
REMARK    2  A    between atoms: C3_4  and  N2_5 
REMARK    3  A    between atoms: N2_5  and  C4_6 
REMARK    4  A    between atoms: C14_21  and  N7_22 
ROOT
HETATM    1  C1  UNL     1      21.120   0.531  52.094  1.00  0.00     0.056 A 
HETATM    2  C2  UNL     1      22.216   0.278  52.702  1.00  0.00     0.086 A 
HETATM    3  C3  UNL     1      23.235   0.960  52.145  1.00  0.00     0.145 A 
HETATM    4  N3  UNL     1      24.488   0.845  52.608  1.00  0.00    -0.223 NA
HETATM    5  C10 UNL     1      24.789   0.025  53.665  1.00  0.00     0.237 A 
HETATM    6  N4  UNL     1      23.798  -0.689  54.264  1.00  0.00    -0.220 NA
HETATM    7  C11 UNL     1      22.553  -0.532  53.756  1.00  0.00     0.186 A 
HETATM    8  N5  UNL     1      21.665  -1.244  54.324  1.00  0.00    -0.153 NA
HETATM    9  N6  UNL     1      20.337  -1.550  54.273  1.00  0.00    -0.275 N 
HETATM   10  C12 UNL     1      19.450  -0.925  53.317  1.00  0.00     0.065 A 
HETATM   11  C13 UNL     1      18.147  -1.375  53.478  1.00  0.00     0.060 A 
HETATM   12  C14 UNL     1      17.184  -0.876  52.651  1.00  0.00     0.028 A 
HETATM   13  C15 UNL     1      17.512   0.037  51.701  1.00  0.00     0.030 A 
HETATM   14  C16 UNL     1      18.779   0.518  51.495  1.00  0.00     0.018 A 
HETATM   15  C17 UNL     1      19.770   0.021  52.328  1.00  0.00     0.019 A 
HETATM   16  H9  UNL     1      19.926  -2.255  54.930  1.00  0.00     0.189 HD
ENDROOT
BRANCH   3  17
HETATM   17  N2  UNL     1      23.273   1.834  51.047  1.00  0.00    -0.340 N 
HETATM   18  H3  UNL     1      22.602   1.367  50.362  1.00  0.00     0.167 HD
BRANCH  17  19
HETATM   19  C4  UNL     1      23.976   3.065  50.723  1.00  0.00     0.035 A 
HETATM   20  C5  UNL     1      23.362   4.169  51.263  1.00  0.00     0.029 A 
HETATM   21  C6  UNL     1      23.938   5.380  51.049  1.00  0.00     0.004 A 
HETATM   22  C7  UNL     1      25.089   5.548  50.329  1.00  0.00     0.024 A 
HETATM   23  C8  UNL     1      25.594   4.370  49.852  1.00  0.00     0.036 A 
HETATM   24 CL1  UNL     1      27.089   4.482  48.908  1.00  0.00    -0.084 Cl
HETATM   25  C9  UNL     1      25.176   3.038  49.949  1.00  0.00     0.053 A 
ENDBRANCH  17  19
ENDBRANCH   3  17
BRANCH   1  26
HETATM   26  N1  UNL     1      21.016   1.418  50.998  1.00  0.00    -0.397 N 
HETATM   27  H1  UNL     1      20.963   2.088  50.229  1.00  0.00     0.156 HD
HETATM   28  H2  UNL     1      20.826   1.777  50.049  1.00  0.00     0.156 HD
ENDBRANCH   1  26
BRANCH  12  29
HETATM   29  N7  UNL     1      15.898  -1.413  52.902  1.00  0.00    -0.399 N 
HETATM   30  H11 UNL     1      15.515  -0.751  53.602  1.00  0.00     0.156 HD
HETATM   31  H12 UNL     1      15.364  -2.233  52.548  1.00  0.00     0.156 HD
ENDBRANCH  12  29
TORSDOF 4
ENDMDL
MODEL 6
REMARK VINA RESULT:      -8.3      4.626      6.909
REMARK  4 active torsions:
REMARK  status: ('A' for Active; 'I' for Inactive)
REMARK    1  A    between atoms: N1_1  and  C1_2 
REMARK    2  A    between atoms: C3_4  and  N2_5 
REMARK    3  A    between atoms: N2_5  and  C4_6 
REMARK    4  A    between atoms: C14_21  and  N7_22 
ROOT
HETATM    1  C1  UNL     1      25.394   2.348  51.591  1.00  0.00     0.056 A 
HETATM    2  C2  UNL     1      24.526   2.701  50.721  1.00  0.00     0.086 A 
HETATM    3  C3  UNL     1      25.023   3.661  49.918  1.00  0.00     0.145 A 
HETATM    4  N3  UNL     1      24.288   4.199  48.935  1.00  0.00    -0.223 NA
HETATM    5  C10 UNL     1      22.996   3.800  48.705  1.00  0.00     0.237 A 
HETATM    6  N4  UNL     1      22.443   2.835  49.488  1.00  0.00    -0.220 NA
HETATM    7  C11 UNL     1      23.232   2.326  50.464  1.00  0.00     0.186 A 
HETATM    8  N5  UNL     1      22.663   1.452  51.193  1.00  0.00    -0.153 NA
HETATM    9  N6  UNL     1      22.876   0.648  52.273  1.00  0.00    -0.275 N 
HETATM   10  C12 UNL     1      24.151   0.615  52.955  1.00  0.00     0.065 A 
HETATM   11  C13 UNL     1      24.134  -0.296  54.001  1.00  0.00     0.060 A 
HETATM   12  C14 UNL     1      25.267  -0.449  54.744  1.00  0.00     0.028 A 
HETATM   13  C15 UNL     1      26.373   0.282  54.452  1.00  0.00     0.030 A 
HETATM   14  C16 UNL     1      26.450   1.196  53.434  1.00  0.00     0.018 A 
HETATM   15  C17 UNL     1      25.307   1.363  52.668  1.00  0.00     0.019 A 
HETATM   16  H9  UNL     1      22.113   0.032  52.638  1.00  0.00     0.189 HD
ENDROOT
BRANCH   3  17
HETATM   17  N2  UNL     1      26.268   4.309  49.912  1.00  0.00    -0.340 N 
HETATM   18  H3  UNL     1      26.859   3.673  50.532  1.00  0.00     0.167 HD
BRANCH  17  19
HETATM   19  C4  UNL     1      26.805   5.523  49.317  1.00  0.00     0.035 A 
HETATM   20  C5  UNL     1      27.902   5.270  48.529  1.00  0.00     0.029 A 
HETATM   21  C6  UNL     1      28.482   6.324  47.898  1.00  0.00     0.004 A 
HETATM   22  C7  UNL     1      28.028   7.609  48.009  1.00  0.00     0.024 A 
HETATM   23  C8  UNL     1      26.931   7.717  48.820  1.00  0.00     0.036 A 
HETATM   24 CL1  UNL     1      26.265   9.345  49.025  1.00  0.00    -0.084 Cl
HETATM   25  C9  UNL     1      26.186   6.788  49.554  1.00  0.00     0.053 A 
ENDBRANCH  17  19
ENDBRANCH   3  17
BRANCH   1  26
HETATM   26  N1  UNL     1      26.695   2.896  51.670  1.00  0.00    -0.397 N 
HETATM   27  H1  UNL     1      27.619   3.323  51.752  1.00  0.00     0.156 HD
HETATM   28  H2  UNL     1      27.718   2.994  51.579  1.00  0.00     0.156 HD
ENDBRANCH   1  26
BRANCH  12  29
HETATM   29  N7  UNL     1      25.128  -1.398  55.786  1.00  0.00    -0.399 N 
HETATM   30  H11 UNL     1      25.048  -0.794  56.626  1.00  0.00     0.156 HD
HETATM   31  H12 UNL     1      25.097  -2.436  55.832  1.00  0.00     0.156 HD
ENDBRANCH  12  29
TORSDOF 4
ENDMDL
MODEL 7
REMARK VINA RESULT:      -8.3      1.888      3.722
REMARK  4 active torsions:
REMARK  status: ('A' for Active; 'I' for Inactive)
REMARK    1  A    between atoms: N1_1  and  C1_2 
REMARK    2  A    between atoms: C3_4  and  N2_5 
REMARK    3  A    between atoms: N2_5  and  C4_6 
REMARK    4  A    between atoms: C14_21  and  N7_22 
ROOT
HETATM    1  C1  UNL     1      21.279   0.429  52.208  1.00  0.00     0.056 A 
HETATM    2  C2  UNL     1      21.789   1.154  51.285  1.00  0.00     0.086 A 
HETATM    3  C3  UNL     1      23.066   1.465  51.580  1.00  0.00     0.145 A 
HETATM    4  N3  UNL     1      23.804   2.230  50.764  1.00  0.00    -0.223 NA
HETATM    5  C10 UNL     1      23.292   2.733  49.595  1.00  0.00     0.237 A 
HETATM    6  N4  UNL     1      22.007   2.451  49.249  1.00  0.00    -0.220 NA
HETATM    7  C11 UNL     1      21.309   1.673  50.110  1.00  0.00     0.186 A 
HETATM    8  N5  UNL     1      20.103   1.464  49.765  1.00  0.00    -0.153 NA
HETATM    9  N6  UNL     1      18.959   0.845  50.173  1.00  0.00    -0.275 N 
HETATM   10  C12 UNL     1      18.906   0.079  51.399  1.00  0.00     0.065 A 
HETATM   11  C13 UNL     1      17.648  -0.476  51.586  1.00  0.00     0.060 A 
HETATM   12  C14 UNL     1      17.435  -1.234  52.699  1.00  0.00     0.028 A 
HETATM   13  C15 UNL     1      18.441  -1.428  53.590  1.00  0.00     0.030 A 
HETATM   14  C16 UNL     1      19.701  -0.905  53.460  1.00  0.00     0.018 A 
HETATM   15  C17 UNL     1      19.935  -0.133  52.333  1.00  0.00     0.019 A 
HETATM   16  H9  UNL     1      18.083   0.914  49.604  1.00  0.00     0.189 HD
ENDROOT
BRANCH   3  17
HETATM   17  N2  UNL     1      23.862   1.153  52.694  1.00  0.00    -0.340 N 
HETATM   18  H3  UNL     1      23.155   1.178  53.492  1.00  0.00     0.167 HD
BRANCH  17  19
HETATM   19  C4  UNL     1      25.269   0.866  52.917  1.00  0.00     0.035 A 
HETATM   20  C5  UNL     1      25.565  -0.461  52.711  1.00  0.00     0.029 A 
HETATM   21  C6  UNL     1      26.857  -0.851  52.867  1.00  0.00     0.004 A 
HETATM   22  C7  UNL     1      27.864   0.006  53.214  1.00  0.00     0.024 A 
HETATM   23  C8  UNL     1      27.432   1.293  53.385  1.00  0.00     0.036 A 
HETATM   24 CL1  UNL     1      28.666   2.482  53.833  1.00  0.00    -0.084 Cl
HETATM   25  C9  UNL     1      26.178   1.906  53.279  1.00  0.00     0.053 A 
ENDBRANCH  17  19
ENDBRANCH   3  17
BRANCH   1  26
HETATM   26  N1  UNL     1      21.983   0.015  53.362  1.00  0.00    -0.397 N 
HETATM   27  H1  UNL     1      22.520  -0.253  54.188  1.00  0.00     0.156 HD
HETATM   28  H2  UNL     1      22.207  -0.468  54.246  1.00  0.00     0.156 HD
ENDBRANCH   1  26
BRANCH  12  29
HETATM   29  N7  UNL     1      16.116  -1.740  52.787  1.00  0.00    -0.399 N 
HETATM   30  H11 UNL     1      16.079  -2.093  53.762  1.00  0.00     0.156 HD
HETATM   31  H12 UNL     1      15.308  -1.800  52.134  1.00  0.00     0.156 HD
ENDBRANCH  12  29
TORSDOF 4
ENDMDL
MODEL 8
REMARK VINA RESULT:      -8.2      2.052      2.257
REMARK  4 active torsions:
REMARK  status: ('A' for Active; 'I' for Inactive)
REMARK    1  A    between atoms: N1_1  and  C1_2 
REMARK    2  A    between atoms: C3_4  and  N2_5 
REMARK    3  A    between atoms: N2_5  and  C4_6 
REMARK    4  A    between atoms: C14_21  and  N7_22 
ROOT
HETATM    1  C1  UNL     1      23.103   2.070  51.928  1.00  0.00     0.056 A 
HETATM    2  C2  UNL     1      22.965   1.137  52.792  1.00  0.00     0.086 A 
HETATM    3  C3  UNL     1      24.137   0.509  53.001  1.00  0.00     0.145 A 
HETATM    4  N3  UNL     1      24.237  -0.516  53.859  1.00  0.00    -0.223 NA
HETATM    5  C10 UNL     1      23.149  -0.975  54.557  1.00  0.00     0.237 A 
HETATM    6  N4  UNL     1      21.939  -0.379  54.381  1.00  0.00    -0.220 NA
HETATM    7  C11 UNL     1      21.898   0.653  53.505  1.00  0.00     0.186 A 
HETATM    8  N5  UNL     1      20.741   1.157  53.347  1.00  0.00    -0.153 NA
HETATM    9  N6  UNL     1      20.072   2.115  52.644  1.00  0.00    -0.275 N 
HETATM   10  C12 UNL     1      20.753   2.991  51.716  1.00  0.00     0.065 A 
HETATM   11  C13 UNL     1      19.871   3.897  51.146  1.00  0.00     0.060 A 
HETATM   12  C14 UNL     1      20.361   4.798  50.248  1.00  0.00     0.028 A 
HETATM   13  C15 UNL     1      21.682   4.793  49.933  1.00  0.00     0.030 A 
HETATM   14  C16 UNL     1      22.599   3.924  50.462  1.00  0.00     0.018 A 
HETATM   15  C17 UNL     1      22.119   3.001  51.377  1.00  0.00     0.019 A 
HETATM   16  H9  UNL     1      19.039   2.237  52.759  1.00  0.00     0.189 HD
ENDROOT
BRANCH   3  17
HETATM   17  N2  UNL     1      25.405   0.700  52.429  1.00  0.00    -0.340 N 
HETATM   18  H3  UNL     1      25.166   0.894  51.407  1.00  0.00     0.167 HD
BRANCH  17  19
HETATM   19  C4  UNL     1      26.777   0.664  52.908  1.00  0.00     0.035 A 
HETATM   20  C5  UNL     1      27.206   1.896  53.340  1.00  0.00     0.029 A 
HETATM   21  C6  UNL     1      28.468   1.987  53.834  1.00  0.00     0.004 A 
HETATM   22  C7  UNL     1      29.321   0.922  53.920  1.00  0.00     0.024 A 
HETATM   23  C8  UNL     1      28.766  -0.241  53.458  1.00  0.00     0.036 A 
HETATM   24 CL1  UNL     1      29.793  -1.683  53.530  1.00  0.00    -0.084 Cl
HETATM   25  C9  UNL     1      27.515  -0.559  52.918  1.00  0.00     0.053 A 
ENDBRANCH  17  19
ENDBRANCH   3  17
BRANCH   1  26
HETATM   26  N1  UNL     1      24.330   2.388  51.304  1.00  0.00    -0.397 N 
HETATM   27  H1  UNL     1      25.217   2.580  50.834  1.00  0.00     0.156 HD
HETATM   28  H2  UNL     1      25.143   2.931  50.973  1.00  0.00     0.156 HD
ENDBRANCH   1  26
BRANCH  12  29
HETATM   29  N7  UNL     1      19.369   5.665  49.727  1.00  0.00    -0.399 N 
HETATM   30  H11 UNL     1      18.712   5.002  49.274  1.00  0.00     0.156 HD
HETATM   31  H12 UNL     1      19.219   6.694  49.731  1.00  0.00     0.156 HD
ENDBRANCH  12  29
TORSDOF 4
ENDMDL
MODEL 9
REMARK VINA RESULT:      -8.1      3.211      4.218
REMARK  4 active torsions:
REMARK  status: ('A' for Active; 'I' for Inactive)
REMARK    1  A    between atoms: N1_1  and  C1_2 
REMARK    2  A    between atoms: C3_4  and  N2_5 
REMARK    3  A    between atoms: N2_5  and  C4_6 
REMARK    4  A    between atoms: C14_21  and  N7_22 
ROOT
HETATM    1  C1  UNL     1      24.660   3.065  50.932  1.00  0.00     0.056 A 
HETATM    2  C2  UNL     1      24.048   2.114  51.528  1.00  0.00     0.086 A 
HETATM    3  C3  UNL     1      24.877   1.476  52.377  1.00  0.00     0.145 A 
HETATM    4  N3  UNL     1      24.461   0.432  53.107  1.00  0.00    -0.223 NA
HETATM    5  C10 UNL     1      23.175  -0.037  53.020  1.00  0.00     0.237 A 
HETATM    6  N4  UNL     1      22.296   0.569  52.176  1.00  0.00    -0.220 NA
HETATM    7  C11 UNL     1      22.770   1.619  51.466  1.00  0.00     0.186 A 
HETATM    8  N5  UNL     1      21.925   2.132  50.666  1.00  0.00    -0.153 NA
HETATM    9  N6  UNL     1      21.790   3.109  49.724  1.00  0.00    -0.275 N 
HETATM   10  C12 UNL     1      22.879   4.001  49.394  1.00  0.00     0.065 A 
HETATM   11  C13 UNL     1      22.495   4.923  48.432  1.00  0.00     0.060 A 
HETATM   12  C14 UNL     1      23.412   5.842  48.013  1.00  0.00     0.028 A 
HETATM   13  C15 UNL     1      24.664   5.837  48.538  1.00  0.00     0.030 A 
HETATM   14  C16 UNL     1      25.102   4.952  49.488  1.00  0.00     0.018 A 
HETATM   15  C17 UNL     1      24.182   4.012  49.925  1.00  0.00     0.019 A 
HETATM   16  H9  UNL     1      20.886   3.233  49.210  1.00  0.00     0.189 HD
ENDROOT
BRANCH   3  17
HETATM   17  N2  UNL     1      26.236   1.674  52.666  1.00  0.00    -0.340 N 
HETATM   18  H3  UNL     1      26.347   2.726  52.528  1.00  0.00     0.167 HD
BRANCH  17  19
HETATM   19  C4  UNL     1      27.353   0.822  53.041  1.00  0.00     0.035 A 
HETATM   20  C5  UNL     1      28.335   1.519  53.702  1.00  0.00     0.029 A 
HETATM   21  C6  UNL     1      29.425   0.827  54.126  1.00  0.00     0.004 A 
HETATM   22  C7  UNL     1      29.586  -0.516  53.928  1.00  0.00     0.024 A 
HETATM   23  C8  UNL     1      28.535  -1.084  53.260  1.00  0.00     0.036 A 
HETATM   24 CL1  UNL     1      28.647  -2.826  52.957  1.00  0.00    -0.084 Cl
HETATM   25  C9  UNL     1      27.339  -0.575  52.742  1.00  0.00     0.053 A 
ENDBRANCH  17  19
ENDBRANCH   3  17
BRANCH   1  26
HETATM   26  N1  UNL     1      26.017   3.391  51.158  1.00  0.00    -0.397 N 
HETATM   27  H1  UNL     1      26.984   3.653  51.353  1.00  0.00     0.156 HD
HETATM   28  H2  UNL     1      27.047   3.363  51.108  1.00  0.00     0.156 HD
ENDBRANCH   1  26
BRANCH  12  29
HETATM   29  N7  UNL     1      22.910   6.724  47.026  1.00  0.00    -0.399 N 
HETATM   30  H11 UNL     1      21.931   6.398  46.916  1.00  0.00     0.156 HD
HETATM   31  H12 UNL     1      23.304   7.519  46.485  1.00  0.00     0.156 HD
ENDBRANCH  12  29
TORSDOF 4
ENDMDL
