MODEL 1
REMARK VINA RESULT:      -8.2      0.000      0.000
REMARK  5 active torsions:
REMARK  status: ('A' for Active; 'I' for Inactive)
REMARK       I    between atoms: C2_2  and  N1_4 
REMARK    1  A    between atoms: C9_14  and  N4_15 
REMARK    2  A    between atoms: N4_15  and  C10_16 
REMARK    3  A    between atoms: C10_16  and  C11_17 
REMARK    4  A    between atoms: C10_16  and  C12_19 
REMARK    5  A    between atoms: C11_17  and  O2_18 
ROOT
HETATM    1  C1  UNL     1      19.886  -0.092  53.355  1.00  0.00     0.117 C 
HETATM    2  C2  UNL     1      21.060  -0.809  53.952  1.00  0.00     0.216 C 
HETATM    3  O1  UNL     1      20.842  -1.828  54.662  1.00  0.00    -0.274 OA
HETATM    4  N1  UNL     1      22.309  -0.213  53.621  1.00  0.00    -0.347 N 
HETATM    5  C3  UNL     1      22.695   0.936  52.830  1.00  0.00     0.131 C 
HETATM    6  C4  UNL     1      23.940   0.502  52.021  1.00  0.00     0.060 C 
HETATM    7  C5  UNL     1      25.078   0.623  52.948  1.00  0.00    -0.025 A 
HETATM    8  C6  UNL     1      24.696  -0.164  54.055  1.00  0.00     0.010 A 
HETATM    9  S1  UNL     1      26.088  -0.012  55.191  1.00  0.00    -0.072 SA
HETATM   10  C7  UNL     1      27.061   1.054  54.157  1.00  0.00     0.114 A 
HETATM   11  N2  UNL     1      28.255   1.554  54.428  1.00  0.00    -0.234 NA
HETATM   12  C8  UNL     1      28.853   2.346  53.528  1.00  0.00     0.236 A 
HETATM   13  N3  UNL     1      28.135   2.540  52.425  1.00  0.00    -0.224 NA
HETATM   14  C9  UNL     1      26.937   2.048  52.137  1.00  0.00     0.139 A 
HETATM   15  C18 UNL     1      26.289   1.232  53.029  1.00  0.00     0.053 A 
HETATM   16  C19 UNL     1      23.435  -0.922  54.209  1.00  0.00     0.172 C 
ENDROOT
BRANCH  14  17
HETATM   17  N4  UNL     1      26.398   2.427  50.852  1.00  0.00    -0.363 N 
HETATM   18  H9  UNL     1      26.232   1.998  49.958  1.00  0.00     0.162 HD
BRANCH  17  19
HETATM   19  C10 UNL     1      25.930   3.779  50.659  1.00  0.00     0.140 C 
BRANCH  19  20
HETATM   20  C11 UNL     1      26.381   4.395  49.362  1.00  0.00     0.194 C 
BRANCH  20  21
HETATM   21  O2  UNL     1      27.787   4.457  49.335  1.00  0.00    -0.399 OA
HETATM   22  H13 UNL     1      28.028   5.322  49.758  1.00  0.00     0.209 HD
ENDBRANCH  20  21
ENDBRANCH  19  20
BRANCH  19  23
HETATM   23  C12 UNL     1      24.441   3.788  50.641  1.00  0.00    -0.034 A 
HETATM   24  C13 UNL     1      23.683   4.361  51.637  1.00  0.00     0.009 A 
HETATM   25  C14 UNL     1      22.308   4.310  51.516  1.00  0.00     0.001 A 
HETATM   26  C15 UNL     1      21.724   3.699  50.420  1.00  0.00     0.000 A 
HETATM   27  C16 UNL     1      22.506   3.131  49.433  1.00  0.00     0.001 A 
HETATM   28  C17 UNL     1      23.890   3.166  49.525  1.00  0.00     0.009 A 
ENDBRANCH  19  23
ENDBRANCH  17  19
ENDBRANCH  14  17
TORSDOF 5
ENDMDL
MODEL 2
REMARK VINA RESULT:      -7.9      2.697      5.155
REMARK  5 active torsions:
REMARK  status: ('A' for Active; 'I' for Inactive)
REMARK       I    between atoms: C2_2  and  N1_4 
REMARK    1  A    between atoms: C9_14  and  N4_15 
REMARK    2  A    between atoms: N4_15  and  C10_16 
REMARK    3  A    between atoms: C10_16  and  C11_17 
REMARK    4  A    between atoms: C10_16  and  C12_19 
REMARK    5  A    between atoms: C11_17  and  O2_18 
ROOT
HETATM    1  C1  UNL     1      29.351   1.079  53.803  1.00  0.00     0.117 C 
HETATM    2  C2  UNL     1      28.152   0.372  54.362  1.00  0.00     0.216 C 
HETATM    3  O1  UNL     1      28.334  -0.507  55.247  1.00  0.00    -0.274 OA
HETATM    4  N1  UNL     1      26.925   0.811  53.790  1.00  0.00    -0.347 N 
HETATM    5  C3  UNL     1      26.580   1.793  52.785  1.00  0.00     0.131 C 
HETATM    6  C4  UNL     1      25.320   2.521  53.311  1.00  0.00     0.060 C 
HETATM    7  C5  UNL     1      24.187   1.636  52.989  1.00  0.00    -0.025 A 
HETATM    8  C6  UNL     1      24.542   0.405  53.581  1.00  0.00     0.010 A 
HETATM    9  S1  UNL     1      23.157  -0.678  53.183  1.00  0.00    -0.072 SA
HETATM   10  C7  UNL     1      22.222   0.534  52.282  1.00  0.00     0.114 A 
HETATM   11  N2  UNL     1      21.046   0.362  51.700  1.00  0.00    -0.234 NA
HETATM   12  C8  UNL     1      20.477   1.391  51.058  1.00  0.00     0.236 A 
HETATM   13  N3  UNL     1      21.201   2.506  51.088  1.00  0.00    -0.224 NA
HETATM   14  C9  UNL     1      22.381   2.697  51.665  1.00  0.00     0.139 A 
HETATM   15  C18 UNL     1      22.999   1.670  52.333  1.00  0.00     0.053 A 
HETATM   16  C19 UNL     1      25.775   0.113  54.345  1.00  0.00     0.172 C 
ENDROOT
BRANCH  14  17
HETATM   17  N4  UNL     1      22.932   4.024  51.537  1.00  0.00    -0.363 N 
HETATM   18  H9  UNL     1      23.291   4.743  52.142  1.00  0.00     0.162 HD
BRANCH  17  19
HETATM   19  C10 UNL     1      23.057   4.609  50.223  1.00  0.00     0.140 C 
BRANCH  19  20
HETATM   20  C11 UNL     1      22.650   6.056  50.164  1.00  0.00     0.194 C 
BRANCH  20  21
HETATM   21  O2  UNL     1      22.189   6.467  51.429  1.00  0.00    -0.399 OA
HETATM   22  H13 UNL     1      22.928   6.270  52.062  1.00  0.00     0.209 HD
ENDBRANCH  20  21
ENDBRANCH  19  20
BRANCH  19  23
HETATM   23  C12 UNL     1      24.481   4.548  49.789  1.00  0.00    -0.034 A 
HETATM   24  C13 UNL     1      25.223   3.389  49.810  1.00  0.00     0.009 A 
HETATM   25  C14 UNL     1      26.535   3.450  49.384  1.00  0.00     0.001 A 
HETATM   26  C15 UNL     1      27.075   4.649  48.952  1.00  0.00     0.000 A 
HETATM   27  C16 UNL     1      26.311   5.800  48.940  1.00  0.00     0.001 A 
HETATM   28  C17 UNL     1      24.990   5.771  49.361  1.00  0.00     0.009 A 
ENDBRANCH  19  23
ENDBRANCH  17  19
ENDBRANCH  14  17
TORSDOF 5
ENDMDL
MODEL 3
REMARK VINA RESULT:      -7.7      1.761      2.261
REMARK  5 active torsions:
REMARK  status: ('A' for Active; 'I' for Inactive)
REMARK       I    between atoms: C2_2  and  N1_4 
REMARK    1  A    between atoms: C9_14  and  N4_15 
REMARK    2  A    between atoms: N4_15  and  C10_16 
REMARK    3  A    between atoms: C10_16  and  C11_17 
REMARK    4  A    between atoms: C10_16  and  C12_19 
REMARK    5  A    between atoms: C11_17  and  O2_18 
ROOT
HETATM    1  C1  UNL     1      17.840  -0.164  52.703  1.00  0.00     0.117 C 
HETATM    2  C2  UNL     1      18.713  -1.171  53.392  1.00  0.00     0.216 C 
HETATM    3  O1  UNL     1      18.167  -2.186  53.902  1.00  0.00    -0.274 OA
HETATM    4  N1  UNL     1      20.092  -0.824  53.373  1.00  0.00    -0.347 N 
HETATM    5  C3  UNL     1      20.840   0.291  52.833  1.00  0.00     0.131 C 
HETATM    6  C4  UNL     1      22.118  -0.314  52.204  1.00  0.00     0.060 C 
HETATM    7  C5  UNL     1      23.047  -0.532  53.325  1.00  0.00    -0.025 A 
HETATM    8  C6  UNL     1      22.307  -1.328  54.226  1.00  0.00     0.010 A 
HETATM    9  S1  UNL     1      23.444  -1.592  55.600  1.00  0.00    -0.072 SA
HETATM   10  C7  UNL     1      24.790  -0.658  54.914  1.00  0.00     0.114 A 
HETATM   11  N2  UNL     1      25.978  -0.453  55.460  1.00  0.00    -0.234 NA
HETATM   12  C8  UNL     1      26.884   0.281  54.800  1.00  0.00     0.236 A 
HETATM   13  N3  UNL     1      26.452   0.733  53.626  1.00  0.00    -0.224 NA
HETATM   14  C9  UNL     1      25.267   0.539  53.063  1.00  0.00     0.139 A 
HETATM   15  C18 UNL     1      24.310  -0.207  53.704  1.00  0.00     0.053 A 
HETATM   16  C19 UNL     1      20.921  -1.812  54.046  1.00  0.00     0.172 C 
ENDROOT
BRANCH  14  17
HETATM   17  N4  UNL     1      25.080   1.152  51.770  1.00  0.00    -0.363 N 
HETATM   18  H9  UNL     1      25.001   0.859  50.811  1.00  0.00     0.162 HD
BRANCH  17  19
HETATM   19  C10 UNL     1      24.959   2.588  51.685  1.00  0.00     0.140 C 
BRANCH  19  20
HETATM   20  C11 UNL     1      25.810   3.203  50.606  1.00  0.00     0.194 C 
BRANCH  20  21
HETATM   21  O2  UNL     1      27.138   3.310  51.060  1.00  0.00    -0.399 OA
HETATM   22  H13 UNL     1      27.189   2.756  51.881  1.00  0.00     0.209 HD
ENDBRANCH  20  21
ENDBRANCH  19  20
BRANCH  19  23
HETATM   23  C12 UNL     1      23.548   2.947  51.374  1.00  0.00    -0.034 A 
HETATM   24  C13 UNL     1      22.755   3.682  52.225  1.00  0.00     0.009 A 
HETATM   25  C14 UNL     1      21.460   3.956  51.832  1.00  0.00     0.001 A 
HETATM   26  C15 UNL     1      20.986   3.500  50.614  1.00  0.00     0.000 A 
HETATM   27  C16 UNL     1      21.802   2.763  49.776  1.00  0.00     0.001 A 
HETATM   28  C17 UNL     1      23.107   2.471  50.142  1.00  0.00     0.009 A 
ENDBRANCH  19  23
ENDBRANCH  17  19
ENDBRANCH  14  17
TORSDOF 5
ENDMDL
MODEL 4
REMARK VINA RESULT:      -7.7      2.640      5.052
REMARK  5 active torsions:
REMARK  status: ('A' for Active; 'I' for Inactive)
REMARK       I    between atoms: C2_2  and  N1_4 
REMARK    1  A    between atoms: C9_14  and  N4_15 
REMARK    2  A    between atoms: N4_15  and  C10_16 
REMARK    3  A    between atoms: C10_16  and  C11_17 
REMARK    4  A    between atoms: C10_16  and  C12_19 
REMARK    5  A    between atoms: C11_17  and  O2_18 
ROOT
HETATM    1  C1  UNL     1      19.720  -1.776  53.677  1.00  0.00     0.117 C 
HETATM    2  C2  UNL     1      19.591  -0.434  53.019  1.00  0.00     0.216 C 
HETATM    3  O1  UNL     1      18.436   0.042  52.852  1.00  0.00    -0.274 OA
HETATM    4  N1  UNL     1      20.844   0.136  52.658  1.00  0.00    -0.347 N 
HETATM    5  C3  UNL     1      22.219  -0.296  52.790  1.00  0.00     0.131 C 
HETATM    6  C4  UNL     1      23.023   0.954  53.220  1.00  0.00     0.060 C 
HETATM    7  C5  UNL     1      23.267   1.714  51.983  1.00  0.00    -0.025 A 
HETATM    8  C6  UNL     1      21.977   1.905  51.444  1.00  0.00     0.010 A 
HETATM    9  S1  UNL     1      22.278   2.832  49.927  1.00  0.00    -0.072 SA
HETATM   10  C7  UNL     1      24.044   2.907  50.098  1.00  0.00     0.114 A 
HETATM   11  N2  UNL     1      24.900   3.482  49.269  1.00  0.00    -0.234 NA
HETATM   12  C8  UNL     1      26.209   3.446  49.553  1.00  0.00     0.236 A 
HETATM   13  N3  UNL     1      26.494   2.805  50.684  1.00  0.00    -0.224 NA
HETATM   14  C9  UNL     1      25.649   2.223  51.525  1.00  0.00     0.139 A 
HETATM   15  C18 UNL     1      24.301   2.237  51.273  1.00  0.00     0.053 A 
HETATM   16  C19 UNL     1      20.698   1.436  52.021  1.00  0.00     0.172 C 
ENDROOT
BRANCH  14  17
HETATM   17  N4  UNL     1      26.248   1.603  52.683  1.00  0.00    -0.363 N 
HETATM   18  H9  UNL     1      25.947   1.226  53.565  1.00  0.00     0.162 HD
BRANCH  17  19
HETATM   19  C10 UNL     1      27.678   1.409  52.714  1.00  0.00     0.140 C 
BRANCH  19  20
HETATM   20  C11 UNL     1      28.356   2.101  53.867  1.00  0.00     0.194 C 
BRANCH  20  21
HETATM   21  O2  UNL     1      29.415   2.892  53.383  1.00  0.00    -0.399 OA
HETATM   22  H13 UNL     1      29.137   3.191  52.478  1.00  0.00     0.209 HD
ENDBRANCH  20  21
ENDBRANCH  19  20
BRANCH  19  23
HETATM   23  C12 UNL     1      27.978  -0.043  52.852  1.00  0.00    -0.034 A 
HETATM   24  C13 UNL     1      29.200  -0.522  53.264  1.00  0.00     0.009 A 
HETATM   25  C14 UNL     1      29.365  -1.890  53.355  1.00  0.00     0.001 A 
HETATM   26  C15 UNL     1      28.322  -2.743  53.038  1.00  0.00     0.000 A 
HETATM   27  C16 UNL     1      27.104  -2.239  52.625  1.00  0.00     0.001 A 
HETATM   28  C17 UNL     1      26.906  -0.870  52.524  1.00  0.00     0.009 A 
ENDBRANCH  19  23
ENDBRANCH  17  19
ENDBRANCH  14  17
TORSDOF 5
ENDMDL
MODEL 5
REMARK VINA RESULT:      -7.7      2.704      4.388
REMARK  5 active torsions:
REMARK  status: ('A' for Active; 'I' for Inactive)
REMARK       I    between atoms: C2_2  and  N1_4 
REMARK    1  A    between atoms: C9_14  and  N4_15 
REMARK    2  A    between atoms: N4_15  and  C10_16 
REMARK    3  A    between atoms: C10_16  and  C11_17 
REMARK    4  A    between atoms: C10_16  and  C12_19 
REMARK    5  A    between atoms: C11_17  and  O2_18 
ROOT
HETATM    1  C1  UNL     1      19.023   3.559  49.651  1.00  0.00     0.117 C 
HETATM    2  C2  UNL     1      18.751   2.195  50.211  1.00  0.00     0.216 C 
HETATM    3  O1  UNL     1      17.635   1.661  49.971  1.00  0.00    -0.274 OA
HETATM    4  N1  UNL     1      19.838   1.672  50.967  1.00  0.00    -0.347 N 
HETATM    5  C3  UNL     1      21.151   2.170  51.314  1.00  0.00     0.131 C 
HETATM    6  C4  UNL     1      22.118   0.972  51.166  1.00  0.00     0.060 C 
HETATM    7  C5  UNL     1      21.971   0.187  52.403  1.00  0.00    -0.025 A 
HETATM    8  C6  UNL     1      20.586  -0.078  52.471  1.00  0.00     0.010 A 
HETATM    9  S1  UNL     1      20.407  -1.034  53.989  1.00  0.00    -0.072 SA
HETATM   10  C7  UNL     1      22.128  -1.023  54.425  1.00  0.00     0.114 A 
HETATM   11  N2  UNL     1      22.684  -1.582  55.488  1.00  0.00    -0.234 NA
HETATM   12  C8  UNL     1      24.008  -1.478  55.664  1.00  0.00     0.236 A 
HETATM   13  N3  UNL     1      24.623  -0.792  54.704  1.00  0.00    -0.224 NA
HETATM   14  C9  UNL     1      24.082  -0.224  53.634  1.00  0.00     0.139 A 
HETATM   15  C18 UNL     1      22.730  -0.307  53.414  1.00  0.00     0.053 A 
HETATM   16  C19 UNL     1      19.555   0.349  51.501  1.00  0.00     0.172 C 
ENDROOT
BRANCH  14  17
HETATM   17  N4  UNL     1      25.003   0.456  52.755  1.00  0.00    -0.363 N 
HETATM   18  H9  UNL     1      25.415   0.309  51.849  1.00  0.00     0.162 HD
BRANCH  17  19
HETATM   19  C10 UNL     1      25.569   1.717  53.172  1.00  0.00     0.140 C 
BRANCH  19  20
HETATM   20  C11 UNL     1      27.063   1.793  53.002  1.00  0.00     0.194 C 
BRANCH  20  21
HETATM   21  O2  UNL     1      27.592   2.723  53.918  1.00  0.00    -0.399 OA
HETATM   22  H13 UNL     1      28.451   3.029  53.526  1.00  0.00     0.209 HD
ENDBRANCH  20  21
ENDBRANCH  19  20
BRANCH  19  23
HETATM   23  C12 UNL     1      24.989   2.815  52.350  1.00  0.00    -0.034 A 
HETATM   24  C13 UNL     1      25.276   2.985  51.015  1.00  0.00     0.009 A 
HETATM   25  C14 UNL     1      24.680   4.040  50.352  1.00  0.00     0.001 A 
HETATM   26  C15 UNL     1      23.820   4.892  51.023  1.00  0.00     0.000 A 
HETATM   27  C16 UNL     1      23.548   4.702  52.364  1.00  0.00     0.001 A 
HETATM   28  C17 UNL     1      24.131   3.652  53.058  1.00  0.00     0.009 A 
ENDBRANCH  19  23
ENDBRANCH  17  19
ENDBRANCH  14  17
TORSDOF 5
ENDMDL
MODEL 6
REMARK VINA RESULT:      -7.7      2.321      5.872
REMARK  5 active torsions:
REMARK  status: ('A' for Active; 'I' for Inactive)
REMARK       I    between atoms: C2_2  and  N1_4 
REMARK    1  A    between atoms: C9_14  and  N4_15 
REMARK    2  A    between atoms: N4_15  and  C10_16 
REMARK    3  A    between atoms: C10_16  and  C11_17 
REMARK    4  A    between atoms: C10_16  and  C12_19 
REMARK    5  A    between atoms: C11_17  and  O2_18 
ROOT
HETATM    1  C1  UNL     1      20.977   5.872  49.572  1.00  0.00     0.117 C 
HETATM    2  C2  UNL     1      22.443   5.894  49.890  1.00  0.00     0.216 C 
HETATM    3  O1  UNL     1      23.111   6.911  49.561  1.00  0.00    -0.274 OA
HETATM    4  N1  UNL     1      22.892   4.714  50.545  1.00  0.00    -0.347 N 
HETATM    5  C3  UNL     1      22.243   3.494  50.973  1.00  0.00     0.131 C 
HETATM    6  C4  UNL     1      22.825   3.164  52.368  1.00  0.00     0.060 C 
HETATM    7  C5  UNL     1      24.121   2.511  52.113  1.00  0.00    -0.025 A 
HETATM    8  C6  UNL     1      24.812   3.439  51.305  1.00  0.00     0.010 A 
HETATM    9  S1  UNL     1      26.396   2.638  50.990  1.00  0.00    -0.072 SA
HETATM   10  C7  UNL     1      26.053   1.166  51.923  1.00  0.00     0.114 A 
HETATM   11  N2  UNL     1      26.854   0.128  52.096  1.00  0.00    -0.234 NA
HETATM   12  C8  UNL     1      26.434  -0.907  52.837  1.00  0.00     0.236 A 
HETATM   13  N3  UNL     1      25.206  -0.751  53.325  1.00  0.00    -0.224 NA
HETATM   14  C9  UNL     1      24.389   0.281  53.161  1.00  0.00     0.139 A 
HETATM   15  C18 UNL     1      24.779   1.362  52.411  1.00  0.00     0.053 A 
HETATM   16  C19 UNL     1      24.315   4.754  50.845  1.00  0.00     0.172 C 
ENDROOT
BRANCH  14  17
HETATM   17  N4  UNL     1      23.108   0.175  53.818  1.00  0.00    -0.363 N 
HETATM   18  H9  UNL     1      22.546   0.723  54.447  1.00  0.00     0.162 HD
BRANCH  17  19
HETATM   19  C10 UNL     1      22.301  -1.001  53.596  1.00  0.00     0.140 C 
BRANCH  19  20
HETATM   20  C11 UNL     1      21.923  -1.722  54.862  1.00  0.00     0.194 C 
BRANCH  20  21
HETATM   21  O2  UNL     1      23.036  -1.773  55.723  1.00  0.00    -0.399 OA
HETATM   22  H13 UNL     1      22.747  -2.311  56.506  1.00  0.00     0.209 HD
ENDBRANCH  20  21
ENDBRANCH  19  20
BRANCH  19  23
HETATM   23  C12 UNL     1      21.027  -0.609  52.931  1.00  0.00    -0.034 A 
HETATM   24  C13 UNL     1      20.983   0.109  51.758  1.00  0.00     0.009 A 
HETATM   25  C14 UNL     1      19.744   0.417  51.232  1.00  0.00     0.001 A 
HETATM   26  C15 UNL     1      18.589   0.009  51.876  1.00  0.00     0.000 A 
HETATM   27  C16 UNL     1      18.659  -0.711  53.053  1.00  0.00     0.001 A 
HETATM   28  C17 UNL     1      19.888  -1.036  53.607  1.00  0.00     0.009 A 
ENDBRANCH  19  23
ENDBRANCH  17  19
ENDBRANCH  14  17
TORSDOF 5
ENDMDL
MODEL 7
REMARK VINA RESULT:      -7.6      3.240      5.911
REMARK  5 active torsions:
REMARK  status: ('A' for Active; 'I' for Inactive)
REMARK       I    between atoms: C2_2  and  N1_4 
REMARK    1  A    between atoms: C9_14  and  N4_15 
REMARK    2  A    between atoms: N4_15  and  C10_16 
REMARK    3  A    between atoms: C10_16  and  C11_17 
REMARK    4  A    between atoms: C10_16  and  C12_19 
REMARK    5  A    between atoms: C11_17  and  O2_18 
ROOT
HETATM    1  C1  UNL     1      21.031   4.706  49.013  1.00  0.00     0.117 C 
HETATM    2  C2  UNL     1      20.217   3.546  49.503  1.00  0.00     0.216 C 
HETATM    3  O1  UNL     1      19.027   3.437  49.101  1.00  0.00    -0.274 OA
HETATM    4  N1  UNL     1      20.932   2.695  50.391  1.00  0.00    -0.347 N 
HETATM    5  C3  UNL     1      22.277   2.703  50.926  1.00  0.00     0.131 C 
HETATM    6  C4  UNL     1      22.763   1.235  50.889  1.00  0.00     0.060 C 
HETATM    7  C5  UNL     1      22.179   0.593  52.079  1.00  0.00    -0.025 A 
HETATM    8  C6  UNL     1      20.795   0.840  51.950  1.00  0.00     0.010 A 
HETATM    9  S1  UNL     1      20.082   0.058  53.409  1.00  0.00    -0.072 SA
HETATM   10  C7  UNL     1      21.618  -0.531  54.079  1.00  0.00     0.114 A 
HETATM   11  N2  UNL     1      21.789  -1.218  55.197  1.00  0.00    -0.234 NA
HETATM   12  C8  UNL     1      23.026  -1.586  55.556  1.00  0.00     0.236 A 
HETATM   13  N3  UNL     1      23.969  -1.194  54.704  1.00  0.00    -0.224 NA
HETATM   14  C9  UNL     1      23.817  -0.505  53.580  1.00  0.00     0.139 A 
HETATM   15  C18 UNL     1      22.568  -0.108  53.175  1.00  0.00     0.053 A 
HETATM   16  C19 UNL     1      20.126   1.576  50.855  1.00  0.00     0.172 C 
ENDROOT
BRANCH  14  17
HETATM   17  N4  UNL     1      25.030  -0.224  52.850  1.00  0.00    -0.363 N 
HETATM   18  H9  UNL     1      25.307   0.309  52.043  1.00  0.00     0.162 HD
BRANCH  17  19
HETATM   19  C10 UNL     1      26.270  -0.813  53.296  1.00  0.00     0.140 C 
BRANCH  19  20
HETATM   20  C11 UNL     1      26.893  -1.744  52.291  1.00  0.00     0.194 C 
BRANCH  20  21
HETATM   21  O2  UNL     1      27.452  -2.850  52.959  1.00  0.00    -0.399 OA
HETATM   22  H13 UNL     1      28.339  -2.549  53.285  1.00  0.00     0.209 HD
ENDBRANCH  20  21
ENDBRANCH  19  20
BRANCH  19  23
HETATM   23  C12 UNL     1      27.265   0.265  53.553  1.00  0.00    -0.034 A 
HETATM   24  C13 UNL     1      28.314   0.124  54.432  1.00  0.00     0.009 A 
HETATM   25  C14 UNL     1      29.176   1.191  54.592  1.00  0.00     0.001 A 
HETATM   26  C15 UNL     1      28.979   2.362  53.881  1.00  0.00     0.000 A 
HETATM   27  C16 UNL     1      27.918   2.481  53.003  1.00  0.00     0.001 A 
HETATM   28  C17 UNL     1      27.035   1.427  52.821  1.00  0.00     0.009 A 
ENDBRANCH  19  23
ENDBRANCH  17  19
ENDBRANCH  14  17
TORSDOF 5
ENDMDL
MODEL 8
REMARK VINA RESULT:      -7.6      2.434      3.446
REMARK  5 active torsions:
REMARK  status: ('A' for Active; 'I' for Inactive)
REMARK       I    between atoms: C2_2  and  N1_4 
REMARK    1  A    between atoms: C9_14  and  N4_15 
REMARK    2  A    between atoms: N4_15  and  C10_16 
REMARK    3  A    between atoms: C10_16  and  C11_17 
REMARK    4  A    between atoms: C10_16  and  C12_19 
REMARK    5  A    between atoms: C11_17  and  O2_18 
ROOT
HETATM    1  C1  UNL     1      17.714   2.774  50.851  1.00  0.00     0.117 C 
HETATM    2  C2  UNL     1      17.917   1.430  51.484  1.00  0.00     0.216 C 
HETATM    3  O1  UNL     1      16.912   0.685  51.641  1.00  0.00    -0.274 OA
HETATM    4  N1  UNL     1      19.272   1.173  51.834  1.00  0.00    -0.347 N 
HETATM    5  C3  UNL     1      20.501   1.927  51.712  1.00  0.00     0.131 C 
HETATM    6  C4  UNL     1      21.581   0.917  51.259  1.00  0.00     0.060 C 
HETATM    7  C5  UNL     1      22.008   0.216  52.482  1.00  0.00    -0.025 A 
HETATM    8  C6  UNL     1      20.803  -0.291  53.016  1.00  0.00     0.010 A 
HETATM    9  S1  UNL     1      21.326  -1.145  54.516  1.00  0.00    -0.072 SA
HETATM   10  C7  UNL     1      23.057  -0.787  54.345  1.00  0.00     0.114 A 
HETATM   11  N2  UNL     1      24.031  -1.152  55.163  1.00  0.00    -0.234 NA
HETATM   12  C8  UNL     1      25.291  -0.795  54.880  1.00  0.00     0.236 A 
HETATM   13  N3  UNL     1      25.407  -0.084  53.762  1.00  0.00    -0.224 NA
HETATM   14  C9  UNL     1      24.444   0.292  52.931  1.00  0.00     0.139 A 
HETATM   15  C18 UNL     1      23.139  -0.053  53.182  1.00  0.00     0.053 A 
HETATM   16  C19 UNL     1      19.447  -0.135  52.447  1.00  0.00     0.172 C 
ENDROOT
BRANCH  14  17
HETATM   17  N4  UNL     1      24.870   1.059  51.785  1.00  0.00    -0.363 N 
HETATM   18  H9  UNL     1      24.940   0.935  50.790  1.00  0.00     0.162 HD
BRANCH  17  19
HETATM   19  C10 UNL     1      25.359   2.402  51.983  1.00  0.00     0.140 C 
BRANCH  19  20
HETATM   20  C11 UNL     1      26.516   2.762  51.090  1.00  0.00     0.194 C 
BRANCH  20  21
HETATM   21  O2  UNL     1      27.686   2.882  51.863  1.00  0.00    -0.399 OA
HETATM   22  H13 UNL     1      27.454   2.530  52.761  1.00  0.00     0.209 HD
ENDBRANCH  20  21
ENDBRANCH  19  20
BRANCH  19  23
HETATM   23  C12 UNL     1      24.271   3.374  51.684  1.00  0.00    -0.034 A 
HETATM   24  C13 UNL     1      23.567   4.037  52.663  1.00  0.00     0.009 A 
HETATM   25  C14 UNL     1      22.578   4.917  52.269  1.00  0.00     0.001 A 
HETATM   26  C15 UNL     1      22.313   5.116  50.925  1.00  0.00     0.000 A 
HETATM   27  C16 UNL     1      23.034   4.438  49.960  1.00  0.00     0.001 A 
HETATM   28  C17 UNL     1      24.033   3.548  50.323  1.00  0.00     0.009 A 
ENDBRANCH  19  23
ENDBRANCH  17  19
ENDBRANCH  14  17
TORSDOF 5
ENDMDL
MODEL 9
REMARK VINA RESULT:      -7.3      2.355      6.039
REMARK  5 active torsions:
REMARK  status: ('A' for Active; 'I' for Inactive)
REMARK       I    between atoms: C2_2  and  N1_4 
REMARK    1  A    between atoms: C9_14  and  N4_15 
REMARK    2  A    between atoms: N4_15  and  C10_16 
REMARK    3  A    between atoms: C10_16  and  C11_17 
REMARK    4  A    between atoms: C10_16  and  C12_19 
REMARK    5  A    between atoms: C11_17  and  O2_18 
ROOT
HETATM    1  C1  UNL     1      26.618   3.193  49.751  1.00  0.00     0.117 C 
HETATM    2  C2  UNL     1      26.615   2.656  51.152  1.00  0.00     0.216 C 
HETATM    3  O1  UNL     1      27.678   2.731  51.824  1.00  0.00    -0.274 OA
HETATM    4  N1  UNL     1      25.358   2.113  51.541  1.00  0.00    -0.347 N 
HETATM    5  C3  UNL     1      24.079   1.966  50.880  1.00  0.00     0.131 C 
HETATM    6  C4  UNL     1      23.007   2.324  51.936  1.00  0.00     0.060 C 
HETATM    7  C5  UNL     1      22.840   1.115  52.759  1.00  0.00    -0.025 A 
HETATM    8  C6  UNL     1      24.148   0.831  53.208  1.00  0.00     0.010 A 
HETATM    9  S1  UNL     1      23.944  -0.652  54.212  1.00  0.00    -0.072 SA
HETATM   10  C7  UNL     1      22.190  -0.798  53.981  1.00  0.00     0.114 A 
HETATM   11  N2  UNL     1      21.395  -1.729  54.484  1.00  0.00    -0.234 NA
HETATM   12  C8  UNL     1      20.084  -1.688  54.208  1.00  0.00     0.236 A 
HETATM   13  N3  UNL     1      19.734  -0.671  53.426  1.00  0.00    -0.224 NA
HETATM   14  C9  UNL     1      20.516   0.269  52.912  1.00  0.00     0.139 A 
HETATM   15  C18 UNL     1      21.864   0.266  53.170  1.00  0.00     0.053 A 
HETATM   16  C19 UNL     1      25.375   1.598  52.902  1.00  0.00     0.172 C 
ENDROOT
BRANCH  14  17
HETATM   17  N4  UNL     1      19.852   1.258  52.096  1.00  0.00    -0.363 N 
HETATM   18  H9  UNL     1      19.537   2.209  52.187  1.00  0.00     0.162 HD
BRANCH  17  19
HETATM   19  C10 UNL     1      19.477   0.915  50.745  1.00  0.00     0.140 C 
BRANCH  19  20
HETATM   20  C11 UNL     1      18.036   1.207  50.426  1.00  0.00     0.194 C 
BRANCH  20  21
HETATM   21  O2  UNL     1      17.560   0.262  49.497  1.00  0.00    -0.399 OA
HETATM   22  H13 UNL     1      17.468  -0.588  50.000  1.00  0.00     0.209 HD
ENDBRANCH  20  21
ENDBRANCH  19  20
BRANCH  19  23
HETATM   23  C12 UNL     1      20.296   1.711  49.788  1.00  0.00    -0.034 A 
HETATM   24  C13 UNL     1      20.211   3.080  49.686  1.00  0.00     0.009 A 
HETATM   25  C14 UNL     1      21.020   3.714  48.762  1.00  0.00     0.001 A 
HETATM   26  C15 UNL     1      21.886   2.980  47.971  1.00  0.00     0.000 A 
HETATM   27  C16 UNL     1      21.954   1.605  48.092  1.00  0.00     0.001 A 
HETATM   28  C17 UNL     1      21.155   0.939  49.010  1.00  0.00     0.009 A 
ENDBRANCH  19  23
ENDBRANCH  17  19
ENDBRANCH  14  17
TORSDOF 5
ENDMDL
