MODEL 1
REMARK VINA RESULT:      -8.6      0.000      0.000
REMARK  8 active torsions:
REMARK  status: ('A' for Active; 'I' for Inactive)
REMARK    1  A    between atoms: C2_2  and  C3_3 
REMARK       I    between atoms: C3_3  and  N1_5 
REMARK    2  A    between atoms: C5_7  and  C6_8 
REMARK    3  A    between atoms: C6_8  and  O2_9 
REMARK    4  A    between atoms: O2_9  and  C7_10 
REMARK    5  A    between atoms: C8_12  and  N3_13 
REMARK    6  A    between atoms: N3_13  and  C9_14 
REMARK    7  A    between atoms: C15_25  and  C16_26 
REMARK    8  A    between atoms: C17_28  and  C18_29 
ROOT
HETATM    1  C7  UNL     1      22.751   2.048  52.640  1.00  0.00     0.193 C 
HETATM    2  N2  UNL     1      23.475   1.162  53.024  1.00  0.00    -0.038 NA
HETATM    3  C8  UNL     1      23.452  -0.098  53.527  1.00  0.00     0.726 C 
HETATM    4  N6  UNL     1      22.949  -1.135  54.166  1.00  0.00    -0.090 NA
HETATM    5  C13 UNL     1      21.642  -1.106  54.771  1.00  0.00     0.273 C 
HETATM    6  N7  UNL     1      20.588  -0.906  53.784  1.00  0.00    -0.237 NA
HETATM    7  N8  UNL     1      20.690   0.288  53.098  1.00  0.00    -0.235 NA
HETATM    8  C14 UNL     1      20.329   1.562  52.650  1.00  0.00     0.088 C 
HETATM    9  C15 UNL     1      21.318   2.414  52.424  1.00  0.00     0.035 C 
HETATM   10  H17 UNL     1      20.570  -1.736  53.116  1.00  0.00     0.142 HD
HETATM   11  H18 UNL     1      19.819   0.168  53.717  1.00  0.00     0.146 HD
ENDROOT
BRANCH   1  12
HETATM   12  O2  UNL     1      23.756   2.964  52.320  1.00  0.00    -0.333 OA
BRANCH  12  13
HETATM   13  C6  UNL     1      24.809   2.677  51.380  1.00  0.00     0.184 C 
BRANCH  13  14
HETATM   14  C5  UNL     1      25.242   3.925  50.747  1.00  0.00     0.039 C 
HETATM   15  C4  UNL     1      26.322   3.759  49.697  1.00  0.00     0.133 C 
HETATM   16  N1  UNL     1      26.372   5.099  49.145  1.00  0.00    -0.348 N 
HETATM   17  C3  UNL     1      27.543   5.546  48.510  1.00  0.00     0.242 C 
HETATM   18  C19 UNL     1      25.094   5.792  49.364  1.00  0.00     0.136 C 
HETATM   19  O1  UNL     1      28.424   4.667  48.508  1.00  0.00    -0.268 OA
HETATM   20  C17 UNL     1      24.221   4.692  49.962  1.00  0.00     0.076 C 
BRANCH  17  21
HETATM   21  C2  UNL     1      27.913   6.801  47.876  1.00  0.00     0.064 C 
HETATM   22  C1  UNL     1      29.223   6.611  47.656  1.00  0.00     0.017 C 
ENDBRANCH  17  21
BRANCH  20  23
HETATM   23  C18 UNL     1      23.666   3.929  48.781  1.00  0.00     0.359 C 
HETATM   24  F2  UNL     1      22.579   3.143  49.111  1.00  0.00    -0.214 F 
HETATM   25  F3  UNL     1      23.245   4.851  47.851  1.00  0.00    -0.214 F 
ENDBRANCH  20  23
ENDBRANCH  13  14
ENDBRANCH  12  13
ENDBRANCH   1  12
BRANCH   9  26
HETATM   26  C16 UNL     1      21.019   3.787  51.958  1.00  0.00     0.266 C 
HETATM   27  F1  UNL     1      19.652   4.046  52.006  1.00  0.00    -0.250 F 
ENDBRANCH   9  26
BRANCH   3  28
HETATM   28  N3  UNL     1      24.734  -0.669  53.172  1.00  0.00    -0.185 N 
HETATM   29  H9  UNL     1      24.916  -1.362  52.376  1.00  0.00     0.184 HD
BRANCH  28  30
HETATM   30  C9  UNL     1      26.031  -0.452  53.766  1.00  0.00     0.085 A 
HETATM   31  C10 UNL     1      26.527   0.089  54.954  1.00  0.00     0.170 A 
HETATM   32  N4  UNL     1      27.852   0.000  54.949  1.00  0.00    -0.183 NA
HETATM   33  N5  UNL     1      28.301  -0.558  53.853  1.00  0.00    -0.283 N 
HETATM   34  C11 UNL     1      29.706  -0.761  53.637  1.00  0.00     0.179 C 
HETATM   35  C12 UNL     1      27.219  -0.835  53.131  1.00  0.00     0.143 A 
ENDBRANCH  28  30
ENDBRANCH   3  28
TORSDOF 8
ENDMDL
MODEL 2
REMARK VINA RESULT:      -8.6      2.849      7.109
REMARK  8 active torsions:
REMARK  status: ('A' for Active; 'I' for Inactive)
REMARK    1  A    between atoms: C2_2  and  C3_3 
REMARK       I    between atoms: C3_3  and  N1_5 
REMARK    2  A    between atoms: C5_7  and  C6_8 
REMARK    3  A    between atoms: C6_8  and  O2_9 
REMARK    4  A    between atoms: O2_9  and  C7_10 
REMARK    5  A    between atoms: C8_12  and  N3_13 
REMARK    6  A    between atoms: N3_13  and  C9_14 
REMARK    7  A    between atoms: C15_25  and  C16_26 
REMARK    8  A    between atoms: C17_28  and  C18_29 
ROOT
HETATM    1  C7  UNL     1      23.532   3.916  50.920  1.00  0.00     0.193 C 
HETATM    2  N2  UNL     1      24.494   3.211  50.738  1.00  0.00    -0.038 NA
HETATM    3  C8  UNL     1      25.806   3.257  50.397  1.00  0.00     0.726 C 
HETATM    4  N6  UNL     1      26.893   3.750  49.838  1.00  0.00    -0.090 NA
HETATM    5  C13 UNL     1      26.882   4.978  49.085  1.00  0.00     0.273 C 
HETATM    6  N7  UNL     1      26.504   6.120  49.909  1.00  0.00    -0.237 NA
HETATM    7  N8  UNL     1      25.236   6.020  50.448  1.00  0.00    -0.235 NA
HETATM    8  C14 UNL     1      23.899   6.348  50.688  1.00  0.00     0.088 C 
HETATM    9  C15 UNL     1      23.073   5.338  50.919  1.00  0.00     0.035 C 
HETATM   10  H17 UNL     1      27.237   6.263  50.669  1.00  0.00     0.142 HD
HETATM   11  H18 UNL     1      25.395   6.823  49.751  1.00  0.00     0.146 HD
ENDROOT
BRANCH   1  12
HETATM   12  O2  UNL     1      22.631   2.897  51.239  1.00  0.00    -0.333 OA
BRANCH  12  13
HETATM   13  C6  UNL     1      22.971   1.787  52.091  1.00  0.00     0.184 C 
BRANCH  13  14
HETATM   14  C5  UNL     1      21.754   1.288  52.738  1.00  0.00     0.039 C 
HETATM   15  C4  UNL     1      20.861   0.452  51.844  1.00  0.00     0.133 C 
HETATM   16  N1  UNL     1      19.893  -0.036  52.807  1.00  0.00    -0.348 N 
HETATM   17  C3  UNL     1      18.615  -0.427  52.371  1.00  0.00     0.242 C 
HETATM   18  C19 UNL     1      20.470  -0.035  54.159  1.00  0.00     0.136 C 
HETATM   19  O1  UNL     1      18.494  -0.294  51.140  1.00  0.00    -0.268 OA
HETATM   20  C17 UNL     1      21.922   0.353  53.898  1.00  0.00     0.076 C 
BRANCH  17  21
HETATM   21  C2  UNL     1      17.443  -0.939  53.062  1.00  0.00     0.064 C 
HETATM   22  C1  UNL     1      17.846  -2.177  53.385  1.00  0.00     0.017 C 
ENDBRANCH  17  21
BRANCH  20  23
HETATM   23  C18 UNL     1      22.628  -0.935  53.540  1.00  0.00     0.359 C 
HETATM   24  F2  UNL     1      23.983  -0.898  53.802  1.00  0.00    -0.214 F 
HETATM   25  F3  UNL     1      22.083  -1.935  54.312  1.00  0.00    -0.214 F 
ENDBRANCH  20  23
ENDBRANCH  13  14
ENDBRANCH  12  13
ENDBRANCH   1  12
BRANCH   9  26
HETATM   26  C16 UNL     1      21.637   5.601  51.172  1.00  0.00     0.266 C 
HETATM   27  F1  UNL     1      21.375   6.968  51.194  1.00  0.00    -0.250 F 
ENDBRANCH   9  26
BRANCH   3  28
HETATM   28  N3  UNL     1      26.387   2.060  50.968  1.00  0.00    -0.185 N 
HETATM   29  H9  UNL     1      26.677   1.182  50.429  1.00  0.00     0.184 HD
BRANCH  28  30
HETATM   30  C9  UNL     1      26.715   1.766  52.343  1.00  0.00     0.085 A 
HETATM   31  C10 UNL     1      26.256   2.155  53.603  1.00  0.00     0.170 A 
HETATM   32  N4  UNL     1      26.958   1.518  54.533  1.00  0.00    -0.183 NA
HETATM   33  N5  UNL     1      27.859   0.725  54.010  1.00  0.00    -0.283 N 
HETATM   34  C11 UNL     1      28.728  -0.068  54.833  1.00  0.00     0.179 C 
HETATM   35  C12 UNL     1      27.727   0.863  52.694  1.00  0.00     0.143 A 
ENDBRANCH  28  30
ENDBRANCH   3  28
TORSDOF 8
ENDMDL
MODEL 3
REMARK VINA RESULT:      -8.3      1.921      2.344
REMARK  8 active torsions:
REMARK  status: ('A' for Active; 'I' for Inactive)
REMARK    1  A    between atoms: C2_2  and  C3_3 
REMARK       I    between atoms: C3_3  and  N1_5 
REMARK    2  A    between atoms: C5_7  and  C6_8 
REMARK    3  A    between atoms: C6_8  and  O2_9 
REMARK    4  A    between atoms: O2_9  and  C7_10 
REMARK    5  A    between atoms: C8_12  and  N3_13 
REMARK    6  A    between atoms: N3_13  and  C9_14 
REMARK    7  A    between atoms: C15_25  and  C16_26 
REMARK    8  A    between atoms: C17_28  and  C18_29 
ROOT
HETATM    1  C7  UNL     1      21.707   0.625  51.638  1.00  0.00     0.193 C 
HETATM    2  N2  UNL     1      22.713   0.274  52.204  1.00  0.00    -0.038 NA
HETATM    3  C8  UNL     1      23.146  -0.450  53.267  1.00  0.00     0.726 C 
HETATM    4  N6  UNL     1      23.075  -1.009  54.458  1.00  0.00    -0.090 NA
HETATM    5  C13 UNL     1      21.910  -0.890  55.296  1.00  0.00     0.273 C 
HETATM    6  N7  UNL     1      20.732  -1.493  54.683  1.00  0.00    -0.237 NA
HETATM    7  N8  UNL     1      20.371  -0.911  53.484  1.00  0.00    -0.235 NA
HETATM    8  C14 UNL     1      19.579  -0.218  52.565  1.00  0.00     0.088 C 
HETATM    9  C15 UNL     1      20.217   0.522  51.671  1.00  0.00     0.035 C 
HETATM   10  H17 UNL     1      20.891  -2.541  54.572  1.00  0.00     0.142 HD
HETATM   11  H18 UNL     1      19.664  -0.819  54.289  1.00  0.00     0.146 HD
ENDROOT
BRANCH   1  12
HETATM   12  O2  UNL     1      22.329   1.365  50.629  1.00  0.00    -0.333 OA
BRANCH  12  13
HETATM   13  C6  UNL     1      22.808   2.710  50.824  1.00  0.00     0.184 C 
BRANCH  13  14
HETATM   14  C5  UNL     1      24.163   2.821  50.276  1.00  0.00     0.039 C 
HETATM   15  C4  UNL     1      24.652   4.243  50.087  1.00  0.00     0.133 C 
HETATM   16  N1  UNL     1      26.040   4.008  49.741  1.00  0.00    -0.348 N 
HETATM   17  C3  UNL     1      26.746   4.974  49.002  1.00  0.00     0.242 C 
HETATM   18  C19 UNL     1      26.488   2.711  50.266  1.00  0.00     0.136 C 
HETATM   19  O1  UNL     1      26.030   5.958  48.741  1.00  0.00    -0.268 OA
HETATM   20  C17 UNL     1      25.286   2.257  51.091  1.00  0.00     0.076 C 
BRANCH  17  21
HETATM   21  C2  UNL     1      28.107   5.041  48.499  1.00  0.00     0.064 C 
HETATM   22  C1  UNL     1      28.194   6.331  48.140  1.00  0.00     0.017 C 
ENDBRANCH  17  21
BRANCH  20  23
HETATM   23  C18 UNL     1      25.448   2.920  52.441  1.00  0.00     0.359 C 
HETATM   24  F2  UNL     1      24.494   2.519  53.355  1.00  0.00    -0.214 F 
HETATM   25  F3  UNL     1      26.679   2.556  52.937  1.00  0.00    -0.214 F 
ENDBRANCH  20  23
ENDBRANCH  13  14
ENDBRANCH  12  13
ENDBRANCH   1  12
BRANCH   9  26
HETATM   26  C16 UNL     1      19.449   1.297  50.668  1.00  0.00     0.266 C 
HETATM   27  F1  UNL     1      18.138   1.500  51.090  1.00  0.00    -0.250 F 
ENDBRANCH   9  26
BRANCH   3  28
HETATM   28  N3  UNL     1      24.489  -0.866  52.918  1.00  0.00    -0.185 N 
HETATM   29  H9  UNL     1      24.762  -1.475  52.082  1.00  0.00     0.184 HD
BRANCH  28  30
HETATM   30  C9  UNL     1      25.740  -0.570  53.574  1.00  0.00     0.085 A 
HETATM   31  C10 UNL     1      26.145  -0.097  54.824  1.00  0.00     0.170 A 
HETATM   32  N4  UNL     1      27.472  -0.042  54.855  1.00  0.00    -0.183 NA
HETATM   33  N5  UNL     1      28.005  -0.440  53.727  1.00  0.00    -0.283 N 
HETATM   34  C11 UNL     1      29.428  -0.469  53.541  1.00  0.00     0.179 C 
HETATM   35  C12 UNL     1      26.977  -0.759  52.947  1.00  0.00     0.143 A 
ENDBRANCH  28  30
ENDBRANCH   3  28
TORSDOF 8
ENDMDL
MODEL 4
REMARK VINA RESULT:      -8.2      2.248      2.828
REMARK  8 active torsions:
REMARK  status: ('A' for Active; 'I' for Inactive)
REMARK    1  A    between atoms: C2_2  and  C3_3 
REMARK       I    between atoms: C3_3  and  N1_5 
REMARK    2  A    between atoms: C5_7  and  C6_8 
REMARK    3  A    between atoms: C6_8  and  O2_9 
REMARK    4  A    between atoms: O2_9  and  C7_10 
REMARK    5  A    between atoms: C8_12  and  N3_13 
REMARK    6  A    between atoms: N3_13  and  C9_14 
REMARK    7  A    between atoms: C15_25  and  C16_26 
REMARK    8  A    between atoms: C17_28  and  C18_29 
ROOT
HETATM    1  C7  UNL     1      22.856   0.620  53.142  1.00  0.00     0.193 C 
HETATM    2  N2  UNL     1      24.019   0.334  53.289  1.00  0.00    -0.038 NA
HETATM    3  C8  UNL     1      24.844  -0.455  54.023  1.00  0.00     0.726 C 
HETATM    4  N6  UNL     1      25.225  -1.163  55.067  1.00  0.00    -0.090 NA
HETATM    5  C13 UNL     1      24.407  -1.302  56.244  1.00  0.00     0.273 C 
HETATM    6  N7  UNL     1      23.144  -1.972  55.955  1.00  0.00    -0.237 NA
HETATM    7  N8  UNL     1      22.352  -1.296  55.047  1.00  0.00    -0.235 NA
HETATM    8  C14 UNL     1      21.243  -0.602  54.558  1.00  0.00     0.088 C 
HETATM    9  C15 UNL     1      21.479   0.321  53.637  1.00  0.00     0.035 C 
HETATM   10  H17 UNL     1      23.340  -2.968  55.631  1.00  0.00     0.142 HD
HETATM   11  H18 UNL     1      21.955  -1.399  56.041  1.00  0.00     0.146 HD
ENDROOT
BRANCH   1  12
HETATM   12  O2  UNL     1      23.038   1.555  52.120  1.00  0.00    -0.333 OA
BRANCH  12  13
HETATM   13  C6  UNL     1      23.494   2.900  52.359  1.00  0.00     0.184 C 
BRANCH  13  14
HETATM   14  C5  UNL     1      23.590   3.609  51.080  1.00  0.00     0.039 C 
HETATM   15  C4  UNL     1      24.140   5.018  51.179  1.00  0.00     0.133 C 
HETATM   16  N1  UNL     1      24.293   5.349  49.776  1.00  0.00    -0.348 N 
HETATM   17  C3  UNL     1      24.292   6.697  49.375  1.00  0.00     0.242 C 
HETATM   18  C19 UNL     1      24.433   4.126  48.973  1.00  0.00     0.136 C 
HETATM   19  O1  UNL     1      24.158   7.460  50.349  1.00  0.00    -0.268 OA
HETATM   20  C17 UNL     1      24.505   3.037  50.040  1.00  0.00     0.076 C 
BRANCH  17  21
HETATM   21  C2  UNL     1      24.412   7.349  48.083  1.00  0.00     0.064 C 
HETATM   22  C1  UNL     1      25.745   7.393  47.931  1.00  0.00     0.017 C 
ENDBRANCH  17  21
BRANCH  20  23
HETATM   23  C18 UNL     1      25.954   2.986  50.469  1.00  0.00     0.359 C 
HETATM   24  F2  UNL     1      26.306   1.773  51.029  1.00  0.00    -0.214 F 
HETATM   25  F3  UNL     1      26.726   3.165  49.344  1.00  0.00    -0.214 F 
ENDBRANCH  20  23
ENDBRANCH  13  14
ENDBRANCH  12  13
ENDBRANCH   1  12
BRANCH   9  26
HETATM   26  C16 UNL     1      20.356   1.108  53.075  1.00  0.00     0.266 C 
HETATM   27  F1  UNL     1      19.264   0.293  52.795  1.00  0.00    -0.250 F 
ENDBRANCH   9  26
BRANCH   3  28
HETATM   28  N3  UNL     1      26.017  -0.646  53.198  1.00  0.00    -0.185 N 
HETATM   29  H9  UNL     1      26.038  -1.098  52.227  1.00  0.00     0.184 HD
BRANCH  28  30
HETATM   30  C9  UNL     1      27.390  -0.283  53.457  1.00  0.00     0.085 A 
HETATM   31  C10 UNL     1      28.643  -0.887  53.326  1.00  0.00     0.170 A 
HETATM   32  N4  UNL     1      29.578  -0.031  53.724  1.00  0.00    -0.183 NA
HETATM   33  N5  UNL     1      29.064   1.109  54.115  1.00  0.00    -0.283 N 
HETATM   34  C11 UNL     1      29.894   2.184  54.580  1.00  0.00     0.179 C 
HETATM   35  C12 UNL     1      27.751   0.973  53.962  1.00  0.00     0.143 A 
ENDBRANCH  28  30
ENDBRANCH   3  28
TORSDOF 8
ENDMDL
MODEL 5
REMARK VINA RESULT:      -8.1      2.922      6.471
REMARK  8 active torsions:
REMARK  status: ('A' for Active; 'I' for Inactive)
REMARK    1  A    between atoms: C2_2  and  C3_3 
REMARK       I    between atoms: C3_3  and  N1_5 
REMARK    2  A    between atoms: C5_7  and  C6_8 
REMARK    3  A    between atoms: C6_8  and  O2_9 
REMARK    4  A    between atoms: O2_9  and  C7_10 
REMARK    5  A    between atoms: C8_12  and  N3_13 
REMARK    6  A    between atoms: N3_13  and  C9_14 
REMARK    7  A    between atoms: C15_25  and  C16_26 
REMARK    8  A    between atoms: C17_28  and  C18_29 
ROOT
HETATM    1  C7  UNL     1      23.401   4.108  51.080  1.00  0.00     0.193 C 
HETATM    2  N2  UNL     1      22.347   4.012  51.658  1.00  0.00    -0.038 NA
HETATM    3  C8  UNL     1      21.006   4.022  51.450  1.00  0.00     0.726 C 
HETATM    4  N6  UNL     1      19.881   4.322  50.831  1.00  0.00    -0.090 NA
HETATM    5  C13 UNL     1      19.851   5.116  49.631  1.00  0.00     0.273 C 
HETATM    6  N7  UNL     1      20.558   4.471  48.531  1.00  0.00    -0.237 NA
HETATM    7  N8  UNL     1      21.899   4.256  48.783  1.00  0.00    -0.235 NA
HETATM    8  C14 UNL     1      23.283   4.369  48.627  1.00  0.00     0.088 C 
HETATM    9  C15 UNL     1      24.013   4.296  49.729  1.00  0.00     0.035 C 
HETATM   10  H17 UNL     1      20.061   3.563  48.278  1.00  0.00     0.142 HD
HETATM   11  H18 UNL     1      21.668   4.933  47.980  1.00  0.00     0.146 HD
ENDROOT
BRANCH   1  12
HETATM   12  O2  UNL     1      24.224   3.969  52.200  1.00  0.00    -0.333 OA
BRANCH  12  13
HETATM   13  C6  UNL     1      24.272   2.767  52.993  1.00  0.00     0.184 C 
BRANCH  13  14
HETATM   14  C5  UNL     1      25.500   2.032  52.677  1.00  0.00     0.039 C 
HETATM   15  C4  UNL     1      26.473   1.902  53.832  1.00  0.00     0.133 C 
HETATM   16  N1  UNL     1      27.443   0.984  53.268  1.00  0.00    -0.348 N 
HETATM   17  C3  UNL     1      28.757   0.966  53.768  1.00  0.00     0.242 C 
HETATM   18  C19 UNL     1      26.830   0.182  52.200  1.00  0.00     0.136 C 
HETATM   19  O1  UNL     1      28.904   1.791  54.688  1.00  0.00    -0.268 OA
HETATM   20  C17 UNL     1      25.362   0.594  52.280  1.00  0.00     0.076 C 
BRANCH  17  21
HETATM   21  C2  UNL     1      29.940   0.194  53.427  1.00  0.00     0.064 C 
HETATM   22  C1  UNL     1      29.568  -1.040  53.800  1.00  0.00     0.017 C 
ENDBRANCH  17  21
BRANCH  20  23
HETATM   23  C18 UNL     1      24.755  -0.276  53.357  1.00  0.00     0.359 C 
HETATM   24  F2  UNL     1      23.548  -0.834  52.982  1.00  0.00    -0.214 F 
HETATM   25  F3  UNL     1      25.632  -1.309  53.600  1.00  0.00    -0.214 F 
ENDBRANCH  20  23
ENDBRANCH  13  14
ENDBRANCH  12  13
ENDBRANCH   1  12
BRANCH   9  26
HETATM   26  C16 UNL     1      25.487   4.417  49.649  1.00  0.00     0.266 C 
HETATM   27  F1  UNL     1      25.912   5.665  50.097  1.00  0.00    -0.250 F 
ENDBRANCH   9  26
BRANCH   3  28
HETATM   28  N3  UNL     1      20.447   3.265  52.550  1.00  0.00    -0.185 N 
HETATM   29  H9  UNL     1      20.173   3.655  53.508  1.00  0.00     0.184 HD
BRANCH  28  30
HETATM   30  C9  UNL     1      20.124   1.860  52.626  1.00  0.00     0.085 A 
HETATM   31  C10 UNL     1      19.279   0.974  51.954  1.00  0.00     0.170 A 
HETATM   32  N4  UNL     1      19.426  -0.240  52.473  1.00  0.00    -0.183 NA
HETATM   33  N5  UNL     1      20.305  -0.255  53.443  1.00  0.00    -0.283 N 
HETATM   34  C11 UNL     1      20.627  -1.466  54.144  1.00  0.00     0.179 C 
HETATM   35  C12 UNL     1      20.732   1.000  53.549  1.00  0.00     0.143 A 
ENDBRANCH  28  30
ENDBRANCH   3  28
TORSDOF 8
ENDMDL
MODEL 6
REMARK VINA RESULT:      -7.9      2.870      7.497
REMARK  8 active torsions:
REMARK  status: ('A' for Active; 'I' for Inactive)
REMARK    1  A    between atoms: C2_2  and  C3_3 
REMARK       I    between atoms: C3_3  and  N1_5 
REMARK    2  A    between atoms: C5_7  and  C6_8 
REMARK    3  A    between atoms: C6_8  and  O2_9 
REMARK    4  A    between atoms: O2_9  and  C7_10 
REMARK    5  A    between atoms: C8_12  and  N3_13 
REMARK    6  A    between atoms: N3_13  and  C9_14 
REMARK    7  A    between atoms: C15_25  and  C16_26 
REMARK    8  A    between atoms: C17_28  and  C18_29 
ROOT
HETATM    1  C7  UNL     1      24.700   4.417  49.722  1.00  0.00     0.193 C 
HETATM    2  N2  UNL     1      23.561   4.669  50.032  1.00  0.00    -0.038 NA
HETATM    3  C8  UNL     1      22.679   5.695  50.127  1.00  0.00     0.726 C 
HETATM    4  N6  UNL     1      22.292   6.947  50.268  1.00  0.00    -0.090 NA
HETATM    5  C13 UNL     1      23.229   8.026  50.446  1.00  0.00     0.273 C 
HETATM    6  N7  UNL     1      24.108   8.182  49.294  1.00  0.00    -0.237 NA
HETATM    7  N8  UNL     1      24.888   7.072  49.037  1.00  0.00    -0.235 NA
HETATM    8  C14 UNL     1      26.049   6.308  48.885  1.00  0.00     0.088 C 
HETATM    9  C15 UNL     1      25.964   5.027  49.210  1.00  0.00     0.035 C 
HETATM   10  H17 UNL     1      23.528   8.453  48.443  1.00  0.00     0.142 HD
HETATM   11  H18 UNL     1      25.414   7.968  49.313  1.00  0.00     0.146 HD
ENDROOT
BRANCH   1  12
HETATM   12  O2  UNL     1      24.649   3.045  49.984  1.00  0.00    -0.333 OA
BRANCH  12  13
HETATM   13  C6  UNL     1      24.155   2.501  51.223  1.00  0.00     0.184 C 
BRANCH  13  14
HETATM   14  C5  UNL     1      25.156   1.586  51.779  1.00  0.00     0.039 C 
HETATM   15  C4  UNL     1      25.955   2.152  52.936  1.00  0.00     0.133 C 
HETATM   16  N1  UNL     1      26.680   0.973  53.367  1.00  0.00    -0.348 N 
HETATM   17  C3  UNL     1      27.891   1.118  54.066  1.00  0.00     0.242 C 
HETATM   18  C19 UNL     1      25.961  -0.245  52.969  1.00  0.00     0.136 C 
HETATM   19  O1  UNL     1      28.182   2.317  54.228  1.00  0.00    -0.268 OA
HETATM   20  C17 UNL     1      24.661   0.312  52.393  1.00  0.00     0.076 C 
BRANCH  17  21
HETATM   21  C2  UNL     1      28.841   0.166  54.616  1.00  0.00     0.064 C 
HETATM   22  C1  UNL     1      29.640  -0.052  53.560  1.00  0.00     0.017 C 
ENDBRANCH  17  21
BRANCH  20  23
HETATM   23  C18 UNL     1      23.751   0.525  53.582  1.00  0.00     0.359 C 
HETATM   24  F2  UNL     1      22.416   0.588  53.233  1.00  0.00    -0.214 F 
HETATM   25  F3  UNL     1      23.911  -0.550  54.425  1.00  0.00    -0.214 F 
ENDBRANCH  20  23
ENDBRANCH  13  14
ENDBRANCH  12  13
ENDBRANCH   1  12
BRANCH   9  26
HETATM   26  C16 UNL     1      27.153   4.153  49.087  1.00  0.00     0.266 C 
HETATM   27  F1  UNL     1      28.110   4.723  48.253  1.00  0.00    -0.250 F 
ENDBRANCH   9  26
BRANCH   3  28
HETATM   28  N3  UNL     1      21.372   5.082  50.015  1.00  0.00    -0.185 N 
HETATM   29  H9  UNL     1      20.674   5.228  49.217  1.00  0.00     0.184 HD
BRANCH  28  30
HETATM   30  C9  UNL     1      20.716   4.153  50.904  1.00  0.00     0.085 A 
HETATM   31  C10 UNL     1      20.814   3.792  52.249  1.00  0.00     0.170 A 
HETATM   32  N4  UNL     1      19.907   2.858  52.513  1.00  0.00    -0.183 NA
HETATM   33  N5  UNL     1      19.198   2.552  51.455  1.00  0.00    -0.283 N 
HETATM   34  C11 UNL     1      18.154   1.568  51.513  1.00  0.00     0.179 C 
HETATM   35  C12 UNL     1      19.673   3.321  50.480  1.00  0.00     0.143 A 
ENDBRANCH  28  30
ENDBRANCH   3  28
TORSDOF 8
ENDMDL
MODEL 7
REMARK VINA RESULT:      -7.9      2.702      3.518
REMARK  8 active torsions:
REMARK  status: ('A' for Active; 'I' for Inactive)
REMARK    1  A    between atoms: C2_2  and  C3_3 
REMARK       I    between atoms: C3_3  and  N1_5 
REMARK    2  A    between atoms: C5_7  and  C6_8 
REMARK    3  A    between atoms: C6_8  and  O2_9 
REMARK    4  A    between atoms: O2_9  and  C7_10 
REMARK    5  A    between atoms: C8_12  and  N3_13 
REMARK    6  A    between atoms: N3_13  and  C9_14 
REMARK    7  A    between atoms: C15_25  and  C16_26 
REMARK    8  A    between atoms: C17_28  and  C18_29 
ROOT
HETATM    1  C7  UNL     1      22.947   0.291  52.889  1.00  0.00     0.193 C 
HETATM    2  N2  UNL     1      24.106   0.043  53.113  1.00  0.00    -0.038 NA
HETATM    3  C8  UNL     1      24.908  -0.645  53.964  1.00  0.00     0.726 C 
HETATM    4  N6  UNL     1      25.254  -1.226  55.096  1.00  0.00    -0.090 NA
HETATM    5  C13 UNL     1      24.389  -1.246  56.247  1.00  0.00     0.273 C 
HETATM    6  N7  UNL     1      23.148  -1.964  55.985  1.00  0.00    -0.237 NA
HETATM    7  N8  UNL     1      22.387  -1.408  54.975  1.00  0.00    -0.235 NA
HETATM    8  C14 UNL     1      21.290  -0.791  54.367  1.00  0.00     0.088 C 
HETATM    9  C15 UNL     1      21.553   0.027  53.359  1.00  0.00     0.035 C 
HETATM   10  H17 UNL     1      23.369  -2.987  55.783  1.00  0.00     0.142 HD
HETATM   11  H18 UNL     1      21.950  -1.405  55.958  1.00  0.00     0.146 HD
ENDROOT
BRANCH   1  12
HETATM   12  O2  UNL     1      23.160   1.109  51.776  1.00  0.00    -0.333 OA
BRANCH  12  13
HETATM   13  C6  UNL     1      24.336   1.924  51.615  1.00  0.00     0.184 C 
BRANCH  13  14
HETATM   14  C5  UNL     1      24.191   2.745  50.410  1.00  0.00     0.039 C 
HETATM   15  C4  UNL     1      22.830   2.659  49.747  1.00  0.00     0.133 C 
HETATM   16  N1  UNL     1      22.948   3.703  48.748  1.00  0.00    -0.348 N 
HETATM   17  C3  UNL     1      22.148   3.654  47.593  1.00  0.00     0.242 C 
HETATM   18  C19 UNL     1      23.954   4.693  49.158  1.00  0.00     0.136 C 
HETATM   19  O1  UNL     1      21.401   2.659  47.600  1.00  0.00    -0.268 OA
HETATM   20  C17 UNL     1      24.319   4.230  50.566  1.00  0.00     0.076 C 
BRANCH  17  21
HETATM   21  C2  UNL     1      22.031   4.515  46.429  1.00  0.00     0.064 C 
HETATM   22  C1  UNL     1      21.105   5.395  46.842  1.00  0.00     0.017 C 
ENDBRANCH  17  21
BRANCH  20  23
HETATM   23  C18 UNL     1      23.273   4.836  51.475  1.00  0.00     0.359 C 
HETATM   24  F2  UNL     1      23.713   4.988  52.775  1.00  0.00    -0.214 F 
HETATM   25  F3  UNL     1      22.975   6.088  50.988  1.00  0.00    -0.214 F 
ENDBRANCH  20  23
ENDBRANCH  13  14
ENDBRANCH  12  13
ENDBRANCH   1  12
BRANCH   9  26
HETATM   26  C16 UNL     1      20.446   0.727  52.667  1.00  0.00     0.266 C 
HETATM   27  F1  UNL     1      19.276  -0.025  52.706  1.00  0.00    -0.250 F 
ENDBRANCH   9  26
BRANCH   3  28
HETATM   28  N3  UNL     1      26.118  -0.908  53.213  1.00  0.00    -0.185 N 
HETATM   29  H9  UNL     1      26.191  -1.502  52.326  1.00  0.00     0.184 HD
BRANCH  28  30
HETATM   30  C9  UNL     1      27.465  -0.448  53.453  1.00  0.00     0.085 A 
HETATM   31  C10 UNL     1      28.753  -0.977  53.347  1.00  0.00     0.170 A 
HETATM   32  N4  UNL     1      29.632  -0.047  53.704  1.00  0.00    -0.183 NA
HETATM   33  N5  UNL     1      29.047   1.074  54.044  1.00  0.00    -0.283 N 
HETATM   34  C11 UNL     1      29.808   2.219  54.459  1.00  0.00     0.179 C 
HETATM   35  C12 UNL     1      27.745   0.849  53.900  1.00  0.00     0.143 A 
ENDBRANCH  28  30
ENDBRANCH   3  28
TORSDOF 8
ENDMDL
MODEL 8
REMARK VINA RESULT:      -7.7      2.822      5.304
REMARK  8 active torsions:
REMARK  status: ('A' for Active; 'I' for Inactive)
REMARK    1  A    between atoms: C2_2  and  C3_3 
REMARK       I    between atoms: C3_3  and  N1_5 
REMARK    2  A    between atoms: C5_7  and  C6_8 
REMARK    3  A    between atoms: C6_8  and  O2_9 
REMARK    4  A    between atoms: O2_9  and  C7_10 
REMARK    5  A    between atoms: C8_12  and  N3_13 
REMARK    6  A    between atoms: N3_13  and  C9_14 
REMARK    7  A    between atoms: C15_25  and  C16_26 
REMARK    8  A    between atoms: C17_28  and  C18_29 
ROOT
HETATM    1  C7  UNL     1      24.019   0.804  53.016  1.00  0.00     0.193 C 
HETATM    2  N2  UNL     1      22.816   0.833  53.100  1.00  0.00    -0.038 NA
HETATM    3  C8  UNL     1      21.774   0.266  53.759  1.00  0.00     0.726 C 
HETATM    4  N6  UNL     1      21.134  -0.673  54.427  1.00  0.00    -0.090 NA
HETATM    5  C13 UNL     1      21.740  -1.939  54.747  1.00  0.00     0.273 C 
HETATM    6  N7  UNL     1      22.901  -1.786  55.615  1.00  0.00    -0.237 NA
HETATM    7  N8  UNL     1      23.916  -1.035  55.056  1.00  0.00    -0.235 NA
HETATM    8  C14 UNL     1      25.185  -0.743  54.548  1.00  0.00     0.088 C 
HETATM    9  C15 UNL     1      25.242   0.145  53.567  1.00  0.00     0.035 C 
HETATM   10  H17 UNL     1      22.590  -1.380  56.550  1.00  0.00     0.142 HD
HETATM   11  H18 UNL     1      24.144  -2.066  55.260  1.00  0.00     0.146 HD
ENDROOT
BRANCH   1  12
HETATM   12  O2  UNL     1      24.145   1.784  52.028  1.00  0.00    -0.333 OA
BRANCH  12  13
HETATM   13  C6  UNL     1      24.111   3.195  52.315  1.00  0.00     0.184 C 
BRANCH  13  14
HETATM   14  C5  UNL     1      23.842   3.931  51.076  1.00  0.00     0.039 C 
HETATM   15  C4  UNL     1      24.136   5.416  51.147  1.00  0.00     0.133 C 
HETATM   16  N1  UNL     1      23.967   5.792  49.757  1.00  0.00    -0.348 N 
HETATM   17  C3  UNL     1      23.649   7.122  49.430  1.00  0.00     0.242 C 
HETATM   18  C19 UNL     1      24.178   4.631  48.882  1.00  0.00     0.136 C 
HETATM   19  O1  UNL     1      23.558   7.831  50.449  1.00  0.00    -0.268 OA
HETATM   20  C17 UNL     1      24.640   3.557  49.864  1.00  0.00     0.076 C 
BRANCH  17  21
HETATM   21  C2  UNL     1      23.411   7.806  48.170  1.00  0.00     0.064 C 
HETATM   22  C1  UNL     1      24.649   8.217  47.854  1.00  0.00     0.017 C 
ENDBRANCH  17  21
BRANCH  20  23
HETATM   23  C18 UNL     1      26.128   3.772  50.028  1.00  0.00     0.359 C 
HETATM   24  F2  UNL     1      26.817   2.599  50.270  1.00  0.00    -0.214 F 
HETATM   25  F3  UNL     1      26.604   4.298  48.849  1.00  0.00    -0.214 F 
ENDBRANCH  20  23
ENDBRANCH  13  14
ENDBRANCH  12  13
ENDBRANCH   1  12
BRANCH   9  26
HETATM   26  C16 UNL     1      26.548   0.502  52.967  1.00  0.00     0.266 C 
HETATM   27  F1  UNL     1      26.721  -0.123  51.736  1.00  0.00    -0.250 F 
ENDBRANCH   9  26
BRANCH   3  28
HETATM   28  N3  UNL     1      20.716   1.253  53.714  1.00  0.00    -0.185 N 
HETATM   29  H9  UNL     1      20.086   1.538  54.531  1.00  0.00     0.184 HD
BRANCH  28  30
HETATM   30  C9  UNL     1      20.271   2.072  52.612  1.00  0.00     0.085 A 
HETATM   31  C10 UNL     1      20.391   3.409  52.226  1.00  0.00     0.170 A 
HETATM   32  N4  UNL     1      19.764   3.581  51.068  1.00  0.00    -0.183 NA
HETATM   33  N5  UNL     1      19.227   2.470  50.631  1.00  0.00    -0.283 N 
HETATM   34  C11 UNL     1      18.504   2.423  49.392  1.00  0.00     0.179 C 
HETATM   35  C12 UNL     1      19.522   1.553  51.549  1.00  0.00     0.143 A 
ENDBRANCH  28  30
ENDBRANCH   3  28
TORSDOF 8
ENDMDL
MODEL 9
REMARK VINA RESULT:      -7.6      2.632      7.281
REMARK  8 active torsions:
REMARK  status: ('A' for Active; 'I' for Inactive)
REMARK    1  A    between atoms: C2_2  and  C3_3 
REMARK       I    between atoms: C3_3  and  N1_5 
REMARK    2  A    between atoms: C5_7  and  C6_8 
REMARK    3  A    between atoms: C6_8  and  O2_9 
REMARK    4  A    between atoms: O2_9  and  C7_10 
REMARK    5  A    between atoms: C8_12  and  N3_13 
REMARK    6  A    between atoms: N3_13  and  C9_14 
REMARK    7  A    between atoms: C15_25  and  C16_26 
REMARK    8  A    between atoms: C17_28  and  C18_29 
ROOT
HETATM    1  C7  UNL     1      24.265   1.080  52.457  1.00  0.00     0.193 C 
HETATM    2  N2  UNL     1      24.938   1.844  51.811  1.00  0.00    -0.038 NA
HETATM    3  C8  UNL     1      26.223   2.223  51.599  1.00  0.00     0.726 C 
HETATM    4  N6  UNL     1      27.496   2.397  51.893  1.00  0.00    -0.090 NA
HETATM    5  C13 UNL     1      28.050   2.021  53.168  1.00  0.00     0.273 C 
HETATM    6  N7  UNL     1      27.948   0.586  53.406  1.00  0.00    -0.237 NA
HETATM    7  N8  UNL     1      26.649   0.118  53.429  1.00  0.00    -0.235 NA
HETATM    8  C14 UNL     1      25.489  -0.465  53.946  1.00  0.00     0.088 C 
HETATM    9  C15 UNL     1      24.336  -0.008  53.480  1.00  0.00     0.035 C 
HETATM   10  H17 UNL     1      28.533   0.067  52.683  1.00  0.00     0.142 HD
HETATM   11  H18 UNL     1      27.201   0.034  54.348  1.00  0.00     0.146 HD
ENDROOT
BRANCH   1  12
HETATM   12  O2  UNL     1      23.024   1.474  51.951  1.00  0.00    -0.333 OA
BRANCH  12  13
HETATM   13  C6  UNL     1      22.709   1.457  50.545  1.00  0.00     0.184 C 
BRANCH  13  14
HETATM   14  C5  UNL     1      21.338   0.972  50.366  1.00  0.00     0.039 C 
HETATM   15  C4  UNL     1      20.583   0.720  51.656  1.00  0.00     0.133 C 
HETATM   16  N1  UNL     1      19.252   0.458  51.145  1.00  0.00    -0.348 N 
HETATM   17  C3  UNL     1      18.350  -0.303  51.909  1.00  0.00     0.242 C 
HETATM   18  C19 UNL     1      19.076   1.085  49.827  1.00  0.00     0.136 C 
HETATM   19  O1  UNL     1      18.858  -0.660  52.988  1.00  0.00    -0.268 OA
HETATM   20  C17 UNL     1      20.371   1.876  49.662  1.00  0.00     0.076 C 
BRANCH  17  21
HETATM   21  C2  UNL     1      16.982  -0.740  51.688  1.00  0.00     0.064 C 
HETATM   22  C1  UNL     1      16.290   0.330  52.109  1.00  0.00     0.017 C 
ENDBRANCH  17  21
BRANCH  20  23
HETATM   23  C18 UNL     1      20.138   3.188  50.377  1.00  0.00     0.359 C 
HETATM   24  F2  UNL     1      20.914   4.217  49.879  1.00  0.00    -0.214 F 
HETATM   25  F3  UNL     1      18.820   3.533  50.191  1.00  0.00    -0.214 F 
ENDBRANCH  20  23
ENDBRANCH  13  14
ENDBRANCH  12  13
ENDBRANCH   1  12
BRANCH   9  26
HETATM   26  C16 UNL     1      23.061  -0.566  53.985  1.00  0.00     0.266 C 
HETATM   27  F1  UNL     1      22.548  -1.517  53.107  1.00  0.00    -0.250 F 
ENDBRANCH   9  26
BRANCH   3  28
HETATM   28  N3  UNL     1      26.238   2.778  50.261  1.00  0.00    -0.185 N 
HETATM   29  H9  UNL     1      26.257   2.220  49.348  1.00  0.00     0.184 HD
BRANCH  28  30
HETATM   30  C9  UNL     1      26.219   4.159  49.841  1.00  0.00     0.085 A 
HETATM   31  C10 UNL     1      25.430   5.285  50.086  1.00  0.00     0.170 A 
HETATM   32  N4  UNL     1      25.925   6.314  49.407  1.00  0.00    -0.183 NA
HETATM   33  N5  UNL     1      26.989   5.981  48.719  1.00  0.00    -0.283 N 
HETATM   34  C11 UNL     1      27.692   6.941  47.916  1.00  0.00     0.179 C 
HETATM   35  C12 UNL     1      27.177   4.689  48.968  1.00  0.00     0.143 A 
ENDBRANCH  28  30
ENDBRANCH   3  28
TORSDOF 8
ENDMDL
