MODEL 1
REMARK VINA RESULT:      -7.0      0.000      0.000
REMARK  5 active torsions:
REMARK  status: ('A' for Active; 'I' for Inactive)
REMARK    1  A    between atoms: C2_3  and  N2_4 
REMARK    2  A    between atoms: N2_4  and  C3_5 
REMARK    3  A    between atoms: C6_8  and  O1_9 
REMARK    4  A    between atoms: O1_9  and  C7_10 
REMARK    5  A    between atoms: C7_10  and  C9_12 
ROOT
HETATM    1  C3  UNL     1      25.921   0.566  54.223  1.00  0.00     0.033 A 
HETATM    2  C4  UNL     1      24.830  -0.096  53.697  1.00  0.00     0.032 A 
HETATM    3  C5  UNL     1      23.924   0.514  52.859  1.00  0.00     0.039 A 
HETATM    4  C6  UNL     1      24.063   1.834  52.500  1.00  0.00     0.069 A 
HETATM    5  C14 UNL     1      25.164   2.516  53.026  1.00  0.00     0.039 A 
HETATM    6  C15 UNL     1      26.079   1.901  53.871  1.00  0.00     0.032 A 
ENDROOT
BRANCH   4   7
HETATM    7  O1  UNL     1      23.358   2.712  51.707  1.00  0.00    -0.342 OA
BRANCH   7   8
HETATM    8  C7  UNL     1      23.855   3.153  50.493  1.00  0.00     0.161 C 
HETATM    9  C8  UNL     1      22.885   2.831  49.358  1.00  0.00     0.045 C 
BRANCH   8  10
HETATM   10  C9  UNL     1      24.137   4.616  50.495  1.00  0.00     0.017 A 
HETATM   11  C10 UNL     1      23.277   5.584  50.970  1.00  0.00     0.062 A 
HETATM   12 CL1  UNL     1      21.739   5.019  51.615  1.00  0.00    -0.082 Cl
HETATM   13  C11 UNL     1      23.628   6.920  50.930  1.00  0.00     0.140 A 
HETATM   14  N3  UNL     1      24.828   7.245  50.416  1.00  0.00    -0.270 NA
HETATM   15  C12 UNL     1      25.706   6.341  49.940  1.00  0.00     0.140 A 
HETATM   16  C13 UNL     1      25.373   4.989  49.970  1.00  0.00     0.062 A 
HETATM   17 CL2  UNL     1      26.501   3.776  49.354  1.00  0.00    -0.082 Cl
ENDBRANCH   8  10
ENDBRANCH   7   8
ENDBRANCH   4   7
BRANCH   1  18
HETATM   18  N2  UNL     1      26.809  -0.137  55.081  1.00  0.00    -0.351 N 
HETATM   19  H5  UNL     1      26.316  -0.641  55.833  1.00  0.00     0.166 HD
BRANCH  18  20
HETATM   20  C2  UNL     1      28.228  -0.112  54.874  1.00  0.00     0.200 C 
HETATM   21  N1  UNL     1      28.652  -0.925  53.961  1.00  0.00    -0.289 NA
HETATM   22  C1  UNL     1      30.044  -1.006  53.647  1.00  0.00     0.179 C 
ENDBRANCH  18  20
ENDBRANCH   1  18
TORSDOF 5
ENDMDL
MODEL 2
REMARK VINA RESULT:      -6.9      1.266      1.796
REMARK  5 active torsions:
REMARK  status: ('A' for Active; 'I' for Inactive)
REMARK    1  A    between atoms: C2_3  and  N2_4 
REMARK    2  A    between atoms: N2_4  and  C3_5 
REMARK    3  A    between atoms: C6_8  and  O1_9 
REMARK    4  A    between atoms: O1_9  and  C7_10 
REMARK    5  A    between atoms: C7_10  and  C9_12 
ROOT
HETATM    1  C3  UNL     1      25.936   0.339  54.406  1.00  0.00     0.033 A 
HETATM    2  C4  UNL     1      25.931   1.615  53.881  1.00  0.00     0.032 A 
HETATM    3  C5  UNL     1      24.940   2.069  53.042  1.00  0.00     0.039 A 
HETATM    4  C6  UNL     1      23.887   1.261  52.679  1.00  0.00     0.069 A 
HETATM    5  C14 UNL     1      23.880  -0.035  53.205  1.00  0.00     0.039 A 
HETATM    6  C15 UNL     1      24.882  -0.493  54.052  1.00  0.00     0.032 A 
ENDROOT
BRANCH   4   7
HETATM    7  O1  UNL     1      22.771   1.404  51.886  1.00  0.00    -0.342 OA
BRANCH   7   8
HETATM    8  C7  UNL     1      22.837   2.012  50.645  1.00  0.00     0.161 C 
HETATM    9  C8  UNL     1      21.763   1.461  49.710  1.00  0.00     0.045 C 
BRANCH   8  10
HETATM   10  C9  UNL     1      22.695   3.493  50.733  1.00  0.00     0.017 A 
HETATM   11  C10 UNL     1      21.637   4.150  51.325  1.00  0.00     0.062 A 
HETATM   12 CL1  UNL     1      20.375   3.138  52.019  1.00  0.00    -0.082 Cl
HETATM   13  C11 UNL     1      21.594   5.532  51.357  1.00  0.00     0.140 A 
HETATM   14  N3  UNL     1      22.612   6.211  50.797  1.00  0.00    -0.270 NA
HETATM   15  C12 UNL     1      23.668   5.619  50.206  1.00  0.00     0.140 A 
HETATM   16  C13 UNL     1      23.732   4.229  50.162  1.00  0.00     0.062 A 
HETATM   17 CL2  UNL     1      25.104   3.421  49.395  1.00  0.00    -0.082 Cl
ENDBRANCH   8  10
ENDBRANCH   7   8
ENDBRANCH   4   7
BRANCH   1  18
HETATM   18  N2  UNL     1      26.999  -0.052  55.265  1.00  0.00    -0.351 N 
HETATM   19  H5  UNL     1      26.664  -0.384  56.182  1.00  0.00     0.166 HD
BRANCH  18  20
HETATM   20  C2  UNL     1      28.369   0.027  54.847  1.00  0.00     0.200 C 
HETATM   21  N1  UNL     1      28.726  -0.885  54.002  1.00  0.00    -0.289 NA
HETATM   22  C1  UNL     1      30.063  -0.928  53.499  1.00  0.00     0.179 C 
ENDBRANCH  18  20
ENDBRANCH   1  18
TORSDOF 5
ENDMDL
MODEL 3
REMARK VINA RESULT:      -6.6      2.546      3.532
REMARK  5 active torsions:
REMARK  status: ('A' for Active; 'I' for Inactive)
REMARK    1  A    between atoms: C2_3  and  N2_4 
REMARK    2  A    between atoms: N2_4  and  C3_5 
REMARK    3  A    between atoms: C6_8  and  O1_9 
REMARK    4  A    between atoms: O1_9  and  C7_10 
REMARK    5  A    between atoms: C7_10  and  C9_12 
ROOT
HETATM    1  C3  UNL     1      25.983  -0.421  52.919  1.00  0.00     0.033 A 
HETATM    2  C4  UNL     1      26.418   0.489  51.978  1.00  0.00     0.032 A 
HETATM    3  C5  UNL     1      25.737   1.652  51.698  1.00  0.00     0.039 A 
HETATM    4  C6  UNL     1      24.569   1.968  52.353  1.00  0.00     0.069 A 
HETATM    5  C14 UNL     1      24.117   1.054  53.308  1.00  0.00     0.039 A 
HETATM    6  C15 UNL     1      24.804  -0.120  53.591  1.00  0.00     0.032 A 
ENDROOT
BRANCH   4   7
HETATM    7  O1  UNL     1      23.676   3.015  52.309  1.00  0.00    -0.342 OA
BRANCH   7   8
HETATM    8  C7  UNL     1      22.373   2.840  51.875  1.00  0.00     0.161 C 
HETATM    9  C8  UNL     1      21.527   4.075  52.179  1.00  0.00     0.045 C 
BRANCH   8  10
HETATM   10  C9  UNL     1      22.299   2.542  50.417  1.00  0.00     0.017 A 
HETATM   11  C10 UNL     1      22.804   3.351  49.421  1.00  0.00     0.062 A 
HETATM   12 CL1  UNL     1      23.589   4.838  49.940  1.00  0.00    -0.082 Cl
HETATM   13  C11 UNL     1      22.686   2.988  48.091  1.00  0.00     0.140 A 
HETATM   14  N3  UNL     1      22.068   1.829  47.803  1.00  0.00    -0.270 NA
HETATM   15  C12 UNL     1      21.557   1.003  48.737  1.00  0.00     0.140 A 
HETATM   16  C13 UNL     1      21.664   1.348  50.082  1.00  0.00     0.062 A 
HETATM   17 CL2  UNL     1      21.006   0.287  51.331  1.00  0.00    -0.082 Cl
ENDBRANCH   8  10
ENDBRANCH   7   8
ENDBRANCH   4   7
BRANCH   1  18
HETATM   18  N2  UNL     1      26.745  -1.599  53.148  1.00  0.00    -0.351 N 
HETATM   19  H5  UNL     1      26.160  -2.400  53.427  1.00  0.00     0.166 HD
BRANCH  18  20
HETATM   20  C2  UNL     1      28.171  -1.611  52.992  1.00  0.00     0.200 C 
HETATM   21  N1  UNL     1      28.818  -0.984  53.921  1.00  0.00    -0.289 NA
HETATM   22  C1  UNL     1      30.245  -0.915  53.894  1.00  0.00     0.179 C 
ENDBRANCH  18  20
ENDBRANCH   1  18
TORSDOF 5
ENDMDL
MODEL 4
REMARK VINA RESULT:      -6.6      3.299      4.750
REMARK  5 active torsions:
REMARK  status: ('A' for Active; 'I' for Inactive)
REMARK    1  A    between atoms: C2_3  and  N2_4 
REMARK    2  A    between atoms: N2_4  and  C3_5 
REMARK    3  A    between atoms: C6_8  and  O1_9 
REMARK    4  A    between atoms: O1_9  and  C7_10 
REMARK    5  A    between atoms: C7_10  and  C9_12 
ROOT
HETATM    1  C3  UNL     1      25.890   0.579  54.260  1.00  0.00     0.033 A 
HETATM    2  C4  UNL     1      25.890   1.928  53.972  1.00  0.00     0.032 A 
HETATM    3  C5  UNL     1      24.929   2.520  53.185  1.00  0.00     0.039 A 
HETATM    4  C6  UNL     1      23.906   1.784  52.634  1.00  0.00     0.069 A 
HETATM    5  C14 UNL     1      23.894   0.415  52.918  1.00  0.00     0.039 A 
HETATM    6  C15 UNL     1      24.864  -0.183  53.713  1.00  0.00     0.032 A 
ENDROOT
BRANCH   4   7
HETATM    7  O1  UNL     1      22.823   2.061  51.830  1.00  0.00    -0.342 OA
BRANCH   7   8
HETATM    8  C7  UNL     1      21.594   2.409  52.362  1.00  0.00     0.161 C 
HETATM    9  C8  UNL     1      21.312   3.895  52.156  1.00  0.00     0.045 C 
BRANCH   8  10
HETATM   10  C9  UNL     1      20.479   1.613  51.776  1.00  0.00     0.017 A 
HETATM   11  C10 UNL     1      19.996   1.761  50.493  1.00  0.00     0.062 A 
HETATM   12 CL1  UNL     1      20.772   2.988  49.498  1.00  0.00    -0.082 Cl
HETATM   13  C11 UNL     1      18.954   0.974  50.037  1.00  0.00     0.140 A 
HETATM   14  N3  UNL     1      18.431   0.064  50.880  1.00  0.00    -0.270 NA
HETATM   15  C12 UNL     1      18.866  -0.121  52.141  1.00  0.00     0.140 A 
HETATM   16  C13 UNL     1      19.914   0.661  52.621  1.00  0.00     0.062 A 
HETATM   17 CL2  UNL     1      20.508   0.443  54.271  1.00  0.00    -0.082 Cl
ENDBRANCH   8  10
ENDBRANCH   7   8
ENDBRANCH   4   7
BRANCH   1  18
HETATM   18  N2  UNL     1      26.919   0.045  55.082  1.00  0.00    -0.351 N 
HETATM   19  H5  UNL     1      26.558  -0.333  55.970  1.00  0.00     0.166 HD
BRANCH  18  20
HETATM   20  C2  UNL     1      28.292   0.059  54.668  1.00  0.00     0.200 C 
HETATM   21  N1  UNL     1      28.662  -0.986  54.001  1.00  0.00    -0.289 NA
HETATM   22  C1  UNL     1      30.004  -1.108  53.525  1.00  0.00     0.179 C 
ENDBRANCH  18  20
ENDBRANCH   1  18
TORSDOF 5
ENDMDL
MODEL 5
REMARK VINA RESULT:      -6.5      2.630      6.962
REMARK  5 active torsions:
REMARK  status: ('A' for Active; 'I' for Inactive)
REMARK    1  A    between atoms: C2_3  and  N2_4 
REMARK    2  A    between atoms: N2_4  and  C3_5 
REMARK    3  A    between atoms: C6_8  and  O1_9 
REMARK    4  A    between atoms: O1_9  and  C7_10 
REMARK    5  A    between atoms: C7_10  and  C9_12 
ROOT
HETATM    1  C3  UNL     1      26.623   5.874  48.709  1.00  0.00     0.033 A 
HETATM    2  C4  UNL     1      25.456   6.060  49.421  1.00  0.00     0.032 A 
HETATM    3  C5  UNL     1      24.925   5.093  50.243  1.00  0.00     0.039 A 
HETATM    4  C6  UNL     1      25.541   3.873  50.398  1.00  0.00     0.069 A 
HETATM    5  C14 UNL     1      26.724   3.671  49.682  1.00  0.00     0.039 A 
HETATM    6  C15 UNL     1      27.261   4.648  48.851  1.00  0.00     0.032 A 
ENDROOT
BRANCH   4   7
HETATM    7  O1  UNL     1      25.280   2.729  51.119  1.00  0.00    -0.342 OA
BRANCH   7   8
HETATM    8  C7  UNL     1      25.555   2.647  52.473  1.00  0.00     0.161 C 
HETATM    9  C8  UNL     1      24.351   3.092  53.301  1.00  0.00     0.045 C 
BRANCH   8  10
HETATM   10  C9  UNL     1      25.951   1.271  52.886  1.00  0.00     0.017 A 
HETATM   11  C10 UNL     1      25.115   0.175  52.881  1.00  0.00     0.062 A 
HETATM   12 CL1  UNL     1      23.462   0.451  52.343  1.00  0.00    -0.082 Cl
HETATM   13  C11 UNL     1      25.576  -1.065  53.284  1.00  0.00     0.140 A 
HETATM   14  N3  UNL     1      26.858  -1.167  53.678  1.00  0.00    -0.270 NA
HETATM   15  C12 UNL     1      27.717  -0.129  53.701  1.00  0.00     0.140 A 
HETATM   16  C13 UNL     1      27.274   1.129  53.300  1.00  0.00     0.062 A 
HETATM   17 CL2  UNL     1      28.374   2.511  53.318  1.00  0.00    -0.082 Cl
ENDBRANCH   8  10
ENDBRANCH   7   8
ENDBRANCH   4   7
BRANCH   1  18
HETATM   18  N2  UNL     1      27.105   6.924  47.881  1.00  0.00    -0.351 N 
HETATM   19  H5  UNL     1      26.361   7.346  47.306  1.00  0.00     0.166 HD
BRANCH  18  20
HETATM   20  C2  UNL     1      28.486   7.311  47.889  1.00  0.00     0.200 C 
HETATM   21  N1  UNL     1      28.777   8.243  48.737  1.00  0.00    -0.289 NA
HETATM   22  C1  UNL     1      30.117   8.728  48.855  1.00  0.00     0.179 C 
ENDBRANCH  18  20
ENDBRANCH   1  18
TORSDOF 5
ENDMDL
MODEL 6
REMARK VINA RESULT:      -6.5      0.334      2.238
REMARK  5 active torsions:
REMARK  status: ('A' for Active; 'I' for Inactive)
REMARK    1  A    between atoms: C2_3  and  N2_4 
REMARK    2  A    between atoms: N2_4  and  C3_5 
REMARK    3  A    between atoms: C6_8  and  O1_9 
REMARK    4  A    between atoms: O1_9  and  C7_10 
REMARK    5  A    between atoms: C7_10  and  C9_12 
ROOT
HETATM    1  C3  UNL     1      25.851   0.445  54.085  1.00  0.00     0.033 A 
HETATM    2  C4  UNL     1      26.023   1.802  53.902  1.00  0.00     0.032 A 
HETATM    3  C5  UNL     1      25.225   2.546  53.063  1.00  0.00     0.039 A 
HETATM    4  C6  UNL     1      24.201   1.964  52.352  1.00  0.00     0.069 A 
HETATM    5  C14 UNL     1      24.016   0.589  52.528  1.00  0.00     0.039 A 
HETATM    6  C15 UNL     1      24.822  -0.162  53.376  1.00  0.00     0.032 A 
ENDROOT
BRANCH   4   7
HETATM    7  O1  UNL     1      23.252   2.410  51.460  1.00  0.00    -0.342 OA
BRANCH   7   8
HETATM    8  C7  UNL     1      23.606   2.950  50.236  1.00  0.00     0.161 C 
HETATM    9  C8  UNL     1      22.477   2.784  49.221  1.00  0.00     0.045 C 
BRANCH   8  10
HETATM   10  C9  UNL     1      23.964   4.393  50.337  1.00  0.00     0.017 A 
HETATM   11  C10 UNL     1      25.176   4.932  49.964  1.00  0.00     0.062 A 
HETATM   12 CL1  UNL     1      26.372   3.809  49.326  1.00  0.00    -0.082 Cl
HETATM   13  C11 UNL     1      25.416   6.288  50.096  1.00  0.00     0.140 A 
HETATM   14  N3  UNL     1      24.433   7.059  50.596  1.00  0.00    -0.270 NA
HETATM   15  C12 UNL     1      23.230   6.584  50.975  1.00  0.00     0.140 A 
HETATM   16  C13 UNL     1      22.968   5.222  50.851  1.00  0.00     0.062 A 
HETATM   17 CL2  UNL     1      21.401   4.566  51.338  1.00  0.00    -0.082 Cl
ENDBRANCH   8  10
ENDBRANCH   7   8
ENDBRANCH   4   7
BRANCH   1  18
HETATM   18  N2  UNL     1      26.719  -0.250  54.970  1.00  0.00    -0.351 N 
HETATM   19  H5  UNL     1      26.207  -0.808  55.668  1.00  0.00     0.166 HD
BRANCH  18  20
HETATM   20  C2  UNL     1      28.145  -0.147  54.856  1.00  0.00     0.200 C 
HETATM   21  N1  UNL     1      28.670  -0.928  53.967  1.00  0.00    -0.289 NA
HETATM   22  C1  UNL     1      30.082  -0.932  53.744  1.00  0.00     0.179 C 
ENDBRANCH  18  20
ENDBRANCH   1  18
TORSDOF 5
ENDMDL
MODEL 7
REMARK VINA RESULT:      -6.4      2.611      7.161
REMARK  5 active torsions:
REMARK  status: ('A' for Active; 'I' for Inactive)
REMARK    1  A    between atoms: C2_3  and  N2_4 
REMARK    2  A    between atoms: N2_4  and  C3_5 
REMARK    3  A    between atoms: C6_8  and  O1_9 
REMARK    4  A    between atoms: O1_9  and  C7_10 
REMARK    5  A    between atoms: C7_10  and  C9_12 
ROOT
HETATM    1  C3  UNL     1      25.239   4.747  50.126  1.00  0.00     0.033 A 
HETATM    2  C4  UNL     1      24.271   4.147  50.904  1.00  0.00     0.032 A 
HETATM    3  C5  UNL     1      24.435   2.901  51.464  1.00  0.00     0.039 A 
HETATM    4  C6  UNL     1      25.590   2.179  51.271  1.00  0.00     0.069 A 
HETATM    5  C14 UNL     1      26.580   2.776  50.484  1.00  0.00     0.039 A 
HETATM    6  C15 UNL     1      26.414   4.035  49.919  1.00  0.00     0.032 A 
ENDROOT
BRANCH   4   7
HETATM    7  O1  UNL     1      26.055   0.948  51.677  1.00  0.00    -0.342 OA
BRANCH   7   8
HETATM    8  C7  UNL     1      26.327   0.679  53.007  1.00  0.00     0.161 C 
HETATM    9  C8  UNL     1      25.254  -0.225  53.610  1.00  0.00     0.045 C 
BRANCH   8  10
HETATM   10  C9  UNL     1      27.663   0.044  53.193  1.00  0.00     0.017 A 
HETATM   11  C10 UNL     1      27.938  -1.289  52.978  1.00  0.00     0.062 A 
HETATM   12 CL1  UNL     1      26.593  -2.293  52.447  1.00  0.00    -0.082 Cl
HETATM   13  C11 UNL     1      29.213  -1.787  53.178  1.00  0.00     0.140 A 
HETATM   14  N3  UNL     1      30.170  -0.933  53.585  1.00  0.00    -0.270 NA
HETATM   15  C12 UNL     1      29.955   0.378  53.809  1.00  0.00     0.140 A 
HETATM   16  C13 UNL     1      28.678   0.900  53.614  1.00  0.00     0.062 A 
HETATM   17 CL2  UNL     1      28.362   2.615  53.898  1.00  0.00    -0.082 Cl
ENDBRANCH   8  10
ENDBRANCH   7   8
ENDBRANCH   4   7
BRANCH   1  18
HETATM   18  N2  UNL     1      24.991   6.038  49.585  1.00  0.00    -0.351 N 
HETATM   19  H5  UNL     1      24.239   6.033  48.880  1.00  0.00     0.166 HD
BRANCH  18  20
HETATM   20  C2  UNL     1      25.738   7.186  50.011  1.00  0.00     0.200 C 
HETATM   21  N1  UNL     1      26.696   7.530  49.212  1.00  0.00    -0.289 NA
HETATM   22  C1  UNL     1      27.523   8.657  49.510  1.00  0.00     0.179 C 
ENDBRANCH  18  20
ENDBRANCH   1  18
TORSDOF 5
ENDMDL
MODEL 8
REMARK VINA RESULT:      -6.4      2.436      3.436
REMARK  5 active torsions:
REMARK  status: ('A' for Active; 'I' for Inactive)
REMARK    1  A    between atoms: C2_3  and  N2_4 
REMARK    2  A    between atoms: N2_4  and  C3_5 
REMARK    3  A    between atoms: C6_8  and  O1_9 
REMARK    4  A    between atoms: O1_9  and  C7_10 
REMARK    5  A    between atoms: C7_10  and  C9_12 
ROOT
HETATM    1  C3  UNL     1      25.779   0.470  54.230  1.00  0.00     0.033 A 
HETATM    2  C4  UNL     1      25.823   1.818  53.940  1.00  0.00     0.032 A 
HETATM    3  C5  UNL     1      24.868   2.444  53.171  1.00  0.00     0.039 A 
HETATM    4  C6  UNL     1      23.807   1.744  52.644  1.00  0.00     0.069 A 
HETATM    5  C14 UNL     1      23.751   0.378  52.930  1.00  0.00     0.039 A 
HETATM    6  C15 UNL     1      24.715  -0.254  53.707  1.00  0.00     0.032 A 
ENDROOT
BRANCH   4   7
HETATM    7  O1  UNL     1      22.719   2.060  51.861  1.00  0.00    -0.342 OA
BRANCH   7   8
HETATM    8  C7  UNL     1      22.743   3.129  50.982  1.00  0.00     0.161 C 
HETATM    9  C8  UNL     1      23.773   2.902  49.878  1.00  0.00     0.045 C 
BRANCH   8  10
HETATM   10  C9  UNL     1      21.412   3.383  50.364  1.00  0.00     0.017 A 
HETATM   11  C10 UNL     1      20.674   2.449  49.669  1.00  0.00     0.062 A 
HETATM   12 CL1  UNL     1      21.384   0.845  49.514  1.00  0.00    -0.082 Cl
HETATM   13  C11 UNL     1      19.444   2.780  49.130  1.00  0.00     0.140 A 
HETATM   14  N3  UNL     1      18.993   4.035  49.306  1.00  0.00    -0.270 NA
HETATM   15  C12 UNL     1      19.672   4.986  49.977  1.00  0.00     0.140 A 
HETATM   16  C13 UNL     1      20.913   4.674  50.528  1.00  0.00     0.062 A 
HETATM   17 CL2  UNL     1      21.830   5.897  51.414  1.00  0.00    -0.082 Cl
ENDBRANCH   8  10
ENDBRANCH   7   8
ENDBRANCH   4   7
BRANCH   1  18
HETATM   18  N2  UNL     1      26.805  -0.099  55.032  1.00  0.00    -0.351 N 
HETATM   19  H5  UNL     1      26.432  -0.611  55.845  1.00  0.00     0.166 HD
BRANCH  18  20
HETATM   20  C2  UNL     1      28.191   0.055  54.697  1.00  0.00     0.200 C 
HETATM   21  N1  UNL     1      28.689  -0.920  54.008  1.00  0.00    -0.289 NA
HETATM   22  C1  UNL     1      30.059  -0.901  53.602  1.00  0.00     0.179 C 
ENDBRANCH  18  20
ENDBRANCH   1  18
TORSDOF 5
ENDMDL
MODEL 9
REMARK VINA RESULT:      -6.3      3.382      6.735
REMARK  5 active torsions:
REMARK  status: ('A' for Active; 'I' for Inactive)
REMARK    1  A    between atoms: C2_3  and  N2_4 
REMARK    2  A    between atoms: N2_4  and  C3_5 
REMARK    3  A    between atoms: C6_8  and  O1_9 
REMARK    4  A    between atoms: O1_9  and  C7_10 
REMARK    5  A    between atoms: C7_10  and  C9_12 
ROOT
HETATM    1  C3  UNL     1      26.293   5.378  48.922  1.00  0.00     0.033 A 
HETATM    2  C4  UNL     1      26.954   4.220  49.275  1.00  0.00     0.032 A 
HETATM    3  C5  UNL     1      26.329   3.170  49.909  1.00  0.00     0.039 A 
HETATM    4  C6  UNL     1      24.991   3.226  50.228  1.00  0.00     0.069 A 
HETATM    5  C14 UNL     1      24.310   4.394  49.876  1.00  0.00     0.039 A 
HETATM    6  C15 UNL     1      24.941   5.454  49.236  1.00  0.00     0.032 A 
ENDROOT
BRANCH   4   7
HETATM    7  O1  UNL     1      24.095   2.378  50.840  1.00  0.00    -0.342 OA
BRANCH   7   8
HETATM    8  C7  UNL     1      24.309   1.899  52.120  1.00  0.00     0.161 C 
HETATM    9  C8  UNL     1      24.545   3.048  53.099  1.00  0.00     0.045 C 
BRANCH   8  10
HETATM   10  C9  UNL     1      23.175   1.066  52.609  1.00  0.00     0.017 A 
HETATM   11  C10 UNL     1      21.849   1.442  52.575  1.00  0.00     0.062 A 
HETATM   12 CL1  UNL     1      21.500   3.030  51.901  1.00  0.00    -0.082 Cl
HETATM   13  C11 UNL     1      20.864   0.597  53.053  1.00  0.00     0.140 A 
HETATM   14  N3  UNL     1      21.238  -0.597  53.548  1.00  0.00    -0.270 NA
HETATM   15  C12 UNL     1      22.518  -1.014  53.604  1.00  0.00     0.140 A 
HETATM   16  C13 UNL     1      23.526  -0.179  53.128  1.00  0.00     0.062 A 
HETATM   17 CL2  UNL     1      25.215  -0.695  53.186  1.00  0.00    -0.082 Cl
ENDBRANCH   8  10
ENDBRANCH   7   8
ENDBRANCH   4   7
BRANCH   1  18
HETATM   18  N2  UNL     1      27.013   6.415  48.270  1.00  0.00    -0.351 N 
HETATM   19  H5  UNL     1      27.338   6.140  47.332  1.00  0.00     0.166 HD
BRANCH  18  20
HETATM   20  C2  UNL     1      27.230   7.686  48.898  1.00  0.00     0.200 C 
HETATM   21  N1  UNL     1      28.446   8.122  48.821  1.00  0.00    -0.289 NA
HETATM   22  C1  UNL     1      28.809   9.376  49.403  1.00  0.00     0.179 C 
ENDBRANCH  18  20
ENDBRANCH   1  18
TORSDOF 5
ENDMDL
