MODEL 1
REMARK VINA RESULT:      -8.0      0.000      0.000
REMARK  7 active torsions:
REMARK  status: ('A' for Active; 'I' for Inactive)
REMARK    1  A    between atoms: O1_2  and  C2_3 
REMARK    2  A    between atoms: C2_3  and  C3_4 
REMARK    3  A    between atoms: C4_5  and  O2_6 
REMARK    4  A    between atoms: O2_6  and  C5_7 
REMARK    5  A    between atoms: C19_28  and  C20_29 
REMARK    6  A    between atoms: C20_29  and  C21_30 
REMARK    7  A    between atoms: C21_30  and  O5_31 
ROOT
HETATM    1  C5  UNL     1      23.709   2.111  50.875  1.00  0.00     0.062 C 
HETATM    2  C6  UNL     1      23.664   3.092  51.857  1.00  0.00     0.052 C 
HETATM    3  C7  UNL     1      23.659   4.049  53.019  1.00  0.00     0.284 C 
HETATM    4  N1  UNL     1      22.625   5.186  52.808  1.00  0.00     0.158 N 
HETATM    5  C8  UNL     1      21.648   4.660  51.726  1.00  0.00     0.500 A 
HETATM    6  O3  UNL     1      20.916   4.121  50.894  1.00  0.00    -0.120 OA
HETATM    7  N2  UNL     1      20.783   5.316  50.712  1.00  0.00     0.146 N 
HETATM    8  C9  UNL     1      20.061   4.724  49.542  1.00  0.00     0.206 C 
HETATM    9  C10 UNL     1      20.769   4.300  48.405  1.00  0.00     0.113 C 
HETATM   10  O4  UNL     1      21.787   3.989  47.443  1.00  0.00    -0.320 OA
HETATM   11  C11 UNL     1      21.862   2.583  47.017  1.00  0.00     0.139 C 
HETATM   12  C12 UNL     1      22.582   2.518  48.065  1.00  0.00     0.004 C 
HETATM   13  C13 UNL     1      22.851   3.697  48.862  1.00  0.00     0.026 C 
HETATM   14  C14 UNL     1      23.248   2.791  49.737  1.00  0.00     0.109 C 
HETATM   15  P1  UNL     1      19.587   3.552  47.135  1.00  0.00    -0.062 P 
HETATM   16  C15 UNL     1      17.954   4.422  47.468  1.00  0.00     0.065 C 
HETATM   17  C16 UNL     1      17.985   4.790  48.850  1.00  0.00    -0.020 C 
HETATM   18  C17 UNL     1      18.676   5.002  49.932  1.00  0.00     0.040 C 
HETATM   19  H8  UNL     1      22.426   4.429  52.284  1.00  0.00     0.423 HD
HETATM   20  H9  UNL     1      20.712   6.373  51.009  1.00  0.00     0.331 HD
HETATM   21  H14 UNL     1      19.356   2.160  47.653  1.00  0.00     0.065 HD
ENDROOT
BRANCH   1  22
HETATM   22  O2  UNL     1      24.134   1.439  51.872  1.00  0.00    -0.327 OA
BRANCH  22  23
HETATM   23  C4  UNL     1      24.405   0.633  52.761  1.00  0.00     0.180 A 
HETATM   24  C3  UNL     1      25.755   0.598  52.471  1.00  0.00     0.067 A 
HETATM   25  C19 UNL     1      26.557  -0.260  53.297  1.00  0.00     0.072 A 
HETATM   26  N4  UNL     1      25.943  -0.944  54.263  1.00  0.00    -0.241 NA
HETATM   27  C18 UNL     1      24.591  -0.886  54.520  1.00  0.00     0.236 A 
HETATM   28  N3  UNL     1      23.816  -0.068  53.738  1.00  0.00    -0.217 NA
BRANCH  24  29
HETATM   29  C2  UNL     1      26.543   1.133  51.570  1.00  0.00     0.152 C 
BRANCH  29  30
HETATM   30  O1  UNL     1      27.131   2.372  51.488  1.00  0.00    -0.367 OA
HETATM   31  C1  UNL     1      26.906   3.289  50.442  1.00  0.00     0.208 C 
ENDBRANCH  29  30
ENDBRANCH  24  29
BRANCH  25  32
HETATM   32  C20 UNL     1      27.825  -0.539  53.444  1.00  0.00     0.032 C 
BRANCH  32  33
HETATM   33  C21 UNL     1      28.976  -0.211  54.368  1.00  0.00     0.196 C 
BRANCH  33  34
HETATM   34  O5  UNL     1      28.580   1.076  54.927  1.00  0.00    -0.392 OA
HETATM   35  C22 UNL     1      29.262   2.042  54.223  1.00  0.00     0.201 C 
ENDBRANCH  33  34
ENDBRANCH  32  33
ENDBRANCH  25  32
ENDBRANCH  22  23
ENDBRANCH   1  22
TORSDOF 7
ENDMDL
MODEL 2
REMARK VINA RESULT:      -7.8      3.850      4.870
REMARK  7 active torsions:
REMARK  status: ('A' for Active; 'I' for Inactive)
REMARK    1  A    between atoms: O1_2  and  C2_3 
REMARK    2  A    between atoms: C2_3  and  C3_4 
REMARK    3  A    between atoms: C4_5  and  O2_6 
REMARK    4  A    between atoms: O2_6  and  C5_7 
REMARK    5  A    between atoms: C19_28  and  C20_29 
REMARK    6  A    between atoms: C20_29  and  C21_30 
REMARK    7  A    between atoms: C21_30  and  O5_31 
ROOT
HETATM    1  C5  UNL     1      20.656   1.288  52.041  1.00  0.00     0.062 C 
HETATM    2  C6  UNL     1      20.730   2.523  51.411  1.00  0.00     0.052 C 
HETATM    3  C7  UNL     1      20.940   3.884  50.802  1.00  0.00     0.284 C 
HETATM    4  N1  UNL     1      19.588   4.558  50.450  1.00  0.00     0.158 N 
HETATM    5  C8  UNL     1      18.522   3.807  51.285  1.00  0.00     0.500 A 
HETATM    6  O3  UNL     1      17.773   3.166  52.025  1.00  0.00    -0.120 OA
HETATM    7  N2  UNL     1      17.069   3.552  51.111  1.00  0.00     0.146 N 
HETATM    8  C9  UNL     1      16.169   2.605  51.841  1.00  0.00     0.206 C 
HETATM    9  C10 UNL     1      16.257   1.220  51.619  1.00  0.00     0.113 C 
HETATM   10  O4  UNL     1      16.616  -0.088  51.152  1.00  0.00    -0.320 OA
HETATM   11  C11 UNL     1      17.043  -1.045  52.186  1.00  0.00     0.139 C 
HETATM   12  C12 UNL     1      18.156  -0.467  51.969  1.00  0.00     0.004 C 
HETATM   13  C13 UNL     1      18.277   0.578  50.974  1.00  0.00     0.026 C 
HETATM   14  C14 UNL     1      19.421   0.789  51.598  1.00  0.00     0.109 C 
HETATM   15  P1  UNL     1      15.034   0.298  52.725  1.00  0.00    -0.062 P 
HETATM   16  C15 UNL     1      13.651   1.539  53.007  1.00  0.00     0.065 C 
HETATM   17  C16 UNL     1      14.256   2.829  52.884  1.00  0.00    -0.020 C 
HETATM   18  C17 UNL     1      15.249   3.560  52.466  1.00  0.00     0.040 C 
HETATM   19  H8  UNL     1      19.486   3.887  51.102  1.00  0.00     0.423 HD
HETATM   20  H9  UNL     1      16.725   4.258  50.341  1.00  0.00     0.331 HD
HETATM   21  H14 UNL     1      15.736   0.247  54.053  1.00  0.00     0.065 HD
ENDROOT
BRANCH   1  22
HETATM   22  O2  UNL     1      21.785   1.685  52.477  1.00  0.00    -0.327 OA
BRANCH  22  23
HETATM   23  C4  UNL     1      22.954   2.000  52.702  1.00  0.00     0.180 A 
HETATM   24  C3  UNL     1      23.356   0.716  53.014  1.00  0.00     0.067 A 
HETATM   25  C19 UNL     1      24.739   0.554  53.365  1.00  0.00     0.072 A 
HETATM   26  N4  UNL     1      25.511   1.642  53.364  1.00  0.00    -0.241 NA
HETATM   27  C18 UNL     1      25.072   2.909  53.052  1.00  0.00     0.236 A 
HETATM   28  N3  UNL     1      23.753   3.074  52.712  1.00  0.00    -0.217 NA
BRANCH  24  29
HETATM   29  C2  UNL     1      22.779  -0.457  53.121  1.00  0.00     0.152 C 
BRANCH  29  30
HETATM   30  O1  UNL     1      22.269  -1.131  54.204  1.00  0.00    -0.367 OA
HETATM   31  C1  UNL     1      20.956  -1.637  54.277  1.00  0.00     0.208 C 
ENDBRANCH  29  30
ENDBRANCH  24  29
BRANCH  25  32
HETATM   32  C20 UNL     1      25.551  -0.432  53.639  1.00  0.00     0.032 C 
BRANCH  32  33
HETATM   33  C21 UNL     1      27.002  -0.814  53.454  1.00  0.00     0.196 C 
BRANCH  33  34
HETATM   34  O5  UNL     1      27.552  -0.633  54.792  1.00  0.00    -0.392 OA
HETATM   35  C22 UNL     1      28.655   0.180  54.662  1.00  0.00     0.201 C 
ENDBRANCH  33  34
ENDBRANCH  32  33
ENDBRANCH  25  32
ENDBRANCH  22  23
ENDBRANCH   1  22
TORSDOF 7
ENDMDL
MODEL 3
REMARK VINA RESULT:      -7.7      3.971      7.419
REMARK  7 active torsions:
REMARK  status: ('A' for Active; 'I' for Inactive)
REMARK    1  A    between atoms: O1_2  and  C2_3 
REMARK    2  A    between atoms: C2_3  and  C3_4 
REMARK    3  A    between atoms: C4_5  and  O2_6 
REMARK    4  A    between atoms: O2_6  and  C5_7 
REMARK    5  A    between atoms: C19_28  and  C20_29 
REMARK    6  A    between atoms: C20_29  and  C21_30 
REMARK    7  A    between atoms: C21_30  and  O5_31 
ROOT
HETATM    1  C5  UNL     1      25.832   3.476  50.710  1.00  0.00     0.062 C 
HETATM    2  C6  UNL     1      24.700   3.291  49.928  1.00  0.00     0.052 C 
HETATM    3  C7  UNL     1      23.474   3.240  49.055  1.00  0.00     0.284 C 
HETATM    4  N1  UNL     1      22.548   2.061  49.453  1.00  0.00     0.158 N 
HETATM    5  C8  UNL     1      22.973   1.669  50.890  1.00  0.00     0.500 A 
HETATM    6  O3  UNL     1      23.369   1.475  52.041  1.00  0.00    -0.120 OA
HETATM    7  N2  UNL     1      22.912   0.409  51.674  1.00  0.00     0.146 N 
HETATM    8  C9  UNL     1      23.573   0.055  52.969  1.00  0.00     0.206 C 
HETATM    9  C10 UNL     1      24.956  -0.187  53.025  1.00  0.00     0.113 C 
HETATM   10  O4  UNL     1      26.345  -0.363  52.712  1.00  0.00    -0.320 OA
HETATM   11  C11 UNL     1      27.285   0.494  53.452  1.00  0.00     0.139 C 
HETATM   12  C12 UNL     1      26.988   1.288  52.503  1.00  0.00     0.004 C 
HETATM   13  C13 UNL     1      26.081   0.887  51.447  1.00  0.00     0.026 C 
HETATM   14  C14 UNL     1      26.079   2.185  51.205  1.00  0.00     0.109 C 
HETATM   15  P1  UNL     1      25.490  -0.551  54.799  1.00  0.00    -0.062 P 
HETATM   16  C15 UNL     1      23.954  -1.288  55.593  1.00  0.00     0.065 C 
HETATM   17  C16 UNL     1      22.845  -0.739  54.876  1.00  0.00    -0.020 C 
HETATM   18  C17 UNL     1      22.389  -0.146  53.811  1.00  0.00     0.040 C 
HETATM   19  H8  UNL     1      23.124   2.308  50.155  1.00  0.00     0.423 HD
HETATM   20  H9  UNL     1      22.214  -0.251  51.139  1.00  0.00     0.331 HD
HETATM   21  H14 UNL     1      25.587   0.814  55.421  1.00  0.00     0.065 HD
ENDROOT
BRANCH   1  22
HETATM   22  O2  UNL     1      25.661   4.668  50.294  1.00  0.00    -0.327 OA
BRANCH  22  23
HETATM   23  C4  UNL     1      25.440   5.863  50.103  1.00  0.00     0.180 A 
HETATM   24  C3  UNL     1      26.393   5.994  49.111  1.00  0.00     0.067 A 
HETATM   25  C19 UNL     1      26.523   7.300  48.527  1.00  0.00     0.072 A 
HETATM   26  N4  UNL     1      25.727   8.267  48.985  1.00  0.00    -0.241 NA
HETATM   27  C18 UNL     1      24.790   8.099  49.980  1.00  0.00     0.236 A 
HETATM   28  N3  UNL     1      24.656   6.855  50.543  1.00  0.00    -0.217 NA
BRANCH  24  29
HETATM   29  C2  UNL     1      27.290   5.218  48.552  1.00  0.00     0.152 C 
BRANCH  29  30
HETATM   30  O1  UNL     1      28.613   4.989  48.844  1.00  0.00    -0.367 OA
HETATM   31  C1  UNL     1      29.689   5.422  48.043  1.00  0.00     0.208 C 
ENDBRANCH  29  30
ENDBRANCH  24  29
BRANCH  25  32
HETATM   32  C20 UNL     1      27.195   7.853  47.553  1.00  0.00     0.032 C 
BRANCH  32  33
HETATM   33  C21 UNL     1      28.151   9.001  47.320  1.00  0.00     0.196 C 
BRANCH  33  34
HETATM   34  O5  UNL     1      29.076   8.878  48.440  1.00  0.00    -0.392 OA
HETATM   35  C22 UNL     1      29.285  10.149  48.925  1.00  0.00     0.201 C 
ENDBRANCH  33  34
ENDBRANCH  32  33
ENDBRANCH  25  32
ENDBRANCH  22  23
ENDBRANCH   1  22
TORSDOF 7
ENDMDL
MODEL 4
REMARK VINA RESULT:      -7.6      2.166      3.094
REMARK  7 active torsions:
REMARK  status: ('A' for Active; 'I' for Inactive)
REMARK    1  A    between atoms: O1_2  and  C2_3 
REMARK    2  A    between atoms: C2_3  and  C3_4 
REMARK    3  A    between atoms: C4_5  and  O2_6 
REMARK    4  A    between atoms: O2_6  and  C5_7 
REMARK    5  A    between atoms: C19_28  and  C20_29 
REMARK    6  A    between atoms: C20_29  and  C21_30 
REMARK    7  A    between atoms: C21_30  and  O5_31 
ROOT
HETATM    1  C5  UNL     1      23.512   3.083  52.174  1.00  0.00     0.062 C 
HETATM    2  C6  UNL     1      22.467   2.286  51.726  1.00  0.00     0.052 C 
HETATM    3  C7  UNL     1      21.413   1.302  51.291  1.00  0.00     0.284 C 
HETATM    4  N1  UNL     1      20.613   1.836  50.074  1.00  0.00     0.158 N 
HETATM    5  C8  UNL     1      21.496   2.949  49.456  1.00  0.00     0.500 A 
HETATM    6  O3  UNL     1      22.299   3.782  49.031  1.00  0.00    -0.120 OA
HETATM    7  N2  UNL     1      21.207   4.168  48.656  1.00  0.00     0.146 N 
HETATM    8  C9  UNL     1      22.097   5.320  48.313  1.00  0.00     0.206 C 
HETATM    9  C10 UNL     1      22.457   6.263  49.291  1.00  0.00     0.113 C 
HETATM   10  O4  UNL     1      22.607   7.008  50.508  1.00  0.00    -0.320 OA
HETATM   11  C11 UNL     1      23.987   7.191  50.984  1.00  0.00     0.139 C 
HETATM   12  C12 UNL     1      23.741   6.055  51.501  1.00  0.00     0.004 C 
HETATM   13  C13 UNL     1      22.447   5.423  51.341  1.00  0.00     0.026 C 
HETATM   14  C14 UNL     1      23.112   4.368  51.777  1.00  0.00     0.109 C 
HETATM   15  P1  UNL     1      23.627   7.555  48.562  1.00  0.00    -0.062 P 
HETATM   16  C15 UNL     1      23.172   7.601  46.739  1.00  0.00     0.065 C 
HETATM   17  C16 UNL     1      22.649   6.305  46.436  1.00  0.00    -0.020 C 
HETATM   18  C17 UNL     1      22.141   5.182  46.854  1.00  0.00     0.040 C 
HETATM   19  H8  UNL     1      21.452   2.256  50.154  1.00  0.00     0.423 HD
HETATM   20  H9  UNL     1      20.177   4.055  48.288  1.00  0.00     0.331 HD
HETATM   21  H14 UNL     1      24.961   6.862  48.574  1.00  0.00     0.065 HD
ENDROOT
BRANCH   1  22
HETATM   22  O2  UNL     1      23.930   1.942  52.559  1.00  0.00    -0.327 OA
BRANCH  22  23
HETATM   23  C4  UNL     1      24.316   0.926  53.135  1.00  0.00     0.180 A 
HETATM   24  C3  UNL     1      25.651   1.135  52.846  1.00  0.00     0.067 A 
HETATM   25  C19 UNL     1      26.568   0.149  53.345  1.00  0.00     0.072 A 
HETATM   26  N4  UNL     1      26.065  -0.875  54.036  1.00  0.00    -0.241 NA
HETATM   27  C18 UNL     1      24.725  -1.052  54.300  1.00  0.00     0.236 A 
HETATM   28  N3  UNL     1      23.840  -0.115  53.831  1.00  0.00    -0.217 NA
BRANCH  24  29
HETATM   29  C2  UNL     1      26.345   2.017  52.167  1.00  0.00     0.152 C 
BRANCH  29  30
HETATM   30  O1  UNL     1      26.691   2.084  50.839  1.00  0.00    -0.367 OA
HETATM   31  C1  UNL     1      26.450   3.200  50.013  1.00  0.00     0.208 C 
ENDBRANCH  29  30
ENDBRANCH  24  29
BRANCH  25  32
HETATM   32  C20 UNL     1      27.863  -0.022  53.389  1.00  0.00     0.032 C 
BRANCH  32  33
HETATM   33  C21 UNL     1      28.970  -0.170  54.408  1.00  0.00     0.196 C 
BRANCH  33  34
HETATM   34  O5  UNL     1      28.897   1.088  55.143  1.00  0.00    -0.392 OA
HETATM   35  C22 UNL     1      29.371   2.068  54.301  1.00  0.00     0.201 C 
ENDBRANCH  33  34
ENDBRANCH  32  33
ENDBRANCH  25  32
ENDBRANCH  22  23
ENDBRANCH   1  22
TORSDOF 7
ENDMDL
MODEL 5
REMARK VINA RESULT:      -7.6      2.922      4.358
REMARK  7 active torsions:
REMARK  status: ('A' for Active; 'I' for Inactive)
REMARK    1  A    between atoms: O1_2  and  C2_3 
REMARK    2  A    between atoms: C2_3  and  C3_4 
REMARK    3  A    between atoms: C4_5  and  O2_6 
REMARK    4  A    between atoms: O2_6  and  C5_7 
REMARK    5  A    between atoms: C19_28  and  C20_29 
REMARK    6  A    between atoms: C20_29  and  C21_30 
REMARK    7  A    between atoms: C21_30  and  O5_31 
ROOT
HETATM    1  C5  UNL     1      24.032   2.885  50.100  1.00  0.00     0.062 C 
HETATM    2  C6  UNL     1      25.316   3.345  49.840  1.00  0.00     0.052 C 
HETATM    3  C7  UNL     1      26.754   3.760  49.677  1.00  0.00     0.284 C 
HETATM    4  N1  UNL     1      26.865   5.168  49.036  1.00  0.00     0.158 N 
HETATM    5  C8  UNL     1      25.477   5.826  49.243  1.00  0.00     0.500 A 
HETATM    6  O3  UNL     1      24.352   6.258  49.501  1.00  0.00    -0.120 OA
HETATM    7  N2  UNL     1      24.713   6.870  48.513  1.00  0.00     0.146 N 
HETATM    8  C9  UNL     1      23.276   7.267  48.638  1.00  0.00     0.206 C 
HETATM    9  C10 UNL     1      22.258   6.432  48.148  1.00  0.00     0.113 C 
HETATM   10  O4  UNL     1      21.511   5.364  47.549  1.00  0.00    -0.320 OA
HETATM   11  C11 UNL     1      20.517   4.709  48.416  1.00  0.00     0.139 C 
HETATM   12  C12 UNL     1      21.548   4.041  48.746  1.00  0.00     0.004 C 
HETATM   13  C13 UNL     1      22.834   4.293  48.128  1.00  0.00     0.026 C 
HETATM   14  C14 UNL     1      23.261   3.570  49.147  1.00  0.00     0.109 C 
HETATM   15  P1  UNL     1      20.562   7.183  48.506  1.00  0.00    -0.062 P 
HETATM   16  C15 UNL     1      20.887   9.034  48.559  1.00  0.00     0.065 C 
HETATM   17  C16 UNL     1      22.252   9.176  48.960  1.00  0.00    -0.020 C 
HETATM   18  C17 UNL     1      23.434   8.650  49.101  1.00  0.00     0.040 C 
HETATM   19  H8  UNL     1      26.024   5.029  49.436  1.00  0.00     0.423 HD
HETATM   20  H9  UNL     1      25.437   7.375  47.856  1.00  0.00     0.331 HD
HETATM   21  H14 UNL     1      20.320   6.827  49.946  1.00  0.00     0.065 HD
ENDROOT
BRANCH   1  22
HETATM   22  O2  UNL     1      24.677   2.235  50.986  1.00  0.00    -0.327 OA
BRANCH  22  23
HETATM   23  C4  UNL     1      25.221   1.428  51.739  1.00  0.00     0.180 A 
HETATM   24  C3  UNL     1      24.034   0.925  52.237  1.00  0.00     0.067 A 
HETATM   25  C19 UNL     1      24.152  -0.120  53.215  1.00  0.00     0.072 A 
HETATM   26  N4  UNL     1      25.378  -0.513  53.561  1.00  0.00    -0.241 NA
HETATM   27  C18 UNL     1      26.540   0.017  53.044  1.00  0.00     0.236 A 
HETATM   28  N3  UNL     1      26.440   1.013  52.107  1.00  0.00    -0.217 NA
BRANCH  24  29
HETATM   29  C2  UNL     1      22.758   1.182  52.081  1.00  0.00     0.152 C 
BRANCH  29  30
HETATM   30  O1  UNL     1      21.888   1.967  52.799  1.00  0.00    -0.367 OA
HETATM   31  C1  UNL     1      20.862   2.743  52.224  1.00  0.00     0.208 C 
ENDBRANCH  29  30
ENDBRANCH  24  29
BRANCH  25  32
HETATM   32  C20 UNL     1      23.349  -0.916  53.871  1.00  0.00     0.032 C 
BRANCH  32  33
HETATM   33  C21 UNL     1      22.598  -0.968  55.182  1.00  0.00     0.196 C 
BRANCH  33  34
HETATM   34  O5  UNL     1      21.519  -1.906  54.894  1.00  0.00    -0.392 OA
HETATM   35  C22 UNL     1      20.637  -1.254  54.063  1.00  0.00     0.201 C 
ENDBRANCH  33  34
ENDBRANCH  32  33
ENDBRANCH  25  32
ENDBRANCH  22  23
ENDBRANCH   1  22
TORSDOF 7
ENDMDL
MODEL 6
REMARK VINA RESULT:      -7.5      2.395      3.530
REMARK  7 active torsions:
REMARK  status: ('A' for Active; 'I' for Inactive)
REMARK    1  A    between atoms: O1_2  and  C2_3 
REMARK    2  A    between atoms: C2_3  and  C3_4 
REMARK    3  A    between atoms: C4_5  and  O2_6 
REMARK    4  A    between atoms: O2_6  and  C5_7 
REMARK    5  A    between atoms: C19_28  and  C20_29 
REMARK    6  A    between atoms: C20_29  and  C21_30 
REMARK    7  A    between atoms: C21_30  and  O5_31 
ROOT
HETATM    1  C5  UNL     1      21.164   2.492  52.168  1.00  0.00     0.062 C 
HETATM    2  C6  UNL     1      20.246   1.642  51.566  1.00  0.00     0.052 C 
HETATM    3  C7  UNL     1      19.309   0.610  50.997  1.00  0.00     0.284 C 
HETATM    4  N1  UNL     1      18.876   0.977  49.554  1.00  0.00     0.158 N 
HETATM    5  C8  UNL     1      19.928   1.998  49.054  1.00  0.00     0.500 A 
HETATM    6  O3  UNL     1      20.843   2.768  48.753  1.00  0.00    -0.120 OA
HETATM    7  N2  UNL     1      19.902   3.099  48.057  1.00  0.00     0.146 N 
HETATM    8  C9  UNL     1      20.891   4.196  47.817  1.00  0.00     0.206 C 
HETATM    9  C10 UNL     1      21.014   5.261  48.726  1.00  0.00     0.113 C 
HETATM   10  O4  UNL     1      20.865   6.161  49.833  1.00  0.00    -0.320 OA
HETATM   11  C11 UNL     1      22.078   6.406  50.631  1.00  0.00     0.139 C 
HETATM   12  C12 UNL     1      21.665   5.348  51.205  1.00  0.00     0.004 C 
HETATM   13  C13 UNL     1      20.437   4.700  50.791  1.00  0.00     0.026 C 
HETATM   14  C14 UNL     1      20.926   3.713  51.518  1.00  0.00     0.109 C 
HETATM   15  P1  UNL     1      22.379   6.445  48.174  1.00  0.00    -0.062 P 
HETATM   16  C15 UNL     1      22.421   6.248  46.305  1.00  0.00     0.065 C 
HETATM   17  C16 UNL     1      21.950   4.923  46.043  1.00  0.00    -0.020 C 
HETATM   18  C17 UNL     1      21.311   3.865  46.452  1.00  0.00     0.040 C 
HETATM   19  H8  UNL     1      19.678   1.404  49.799  1.00  0.00     0.423 HD
HETATM   20  H9  UNL     1      19.001   2.939  47.447  1.00  0.00     0.331 HD
HETATM   21  H14 UNL     1      23.637   5.760  48.627  1.00  0.00     0.065 HD
ENDROOT
BRANCH   1  22
HETATM   22  O2  UNL     1      21.426   1.413  52.793  1.00  0.00    -0.327 OA
BRANCH  22  23
HETATM   23  C4  UNL     1      21.752   0.505  53.558  1.00  0.00     0.180 A 
HETATM   24  C3  UNL     1      23.098   0.587  53.257  1.00  0.00     0.067 A 
HETATM   25  C19 UNL     1      23.958  -0.333  53.949  1.00  0.00     0.072 A 
HETATM   26  N4  UNL     1      23.395  -1.180  54.811  1.00  0.00    -0.241 NA
HETATM   27  C18 UNL     1      22.046  -1.235  55.081  1.00  0.00     0.236 A 
HETATM   28  N3  UNL     1      21.216  -0.359  54.428  1.00  0.00    -0.217 NA
BRANCH  24  29
HETATM   29  C2  UNL     1      23.844   1.287  52.436  1.00  0.00     0.152 C 
BRANCH  29  30
HETATM   30  O1  UNL     1      24.710   2.332  52.652  1.00  0.00    -0.367 OA
HETATM   31  C1  UNL     1      25.972   2.456  52.036  1.00  0.00     0.208 C 
ENDBRANCH  29  30
ENDBRANCH  24  29
BRANCH  25  32
HETATM   32  C20 UNL     1      25.241  -0.559  54.046  1.00  0.00     0.032 C 
BRANCH  32  33
HETATM   33  C21 UNL     1      26.442  -0.058  54.816  1.00  0.00     0.196 C 
BRANCH  33  34
HETATM   34  O5  UNL     1      27.553  -0.712  54.134  1.00  0.00    -0.392 OA
HETATM   35  C22 UNL     1      28.693  -0.024  54.480  1.00  0.00     0.201 C 
ENDBRANCH  33  34
ENDBRANCH  32  33
ENDBRANCH  25  32
ENDBRANCH  22  23
ENDBRANCH   1  22
TORSDOF 7
ENDMDL
MODEL 7
REMARK VINA RESULT:      -7.5      3.588      5.843
REMARK  7 active torsions:
REMARK  status: ('A' for Active; 'I' for Inactive)
REMARK    1  A    between atoms: O1_2  and  C2_3 
REMARK    2  A    between atoms: C2_3  and  C3_4 
REMARK    3  A    between atoms: C4_5  and  O2_6 
REMARK    4  A    between atoms: O2_6  and  C5_7 
REMARK    5  A    between atoms: C19_28  and  C20_29 
REMARK    6  A    between atoms: C20_29  and  C21_30 
REMARK    7  A    between atoms: C21_30  and  O5_31 
ROOT
HETATM    1  C5  UNL     1      22.873   1.658  50.955  1.00  0.00     0.062 C 
HETATM    2  C6  UNL     1      24.183   1.561  51.406  1.00  0.00     0.052 C 
HETATM    3  C7  UNL     1      25.550   1.370  52.008  1.00  0.00     0.284 C 
HETATM    4  N1  UNL     1      26.475   2.575  51.697  1.00  0.00     0.158 N 
HETATM    5  C8  UNL     1      25.526   3.734  51.305  1.00  0.00     0.500 A 
HETATM    6  O3  UNL     1      24.674   4.589  51.051  1.00  0.00    -0.120 OA
HETATM    7  N2  UNL     1      25.671   4.941  50.450  1.00  0.00     0.146 N 
HETATM    8  C9  UNL     1      24.626   5.875  49.927  1.00  0.00     0.206 C 
HETATM    9  C10 UNL     1      23.754   5.472  48.901  1.00  0.00     0.113 C 
HETATM   10  O4  UNL     1      23.063   4.740  47.878  1.00  0.00    -0.320 OA
HETATM   11  C11 UNL     1      21.611   4.587  48.066  1.00  0.00     0.139 C 
HETATM   12  C12 UNL     1      22.012   3.595  48.754  1.00  0.00     0.004 C 
HETATM   13  C13 UNL     1      23.422   3.281  48.866  1.00  0.00     0.026 C 
HETATM   14  C14 UNL     1      22.989   2.521  49.854  1.00  0.00     0.109 C 
HETATM   15  P1  UNL     1      22.522   6.848  48.505  1.00  0.00    -0.062 P 
HETATM   16  C15 UNL     1      23.439   8.423  48.961  1.00  0.00     0.065 C 
HETATM   17  C16 UNL     1      24.370   8.050  49.979  1.00  0.00    -0.020 C 
HETATM   18  C17 UNL     1      25.037   7.115  50.593  1.00  0.00     0.040 C 
HETATM   19  H8  UNL     1      25.565   2.804  51.624  1.00  0.00     0.423 HD
HETATM   20  H9  UNL     1      26.751   5.077  50.294  1.00  0.00     0.331 HD
HETATM   21  H14 UNL     1      21.491   6.714  49.591  1.00  0.00     0.065 HD
ENDROOT
BRANCH   1  22
HETATM   22  O2  UNL     1      22.704   0.871  51.943  1.00  0.00    -0.327 OA
BRANCH  22  23
HETATM   23  C4  UNL     1      22.348   0.061  52.798  1.00  0.00     0.180 A 
HETATM   24  C3  UNL     1      21.000   0.200  52.528  1.00  0.00     0.067 A 
HETATM   25  C19 UNL     1      20.110  -0.602  53.321  1.00  0.00     0.072 A 
HETATM   26  N4  UNL     1      20.649  -1.403  54.241  1.00  0.00    -0.241 NA
HETATM   27  C18 UNL     1      22.000  -1.512  54.484  1.00  0.00     0.236 A 
HETATM   28  N3  UNL     1      22.859  -0.752  53.731  1.00  0.00    -0.217 NA
BRANCH  24  29
HETATM   29  C2  UNL     1      20.266   0.936  51.728  1.00  0.00     0.152 C 
BRANCH  29  30
HETATM   30  O1  UNL     1      19.435   2.002  51.971  1.00  0.00    -0.367 OA
HETATM   31  C1  UNL     1      19.811   3.352  51.819  1.00  0.00     0.208 C 
ENDBRANCH  29  30
ENDBRANCH  24  29
BRANCH  25  32
HETATM   32  C20 UNL     1      18.829  -0.855  53.365  1.00  0.00     0.032 C 
BRANCH  32  33
HETATM   33  C21 UNL     1      17.890  -2.040  53.382  1.00  0.00     0.196 C 
BRANCH  33  34
HETATM   34  O5  UNL     1      16.616  -1.442  53.000  1.00  0.00    -0.392 OA
HETATM   35  C22 UNL     1      16.837  -0.748  51.832  1.00  0.00     0.201 C 
ENDBRANCH  33  34
ENDBRANCH  32  33
ENDBRANCH  25  32
ENDBRANCH  22  23
ENDBRANCH   1  22
TORSDOF 7
ENDMDL
MODEL 8
REMARK VINA RESULT:      -7.4      3.117      4.763
REMARK  7 active torsions:
REMARK  status: ('A' for Active; 'I' for Inactive)
REMARK    1  A    between atoms: O1_2  and  C2_3 
REMARK    2  A    between atoms: C2_3  and  C3_4 
REMARK    3  A    between atoms: C4_5  and  O2_6 
REMARK    4  A    between atoms: O2_6  and  C5_7 
REMARK    5  A    between atoms: C19_28  and  C20_29 
REMARK    6  A    between atoms: C20_29  and  C21_30 
REMARK    7  A    between atoms: C21_30  and  O5_31 
ROOT
HETATM    1  C5  UNL     1      22.184   2.673  52.094  1.00  0.00     0.062 C 
HETATM    2  C6  UNL     1      22.191   1.499  52.836  1.00  0.00     0.052 C 
HETATM    3  C7  UNL     1      22.347   0.218  53.611  1.00  0.00     0.284 C 
HETATM    4  N1  UNL     1      21.030  -0.600  53.618  1.00  0.00     0.158 N 
HETATM    5  C8  UNL     1      20.193  -0.045  52.438  1.00  0.00     0.500 A 
HETATM    6  O3  UNL     1      19.639   0.447  51.453  1.00  0.00    -0.120 OA
HETATM    7  N2  UNL     1      18.737   0.032  52.155  1.00  0.00     0.146 N 
HETATM    8  C9  UNL     1      18.005   0.808  51.105  1.00  0.00     0.206 C 
HETATM    9  C10 UNL     1      17.879   2.204  51.205  1.00  0.00     0.113 C 
HETATM   10  O4  UNL     1      17.944   3.574  51.626  1.00  0.00    -0.320 OA
HETATM   11  C11 UNL     1      18.561   4.511  50.673  1.00  0.00     0.139 C 
HETATM   12  C12 UNL     1      19.611   4.095  51.260  1.00  0.00     0.004 C 
HETATM   13  C13 UNL     1      19.533   3.138  52.345  1.00  0.00     0.026 C 
HETATM   14  C14 UNL     1      20.828   3.036  52.106  1.00  0.00     0.109 C 
HETATM   15  P1  UNL     1      16.958   2.891  49.706  1.00  0.00    -0.062 P 
HETATM   16  C15 UNL     1      15.860   1.468  49.156  1.00  0.00     0.065 C 
HETATM   17  C16 UNL     1      16.530   0.276  49.576  1.00  0.00    -0.020 C 
HETATM   18  C17 UNL     1      17.420  -0.294  50.336  1.00  0.00     0.040 C 
HETATM   19  H8  UNL     1      21.060   0.010  52.901  1.00  0.00     0.423 HD
HETATM   20  H9  UNL     1      18.251  -0.662  52.857  1.00  0.00     0.331 HD
HETATM   21  H14 UNL     1      18.019   2.947  48.642  1.00  0.00     0.065 HD
ENDROOT
BRANCH   1  22
HETATM   22  O2  UNL     1      23.426   2.396  52.048  1.00  0.00    -0.327 OA
BRANCH  22  23
HETATM   23  C4  UNL     1      24.656   2.339  52.068  1.00  0.00     0.180 A 
HETATM   24  C3  UNL     1      24.814   2.921  50.825  1.00  0.00     0.067 A 
HETATM   25  C19 UNL     1      26.167   3.088  50.372  1.00  0.00     0.072 A 
HETATM   26  N4  UNL     1      27.146   2.672  51.176  1.00  0.00    -0.241 NA
HETATM   27  C18 UNL     1      26.949   2.091  52.409  1.00  0.00     0.236 A 
HETATM   28  N3  UNL     1      25.661   1.929  52.852  1.00  0.00    -0.217 NA
BRANCH  24  29
HETATM   29  C2  UNL     1      24.021   3.351  49.874  1.00  0.00     0.152 C 
BRANCH  29  30
HETATM   30  O1  UNL     1      23.527   4.601  49.589  1.00  0.00    -0.367 OA
HETATM   31  C1  UNL     1      23.352   5.106  48.285  1.00  0.00     0.208 C 
ENDBRANCH  29  30
ENDBRANCH  24  29
BRANCH  25  32
HETATM   32  C20 UNL     1      26.778   3.635  49.356  1.00  0.00     0.032 C 
BRANCH  32  33
HETATM   33  C21 UNL     1      27.150   5.007  48.839  1.00  0.00     0.196 C 
BRANCH  33  34
HETATM   34  O5  UNL     1      28.485   4.789  48.293  1.00  0.00    -0.392 OA
HETATM   35  C22 UNL     1      29.129   6.006  48.320  1.00  0.00     0.201 C 
ENDBRANCH  33  34
ENDBRANCH  32  33
ENDBRANCH  25  32
ENDBRANCH  22  23
ENDBRANCH   1  22
TORSDOF 7
ENDMDL
MODEL 9
REMARK VINA RESULT:      -7.2      2.731      3.612
REMARK  7 active torsions:
REMARK  status: ('A' for Active; 'I' for Inactive)
REMARK    1  A    between atoms: O1_2  and  C2_3 
REMARK    2  A    between atoms: C2_3  and  C3_4 
REMARK    3  A    between atoms: C4_5  and  O2_6 
REMARK    4  A    between atoms: O2_6  and  C5_7 
REMARK    5  A    between atoms: C19_28  and  C20_29 
REMARK    6  A    between atoms: C20_29  and  C21_30 
REMARK    7  A    between atoms: C21_30  and  O5_31 
ROOT
HETATM    1  C5  UNL     1      23.406   4.201  51.945  1.00  0.00     0.062 C 
HETATM    2  C6  UNL     1      22.028   4.078  51.831  1.00  0.00     0.052 C 
HETATM    3  C7  UNL     1      20.549   3.805  51.761  1.00  0.00     0.284 C 
HETATM    4  N1  UNL     1      19.875   4.640  50.642  1.00  0.00     0.158 N 
HETATM    5  C8  UNL     1      21.026   5.075  49.701  1.00  0.00     0.500 A 
HETATM    6  O3  UNL     1      22.013   5.326  49.007  1.00  0.00    -0.120 OA
HETATM    7  N2  UNL     1      21.226   6.225  48.782  1.00  0.00     0.146 N 
HETATM    8  C9  UNL     1      22.470   6.700  48.100  1.00  0.00     0.206 C 
HETATM    9  C10 UNL     1      23.488   7.335  48.830  1.00  0.00     0.113 C 
HETATM   10  O4  UNL     1      24.290   7.927  49.862  1.00  0.00    -0.320 OA
HETATM   11  C11 UNL     1      25.634   7.353  50.042  1.00  0.00     0.139 C 
HETATM   12  C12 UNL     1      24.969   6.550  50.772  1.00  0.00     0.004 C 
HETATM   13  C13 UNL     1      23.541   6.712  50.955  1.00  0.00     0.026 C 
HETATM   14  C14 UNL     1      23.646   5.483  51.426  1.00  0.00     0.109 C 
HETATM   15  P1  UNL     1      24.941   7.762  47.700  1.00  0.00    -0.062 P 
HETATM   16  C15 UNL     1      24.152   7.977  46.008  1.00  0.00     0.065 C 
HETATM   17  C16 UNL     1      22.980   7.159  46.020  1.00  0.00    -0.020 C 
HETATM   18  C17 UNL     1      22.082   6.505  46.699  1.00  0.00     0.040 C 
HETATM   19  H8  UNL     1      20.800   4.542  50.498  1.00  0.00     0.423 HD
HETATM   20  H9  UNL     1      20.233   6.673  48.632  1.00  0.00     0.331 HD
HETATM   21  H14 UNL     1      25.682   6.459  47.580  1.00  0.00     0.065 HD
ENDROOT
BRANCH   1  22
HETATM   22  O2  UNL     1      23.253   3.031  52.426  1.00  0.00    -0.327 OA
BRANCH  22  23
HETATM   23  C4  UNL     1      23.156   1.832  52.686  1.00  0.00     0.180 A 
HETATM   24  C3  UNL     1      24.497   1.673  52.977  1.00  0.00     0.067 A 
HETATM   25  C19 UNL     1      24.907   0.352  53.366  1.00  0.00     0.072 A 
HETATM   26  N4  UNL     1      23.974  -0.600  53.411  1.00  0.00    -0.241 NA
HETATM   27  C18 UNL     1      22.645  -0.404  53.108  1.00  0.00     0.236 A 
HETATM   28  N3  UNL     1      22.242   0.854  52.738  1.00  0.00    -0.217 NA
BRANCH  24  29
HETATM   29  C2  UNL     1      25.566   2.431  52.957  1.00  0.00     0.152 C 
BRANCH  29  30
HETATM   30  O1  UNL     1      26.544   2.610  52.009  1.00  0.00    -0.367 OA
HETATM   31  C1  UNL     1      26.312   2.594  50.618  1.00  0.00     0.208 C 
ENDBRANCH  29  30
ENDBRANCH  24  29
BRANCH  25  32
HETATM   32  C20 UNL     1      25.997  -0.227  53.793  1.00  0.00     0.032 C 
BRANCH  32  33
HETATM   33  C21 UNL     1      27.231  -0.907  53.242  1.00  0.00     0.196 C 
BRANCH  33  34
HETATM   34  O5  UNL     1      28.251   0.126  53.375  1.00  0.00    -0.392 OA
HETATM   35  C22 UNL     1      28.792  -0.010  54.633  1.00  0.00     0.201 C 
ENDBRANCH  33  34
ENDBRANCH  32  33
ENDBRANCH  25  32
ENDBRANCH  22  23
ENDBRANCH   1  22
TORSDOF 7
ENDMDL
