MODEL 1
REMARK VINA RESULT:      -8.5      0.000      0.000
REMARK  7 active torsions:
REMARK  status: ('A' for Active; 'I' for Inactive)
REMARK    1  A    between atoms: O1_2  and  C2_3 
REMARK    2  A    between atoms: C7_8  and  N1_9 
REMARK    3  A    between atoms: C12_15  and  C13_16 
REMARK    4  A    between atoms: C16_19  and  C17_20 
REMARK    5  A    between atoms: C17_20  and  C18_21 
REMARK    6  A    between atoms: C18_21  and  C19_22 
REMARK    7  A    between atoms: C19_22  and  C20_23 
ROOT
HETATM    1  C13 UNL     1      24.487   2.912  52.000  1.00  0.00     0.107 A 
HETATM    2  C14 UNL     1      25.288   2.468  51.062  1.00  0.00     0.040 A 
HETATM    3  C15 UNL     1      25.805   3.394  50.060  1.00  0.00     0.034 A 
HETATM    4  C16 UNL     1      25.397   4.639  50.203  1.00  0.00     0.054 A 
HETATM    5  N3  UNL     1      24.541   5.199  51.177  1.00  0.00    -0.261 N 
HETATM    6  O3  UNL     1      24.104   4.243  52.081  1.00  0.00    -0.239 OA
HETATM    7  H30 UNL     1      24.250   6.196  51.244  1.00  0.00     0.195 HD
ENDROOT
BRANCH   1   8
HETATM    8  C12 UNL     1      23.969   1.956  53.014  1.00  0.00     0.220 C 
HETATM    9  N1  UNL     1      22.675   1.431  52.694  1.00  0.00    -0.340 N 
HETATM   10  C8  UNL     1      22.179   0.425  53.629  1.00  0.00     0.153 C 
HETATM   11  C9  UNL     1      23.079  -0.740  53.678  1.00  0.00    -0.003 C 
HETATM   12  C10 UNL     1      24.372  -0.551  53.466  1.00  0.00     0.050 C 
HETATM   13  C11 UNL     1      24.894   0.801  53.188  1.00  0.00     0.178 C 
HETATM   14  O2  UNL     1      26.148   0.804  53.130  1.00  0.00    -0.291 OA
BRANCH   9  15
HETATM   15  C7  UNL     1      21.798   1.749  51.594  1.00  0.00     0.149 C 
HETATM   16  C6  UNL     1      22.066   1.086  50.474  1.00  0.00     0.056 C 
HETATM   17  C5  UNL     1      21.390   1.158  49.181  1.00  0.00     0.004 C 
HETATM   18  C4  UNL     1      20.271   1.824  48.871  1.00  0.00     0.005 C 
HETATM   19  C3  UNL     1      19.505   2.627  49.818  1.00  0.00     0.064 C 
HETATM   20  C2  UNL     1      19.677   3.021  51.067  1.00  0.00     0.186 C 
HETATM   21  O4  UNL     1      20.798   2.705  51.862  1.00  0.00    -0.271 OA
BRANCH  20  22
HETATM   22  O1  UNL     1      18.818   3.802  51.826  1.00  0.00    -0.335 OA
HETATM   23  C1  UNL     1      17.464   3.905  51.432  1.00  0.00     0.212 C 
ENDBRANCH  20  22
ENDBRANCH   9  15
ENDBRANCH   1   8
BRANCH   4  24
HETATM   24  C17 UNL     1      25.860   5.628  49.253  1.00  0.00     0.027 C 
BRANCH  24  25
HETATM   25  C18 UNL     1      26.757   6.476  48.869  1.00  0.00    -0.024 C 
BRANCH  25  26
HETATM   26  C19 UNL     1      27.837   7.349  48.439  1.00  0.00     0.032 C 
BRANCH  26  27
HETATM   27  C20 UNL     1      28.839   6.665  47.498  1.00  0.00    -0.005 C 
HETATM   28  C21 UNL     1      29.508   5.538  48.202  1.00  0.00     0.020 C 
HETATM   29  C22 UNL     1      30.899   5.253  47.684  1.00  0.00     0.094 C 
HETATM   30  N2  UNL     1      31.840   6.185  48.280  1.00  0.00    -0.296 NA
HETATM   31  C23 UNL     1      31.739   6.187  49.729  1.00  0.00     0.115 C 
HETATM   32  P1  UNL     1      31.374   7.827  47.709  1.00  0.00    -0.055 P 
HETATM   33  C24 UNL     1      29.736   7.652  46.840  1.00  0.00     0.052 C 
HETATM   34  H27 UNL     1      32.358   8.249  46.716  1.00  0.00     0.074 HD
ENDBRANCH  26  27
ENDBRANCH  25  26
ENDBRANCH  24  25
ENDBRANCH   4  24
TORSDOF 7
ENDMDL
MODEL 2
REMARK VINA RESULT:      -8.4      1.183      1.289
REMARK  7 active torsions:
REMARK  status: ('A' for Active; 'I' for Inactive)
REMARK    1  A    between atoms: O1_2  and  C2_3 
REMARK    2  A    between atoms: C7_8  and  N1_9 
REMARK    3  A    between atoms: C12_15  and  C13_16 
REMARK    4  A    between atoms: C16_19  and  C17_20 
REMARK    5  A    between atoms: C17_20  and  C18_21 
REMARK    6  A    between atoms: C18_21  and  C19_22 
REMARK    7  A    between atoms: C19_22  and  C20_23 
ROOT
HETATM    1  C13 UNL     1      24.904   2.760  51.711  1.00  0.00     0.107 A 
HETATM    2  C14 UNL     1      25.707   2.043  50.964  1.00  0.00     0.040 A 
HETATM    3  C15 UNL     1      26.514   2.698  49.940  1.00  0.00     0.034 A 
HETATM    4  C16 UNL     1      26.349   4.003  49.865  1.00  0.00     0.054 A 
HETATM    5  N3  UNL     1      25.512   4.849  50.626  1.00  0.00    -0.261 N 
HETATM    6  O3  UNL     1      24.789   4.136  51.568  1.00  0.00    -0.239 OA
HETATM    7  H30 UNL     1      25.420   5.881  50.524  1.00  0.00     0.195 HD
ENDROOT
BRANCH   1   8
HETATM    8  C12 UNL     1      24.089   2.079  52.751  1.00  0.00     0.220 C 
HETATM    9  N1  UNL     1      22.753   1.783  52.324  1.00  0.00    -0.340 N 
HETATM   10  C8  UNL     1      21.957   1.038  53.294  1.00  0.00     0.153 C 
HETATM   11  C9  UNL     1      22.574  -0.265  53.594  1.00  0.00    -0.003 C 
HETATM   12  C10 UNL     1      23.893  -0.370  53.536  1.00  0.00     0.050 C 
HETATM   13  C11 UNL     1      24.719   0.798  53.177  1.00  0.00     0.178 C 
HETATM   14  O2  UNL     1      25.944   0.542  53.285  1.00  0.00    -0.291 OA
BRANCH   9  15
HETATM   15  C7  UNL     1      22.086   2.113  51.087  1.00  0.00     0.149 C 
HETATM   16  C6  UNL     1      21.957   1.091  50.249  1.00  0.00     0.056 C 
HETATM   17  C5  UNL     1      21.340   1.064  48.925  1.00  0.00     0.004 C 
HETATM   18  C4  UNL     1      20.663   2.041  48.310  1.00  0.00     0.005 C 
HETATM   19  C3  UNL     1      20.414   3.357  48.887  1.00  0.00     0.064 C 
HETATM   20  C2  UNL     1      20.809   3.992  49.977  1.00  0.00     0.186 C 
HETATM   21  O4  UNL     1      21.677   3.454  50.950  1.00  0.00    -0.271 OA
BRANCH  20  22
HETATM   22  O1  UNL     1      20.461   5.275  50.373  1.00  0.00    -0.335 OA
HETATM   23  C1  UNL     1      21.430   6.071  51.027  1.00  0.00     0.212 C 
ENDBRANCH  20  22
ENDBRANCH   9  15
ENDBRANCH   1   8
BRANCH   4  24
HETATM   24  C17 UNL     1      27.111   4.737  48.877  1.00  0.00     0.027 C 
BRANCH  24  25
HETATM   25  C18 UNL     1      27.660   5.838  48.479  1.00  0.00    -0.024 C 
BRANCH  25  26
HETATM   26  C19 UNL     1      28.218   7.127  48.107  1.00  0.00     0.032 C 
BRANCH  26  27
HETATM   27  C20 UNL     1      29.522   7.021  47.302  1.00  0.00    -0.005 C 
HETATM   28  C21 UNL     1      30.267   5.797  47.703  1.00  0.00     0.020 C 
HETATM   29  C22 UNL     1      31.762   5.925  47.529  1.00  0.00     0.094 C 
HETATM   30  N2  UNL     1      32.324   6.640  48.661  1.00  0.00    -0.296 NA
HETATM   31  C23 UNL     1      31.928   6.035  49.920  1.00  0.00     0.115 C 
HETATM   32  P1  UNL     1      31.628   8.300  48.623  1.00  0.00    -0.055 P 
HETATM   33  C24 UNL     1      30.289   8.294  47.329  1.00  0.00     0.052 C 
HETATM   34  H27 UNL     1      32.676   9.211  48.170  1.00  0.00     0.074 HD
ENDBRANCH  26  27
ENDBRANCH  25  26
ENDBRANCH  24  25
ENDBRANCH   4  24
TORSDOF 7
ENDMDL
MODEL 3
REMARK VINA RESULT:      -8.2      1.359      1.672
REMARK  7 active torsions:
REMARK  status: ('A' for Active; 'I' for Inactive)
REMARK    1  A    between atoms: O1_2  and  C2_3 
REMARK    2  A    between atoms: C7_8  and  N1_9 
REMARK    3  A    between atoms: C12_15  and  C13_16 
REMARK    4  A    between atoms: C16_19  and  C17_20 
REMARK    5  A    between atoms: C17_20  and  C18_21 
REMARK    6  A    between atoms: C18_21  and  C19_22 
REMARK    7  A    between atoms: C19_22  and  C20_23 
ROOT
HETATM    1  C13 UNL     1      24.795   3.075  51.606  1.00  0.00     0.107 A 
HETATM    2  C14 UNL     1      25.636   2.449  50.820  1.00  0.00     0.040 A 
HETATM    3  C15 UNL     1      26.369   3.200  49.806  1.00  0.00     0.034 A 
HETATM    4  C16 UNL     1      26.101   4.490  49.781  1.00  0.00     0.054 A 
HETATM    5  N3  UNL     1      25.216   5.241  50.586  1.00  0.00    -0.261 N 
HETATM    6  O3  UNL     1      24.569   4.441  51.514  1.00  0.00    -0.239 OA
HETATM    7  H30 UNL     1      25.042   6.265  50.522  1.00  0.00     0.195 HD
ENDROOT
BRANCH   1   8
HETATM    8  C12 UNL     1      24.056   2.296  52.634  1.00  0.00     0.220 C 
HETATM    9  N1  UNL     1      22.745   1.896  52.213  1.00  0.00    -0.340 N 
HETATM   10  C8  UNL     1      22.030   1.057  53.170  1.00  0.00     0.153 C 
HETATM   11  C9  UNL     1      22.763  -0.195  53.426  1.00  0.00    -0.003 C 
HETATM   12  C10 UNL     1      24.085  -0.181  53.351  1.00  0.00     0.050 C 
HETATM   13  C11 UNL     1      24.801   1.064  53.016  1.00  0.00     0.178 C 
HETATM   14  O2  UNL     1      26.045   0.914  53.104  1.00  0.00    -0.291 OA
BRANCH   9  15
HETATM   15  C7  UNL     1      22.036   2.200  50.994  1.00  0.00     0.149 C 
HETATM   16  C6  UNL     1      22.050   1.220  50.097  1.00  0.00     0.056 C 
HETATM   17  C5  UNL     1      21.441   1.183  48.770  1.00  0.00     0.004 C 
HETATM   18  C4  UNL     1      20.631   2.089  48.208  1.00  0.00     0.005 C 
HETATM   19  C3  UNL     1      20.201   3.321  48.859  1.00  0.00     0.064 C 
HETATM   20  C2  UNL     1      20.504   3.941  49.986  1.00  0.00     0.186 C 
HETATM   21  O4  UNL     1      21.442   3.475  50.932  1.00  0.00    -0.271 OA
BRANCH  20  22
HETATM   22  O1  UNL     1      19.980   5.137  50.453  1.00  0.00    -0.335 OA
HETATM   23  C1  UNL     1      20.289   6.331  49.761  1.00  0.00     0.212 C 
ENDBRANCH  20  22
ENDBRANCH   9  15
ENDBRANCH   1   8
BRANCH   4  24
HETATM   24  C17 UNL     1      26.783   5.316  48.807  1.00  0.00     0.027 C 
BRANCH  24  25
HETATM   25  C18 UNL     1      27.879   5.810  48.331  1.00  0.00    -0.024 C 
BRANCH  25  26
HETATM   26  C19 UNL     1      29.078   6.463  47.832  1.00  0.00     0.032 C 
BRANCH  26  27
HETATM   27  C20 UNL     1      30.369   5.962  48.494  1.00  0.00    -0.005 C 
HETATM   28  C21 UNL     1      31.173   7.118  48.975  1.00  0.00     0.020 C 
HETATM   29  C22 UNL     1      32.658   6.841  49.004  1.00  0.00     0.094 C 
HETATM   30  N2  UNL     1      33.210   7.010  47.671  1.00  0.00    -0.296 NA
HETATM   31  C23 UNL     1      32.863   8.305  47.114  1.00  0.00     0.115 C 
HETATM   32  P1  UNL     1      32.444   5.757  46.631  1.00  0.00    -0.055 P 
HETATM   33  C24 UNL     1      31.082   4.980  47.636  1.00  0.00     0.052 C 
HETATM   34  H27 UNL     1      33.443   4.725  46.368  1.00  0.00     0.074 HD
ENDBRANCH  26  27
ENDBRANCH  25  26
ENDBRANCH  24  25
ENDBRANCH   4  24
TORSDOF 7
ENDMDL
MODEL 4
REMARK VINA RESULT:      -8.2      3.053      4.262
REMARK  7 active torsions:
REMARK  status: ('A' for Active; 'I' for Inactive)
REMARK    1  A    between atoms: O1_2  and  C2_3 
REMARK    2  A    between atoms: C7_8  and  N1_9 
REMARK    3  A    between atoms: C12_15  and  C13_16 
REMARK    4  A    between atoms: C16_19  and  C17_20 
REMARK    5  A    between atoms: C17_20  and  C18_21 
REMARK    6  A    between atoms: C18_21  and  C19_22 
REMARK    7  A    between atoms: C19_22  and  C20_23 
ROOT
HETATM    1  C13 UNL     1      24.515   2.701  52.594  1.00  0.00     0.107 A 
HETATM    2  C14 UNL     1      24.156   3.662  53.409  1.00  0.00     0.040 A 
HETATM    3  C15 UNL     1      23.347   4.767  52.906  1.00  0.00     0.034 A 
HETATM    4  C16 UNL     1      23.043   4.685  51.626  1.00  0.00     0.054 A 
HETATM    5  N3  UNL     1      23.386   3.692  50.682  1.00  0.00    -0.261 N 
HETATM    6  O3  UNL     1      24.152   2.689  51.254  1.00  0.00    -0.239 OA
HETATM    7  H30 UNL     1      23.118   3.677  49.677  1.00  0.00     0.195 HD
ENDROOT
BRANCH   1   8
HETATM    8  C12 UNL     1      25.338   1.581  53.121  1.00  0.00     0.220 C 
HETATM    9  N1  UNL     1      24.594   0.375  53.331  1.00  0.00    -0.340 N 
HETATM   10  C8  UNL     1      25.395  -0.765  53.767  1.00  0.00     0.153 C 
HETATM   11  C9  UNL     1      26.422  -1.102  52.767  1.00  0.00    -0.003 C 
HETATM   12  C10 UNL     1      26.927  -0.129  52.025  1.00  0.00     0.050 C 
HETATM   13  C11 UNL     1      26.465   1.261  52.201  1.00  0.00     0.178 C 
HETATM   14  O2  UNL     1      27.134   2.058  51.498  1.00  0.00    -0.291 OA
BRANCH   9  15
HETATM   15  C7  UNL     1      23.181   0.125  53.176  1.00  0.00     0.149 C 
HETATM   16  C6  UNL     1      22.630  -0.535  54.189  1.00  0.00     0.056 C 
HETATM   17  C5  UNL     1      21.241  -0.951  54.365  1.00  0.00     0.004 C 
HETATM   18  C4  UNL     1      20.187  -0.655  53.595  1.00  0.00     0.005 C 
HETATM   19  C3  UNL     1      20.253   0.172  52.395  1.00  0.00     0.064 C 
HETATM   20  C2  UNL     1      21.225   0.722  51.689  1.00  0.00     0.186 C 
HETATM   21  O4  UNL     1      22.599   0.610  51.988  1.00  0.00    -0.271 OA
BRANCH  20  22
HETATM   22  O1  UNL     1      21.096   1.497  50.545  1.00  0.00    -0.335 OA
HETATM   23  C1  UNL     1      21.401   0.916  49.292  1.00  0.00     0.212 C 
ENDBRANCH  20  22
ENDBRANCH   9  15
ENDBRANCH   1   8
BRANCH   4  24
HETATM   24  C17 UNL     1      22.242   5.739  51.040  1.00  0.00     0.027 C 
BRANCH  24  25
HETATM   25  C18 UNL     1      22.163   6.848  50.379  1.00  0.00    -0.024 C 
BRANCH  25  26
HETATM   26  C19 UNL     1      21.966   8.079  49.634  1.00  0.00     0.032 C 
BRANCH  26  27
HETATM   27  C20 UNL     1      22.981   8.277  48.498  1.00  0.00    -0.005 C 
HETATM   28  C21 UNL     1      23.615   6.977  48.153  1.00  0.00     0.020 C 
HETATM   29  C22 UNL     1      25.013   7.123  47.600  1.00  0.00     0.094 C 
HETATM   30  N2  UNL     1      25.954   7.292  48.694  1.00  0.00    -0.296 NA
HETATM   31  C23 UNL     1      25.817   6.233  49.678  1.00  0.00     0.115 C 
HETATM   32  P1  UNL     1      25.527   8.839  49.509  1.00  0.00    -0.055 P 
HETATM   33  C24 UNL     1      23.909   9.404  48.781  1.00  0.00     0.052 C 
HETATM   34  H27 UNL     1      26.541   9.826  49.150  1.00  0.00     0.074 HD
ENDBRANCH  26  27
ENDBRANCH  25  26
ENDBRANCH  24  25
ENDBRANCH   4  24
TORSDOF 7
ENDMDL
MODEL 5
REMARK VINA RESULT:      -7.9      4.271      5.643
REMARK  7 active torsions:
REMARK  status: ('A' for Active; 'I' for Inactive)
REMARK    1  A    between atoms: O1_2  and  C2_3 
REMARK    2  A    between atoms: C7_8  and  N1_9 
REMARK    3  A    between atoms: C12_15  and  C13_16 
REMARK    4  A    between atoms: C16_19  and  C17_20 
REMARK    5  A    between atoms: C17_20  and  C18_21 
REMARK    6  A    between atoms: C18_21  and  C19_22 
REMARK    7  A    between atoms: C19_22  and  C20_23 
ROOT
HETATM    1  C13 UNL     1      24.686   2.960  52.580  1.00  0.00     0.107 A 
HETATM    2  C14 UNL     1      24.689   3.102  51.278  1.00  0.00     0.040 A 
HETATM    3  C15 UNL     1      24.103   4.299  50.683  1.00  0.00     0.034 A 
HETATM    4  C16 UNL     1      23.606   5.155  51.552  1.00  0.00     0.054 A 
HETATM    5  N3  UNL     1      23.561   5.081  52.962  1.00  0.00    -0.261 N 
HETATM    6  O3  UNL     1      24.140   3.913  53.430  1.00  0.00    -0.239 OA
HETATM    7  H30 UNL     1      23.154   5.792  53.605  1.00  0.00     0.195 HD
ENDROOT
BRANCH   1   8
HETATM    8  C12 UNL     1      25.287   1.736  53.172  1.00  0.00     0.220 C 
HETATM    9  N1  UNL     1      24.398   0.611  53.181  1.00  0.00    -0.340 N 
HETATM   10  C8  UNL     1      24.991  -0.627  53.677  1.00  0.00     0.153 C 
HETATM   11  C9  UNL     1      26.136  -1.034  52.847  1.00  0.00    -0.003 C 
HETATM   12  C10 UNL     1      26.859  -0.094  52.258  1.00  0.00     0.050 C 
HETATM   13  C11 UNL     1      26.518   1.331  52.436  1.00  0.00     0.178 C 
HETATM   14  O2  UNL     1      27.376   2.077  51.904  1.00  0.00    -0.291 OA
BRANCH   9  15
HETATM   15  C7  UNL     1      23.016   0.526  52.777  1.00  0.00     0.149 C 
HETATM   16  C6  UNL     1      22.160   0.400  53.786  1.00  0.00     0.056 C 
HETATM   17  C5  UNL     1      20.704   0.288  53.744  1.00  0.00     0.004 C 
HETATM   18  C4  UNL     1      19.897   0.408  52.683  1.00  0.00     0.005 C 
HETATM   19  C3  UNL     1      20.359   0.683  51.327  1.00  0.00     0.064 C 
HETATM   20  C2  UNL     1      21.539   0.770  50.738  1.00  0.00     0.186 C 
HETATM   21  O4  UNL     1      22.777   0.588  51.390  1.00  0.00    -0.271 OA
BRANCH  20  22
HETATM   22  O1  UNL     1      21.793   1.047  49.403  1.00  0.00    -0.335 OA
HETATM   23  C1  UNL     1      21.323   2.266  48.861  1.00  0.00     0.212 C 
ENDBRANCH  20  22
ENDBRANCH   9  15
ENDBRANCH   1   8
BRANCH   4  24
HETATM   24  C17 UNL     1      23.004   6.372  51.052  1.00  0.00     0.027 C 
BRANCH  24  25
HETATM   25  C18 UNL     1      23.053   7.411  50.283  1.00  0.00    -0.024 C 
BRANCH  25  26
HETATM   26  C19 UNL     1      23.054   8.632  49.494  1.00  0.00     0.032 C 
BRANCH  26  27
HETATM   27  C20 UNL     1      21.658   9.053  49.014  1.00  0.00    -0.005 C 
HETATM   28  C21 UNL     1      20.619   8.482  49.912  1.00  0.00     0.020 C 
HETATM   29  C22 UNL     1      19.298   8.241  49.219  1.00  0.00     0.094 C 
HETATM   30  N2  UNL     1      19.355   6.989  48.486  1.00  0.00    -0.296 NA
HETATM   31  C23 UNL     1      19.780   5.894  49.339  1.00  0.00     0.115 C 
HETATM   32  P1  UNL     1      20.609   7.191  47.211  1.00  0.00    -0.055 P 
HETATM   33  C24 UNL     1      21.479   8.801  47.560  1.00  0.00     0.052 C 
HETATM   34  H27 UNL     1      19.922   7.330  45.929  1.00  0.00     0.074 HD
ENDBRANCH  26  27
ENDBRANCH  25  26
ENDBRANCH  24  25
ENDBRANCH   4  24
TORSDOF 7
ENDMDL
MODEL 6
REMARK VINA RESULT:      -7.9      4.849      8.535
REMARK  7 active torsions:
REMARK  status: ('A' for Active; 'I' for Inactive)
REMARK    1  A    between atoms: O1_2  and  C2_3 
REMARK    2  A    between atoms: C7_8  and  N1_9 
REMARK    3  A    between atoms: C12_15  and  C13_16 
REMARK    4  A    between atoms: C16_19  and  C17_20 
REMARK    5  A    between atoms: C17_20  and  C18_21 
REMARK    6  A    between atoms: C18_21  and  C19_22 
REMARK    7  A    between atoms: C19_22  and  C20_23 
ROOT
HETATM    1  C13 UNL     1      27.551   7.488  48.335  1.00  0.00     0.107 A 
HETATM    2  C14 UNL     1      28.198   6.424  47.928  1.00  0.00     0.040 A 
HETATM    3  C15 UNL     1      27.807   5.109  48.425  1.00  0.00     0.034 A 
HETATM    4  C16 UNL     1      26.797   5.122  49.272  1.00  0.00     0.054 A 
HETATM    5  N3  UNL     1      26.048   6.215  49.761  1.00  0.00    -0.261 N 
HETATM    6  O3  UNL     1      26.494   7.416  49.232  1.00  0.00    -0.239 OA
HETATM    7  H30 UNL     1      25.255   6.169  50.434  1.00  0.00     0.195 HD
ENDROOT
BRANCH   1   8
HETATM    8  C12 UNL     1      27.961   8.820  47.819  1.00  0.00     0.220 C 
HETATM    9  N1  UNL     1      27.041   9.371  46.868  1.00  0.00    -0.340 N 
HETATM   10  C8  UNL     1      27.374  10.716  46.410  1.00  0.00     0.153 C 
HETATM   11  C9  UNL     1      27.398  11.667  47.534  1.00  0.00    -0.003 C 
HETATM   12  C10 UNL     1      27.749  11.224  48.731  1.00  0.00     0.050 C 
HETATM   13  C11 UNL     1      28.107   9.806  48.927  1.00  0.00     0.178 C 
HETATM   14  O2  UNL     1      28.522   9.596  50.093  1.00  0.00    -0.291 OA
BRANCH   9  15
HETATM   15  C7  UNL     1      25.845   8.795  46.303  1.00  0.00     0.149 C 
HETATM   16  C6  UNL     1      25.918   8.560  44.997  1.00  0.00     0.056 C 
HETATM   17  C5  UNL     1      24.908   7.989  44.110  1.00  0.00     0.004 C 
HETATM   18  C4  UNL     1      23.721   7.465  44.440  1.00  0.00     0.005 C 
HETATM   19  C3  UNL     1      23.216   7.373  45.805  1.00  0.00     0.064 C 
HETATM   20  C2  UNL     1      23.618   7.811  46.985  1.00  0.00     0.186 C 
HETATM   21  O4  UNL     1      24.787   8.569  47.205  1.00  0.00    -0.271 OA
BRANCH  20  22
HETATM   22  O1  UNL     1      22.992   7.621  48.208  1.00  0.00    -0.335 OA
HETATM   23  C1  UNL     1      23.016   8.671  49.155  1.00  0.00     0.212 C 
ENDBRANCH  20  22
ENDBRANCH   9  15
ENDBRANCH   1   8
BRANCH   4  24
HETATM   24  C17 UNL     1      26.340   3.862  49.818  1.00  0.00     0.027 C 
BRANCH  24  25
HETATM   25  C18 UNL     1      26.519   2.855  50.609  1.00  0.00    -0.024 C 
BRANCH  25  26
HETATM   26  C19 UNL     1      26.620   1.741  51.536  1.00  0.00     0.032 C 
BRANCH  26  27
HETATM   27  C20 UNL     1      27.099   2.150  52.936  1.00  0.00    -0.005 C 
HETATM   28  C21 UNL     1      28.547   1.845  53.086  1.00  0.00     0.020 C 
HETATM   29  C22 UNL     1      28.953   1.560  54.513  1.00  0.00     0.094 C 
HETATM   30  N2  UNL     1      28.627   0.183  54.845  1.00  0.00    -0.296 NA
HETATM   31  C23 UNL     1      29.189  -0.742  53.877  1.00  0.00     0.115 C 
HETATM   32  P1  UNL     1      26.836   0.037  54.748  1.00  0.00    -0.055 P 
HETATM   33  C24 UNL     1      26.204   1.620  53.999  1.00  0.00     0.052 C 
HETATM   34  H27 UNL     1      26.322  -0.042  56.113  1.00  0.00     0.074 HD
ENDBRANCH  26  27
ENDBRANCH  25  26
ENDBRANCH  24  25
ENDBRANCH   4  24
TORSDOF 7
ENDMDL
MODEL 7
REMARK VINA RESULT:      -7.9      2.608      5.265
REMARK  7 active torsions:
REMARK  status: ('A' for Active; 'I' for Inactive)
REMARK    1  A    between atoms: O1_2  and  C2_3 
REMARK    2  A    between atoms: C7_8  and  N1_9 
REMARK    3  A    between atoms: C12_15  and  C13_16 
REMARK    4  A    between atoms: C16_19  and  C17_20 
REMARK    5  A    between atoms: C17_20  and  C18_21 
REMARK    6  A    between atoms: C18_21  and  C19_22 
REMARK    7  A    between atoms: C19_22  and  C20_23 
ROOT
HETATM    1  C13 UNL     1      22.687   1.810  51.322  1.00  0.00     0.107 A 
HETATM    2  C14 UNL     1      22.722   1.680  50.019  1.00  0.00     0.040 A 
HETATM    3  C15 UNL     1      23.270   2.758  49.202  1.00  0.00     0.034 A 
HETATM    4  C16 UNL     1      23.694   3.801  49.886  1.00  0.00     0.054 A 
HETATM    5  N3  UNL     1      23.694   4.022  51.281  1.00  0.00    -0.261 N 
HETATM    6  O3  UNL     1      23.156   2.946  51.967  1.00  0.00    -0.239 OA
HETATM    7  H30 UNL     1      24.043   4.871  51.772  1.00  0.00     0.195 HD
ENDROOT
BRANCH   1   8
HETATM    8  C12 UNL     1      22.127   0.703  52.140  1.00  0.00     0.220 C 
HETATM    9  N1  UNL     1      23.095   0.075  52.990  1.00  0.00    -0.340 N 
HETATM   10  C8  UNL     1      22.554  -0.959  53.867  1.00  0.00     0.153 C 
HETATM   11  C9  UNL     1      21.535  -0.403  54.773  1.00  0.00    -0.003 C 
HETATM   12  C10 UNL     1      20.804   0.619  54.353  1.00  0.00     0.050 C 
HETATM   13  C11 UNL     1      21.013   1.182  53.006  1.00  0.00     0.178 C 
HETATM   14  O2  UNL     1      20.157   2.062  52.740  1.00  0.00    -0.291 OA
BRANCH   9  15
HETATM   15  C7  UNL     1      24.514   0.312  53.102  1.00  0.00     0.149 C 
HETATM   16  C6  UNL     1      24.829   1.482  53.648  1.00  0.00     0.056 C 
HETATM   17  C5  UNL     1      26.151   2.044  53.912  1.00  0.00     0.004 C 
HETATM   18  C4  UNL     1      27.343   1.452  53.770  1.00  0.00     0.005 C 
HETATM   19  C3  UNL     1      27.529   0.082  53.306  1.00  0.00     0.064 C 
HETATM   20  C2  UNL     1      26.737  -0.859  52.821  1.00  0.00     0.186 C 
HETATM   21  O4  UNL     1      25.348  -0.716  52.622  1.00  0.00    -0.271 OA
BRANCH  20  22
HETATM   22  O1  UNL     1      27.100  -2.137  52.422  1.00  0.00    -0.335 OA
HETATM   23  C1  UNL     1      28.292  -2.697  52.936  1.00  0.00     0.212 C 
ENDBRANCH  20  22
ENDBRANCH   9  15
ENDBRANCH   1   8
BRANCH   4  24
HETATM   24  C17 UNL     1      24.254   4.920  49.159  1.00  0.00     0.027 C 
BRANCH  24  25
HETATM   25  C18 UNL     1      25.242   5.721  48.926  1.00  0.00    -0.024 C 
BRANCH  25  26
HETATM   26  C19 UNL     1      26.383   6.555  48.585  1.00  0.00     0.032 C 
BRANCH  26  27
HETATM   27  C20 UNL     1      26.110   8.058  48.735  1.00  0.00    -0.005 C 
HETATM   28  C21 UNL     1      26.217   8.727  47.410  1.00  0.00     0.020 C 
HETATM   29  C22 UNL     1      26.638  10.175  47.505  1.00  0.00     0.094 C 
HETATM   30  N2  UNL     1      28.080  10.252  47.662  1.00  0.00    -0.296 NA
HETATM   31  C23 UNL     1      28.767   9.505  46.623  1.00  0.00     0.115 C 
HETATM   32  P1  UNL     1      28.473   9.467  49.233  1.00  0.00    -0.055 P 
HETATM   33  C24 UNL     1      26.909   8.655  49.837  1.00  0.00     0.052 C 
HETATM   34  H27 UNL     1      28.818  10.521  50.183  1.00  0.00     0.074 HD
ENDBRANCH  26  27
ENDBRANCH  25  26
ENDBRANCH  24  25
ENDBRANCH   4  24
TORSDOF 7
ENDMDL
MODEL 8
REMARK VINA RESULT:      -7.9      2.716      4.999
REMARK  7 active torsions:
REMARK  status: ('A' for Active; 'I' for Inactive)
REMARK    1  A    between atoms: O1_2  and  C2_3 
REMARK    2  A    between atoms: C7_8  and  N1_9 
REMARK    3  A    between atoms: C12_15  and  C13_16 
REMARK    4  A    between atoms: C16_19  and  C17_20 
REMARK    5  A    between atoms: C17_20  and  C18_21 
REMARK    6  A    between atoms: C18_21  and  C19_22 
REMARK    7  A    between atoms: C19_22  and  C20_23 
ROOT
HETATM    1  C13 UNL     1      22.639   3.338  51.583  1.00  0.00     0.107 A 
HETATM    2  C14 UNL     1      22.683   3.831  50.370  1.00  0.00     0.040 A 
HETATM    3  C15 UNL     1      23.230   5.167  50.155  1.00  0.00     0.034 A 
HETATM    4  C16 UNL     1      23.644   5.771  51.251  1.00  0.00     0.054 A 
HETATM    5  N3  UNL     1      23.633   5.316  52.588  1.00  0.00    -0.261 N 
HETATM    6  O3  UNL     1      23.097   4.043  52.688  1.00  0.00    -0.239 OA
HETATM    7  H30 UNL     1      23.975   5.838  53.421  1.00  0.00     0.195 HD
ENDROOT
BRANCH   1   8
HETATM    8  C12 UNL     1      22.079   1.976  51.786  1.00  0.00     0.220 C 
HETATM    9  N1  UNL     1      23.033   1.038  52.298  1.00  0.00    -0.340 N 
HETATM   10  C8  UNL     1      22.489  -0.285  52.587  1.00  0.00     0.153 C 
HETATM   11  C9  UNL     1      21.425  -0.209  53.603  1.00  0.00    -0.003 C 
HETATM   12  C10 UNL     1      20.684   0.887  53.662  1.00  0.00     0.050 C 
HETATM   13  C11 UNL     1      20.924   2.002  52.727  1.00  0.00     0.178 C 
HETATM   14  O2  UNL     1      20.056   2.901  52.854  1.00  0.00    -0.291 OA
BRANCH   9  15
HETATM   15  C7  UNL     1      24.441   1.208  52.565  1.00  0.00     0.149 C 
HETATM   16  C6  UNL     1      24.837   0.717  53.735  1.00  0.00     0.056 C 
HETATM   17  C5  UNL     1      26.174   0.714  54.322  1.00  0.00     0.004 C 
HETATM   18  C4  UNL     1      27.324   1.102  53.758  1.00  0.00     0.005 C 
HETATM   19  C3  UNL     1      27.439   1.618  52.399  1.00  0.00     0.064 C 
HETATM   20  C2  UNL     1      26.584   1.949  51.447  1.00  0.00     0.186 C 
HETATM   21  O4  UNL     1      25.181   1.864  51.562  1.00  0.00    -0.271 OA
BRANCH  20  22
HETATM   22  O1  UNL     1      26.883   2.435  50.182  1.00  0.00    -0.335 OA
HETATM   23  C1  UNL     1      26.516   3.761  49.859  1.00  0.00     0.212 C 
ENDBRANCH  20  22
ENDBRANCH   9  15
ENDBRANCH   1   8
BRANCH   4  24
HETATM   24  C17 UNL     1      24.203   7.101  51.134  1.00  0.00     0.027 C 
BRANCH  24  25
HETATM   25  C18 UNL     1      24.766   8.019  50.418  1.00  0.00    -0.024 C 
BRANCH  25  26
HETATM   26  C19 UNL     1      25.467   9.066  49.694  1.00  0.00     0.032 C 
BRANCH  26  27
HETATM   27  C20 UNL     1      24.996   9.230  48.242  1.00  0.00    -0.005 C 
HETATM   28  C21 UNL     1      25.452   8.072  47.427  1.00  0.00     0.020 C 
HETATM   29  C22 UNL     1      25.657   8.412  45.969  1.00  0.00     0.094 C 
HETATM   30  N2  UNL     1      26.952   9.048  45.795  1.00  0.00    -0.296 NA
HETATM   31  C23 UNL     1      28.017   8.244  46.368  1.00  0.00     0.115 C 
HETATM   32  P1  UNL     1      26.897  10.595  46.713  1.00  0.00    -0.055 P 
HETATM   33  C24 UNL     1      25.322  10.578  47.707  1.00  0.00     0.052 C 
HETATM   34  H27 UNL     1      26.795  11.683  45.744  1.00  0.00     0.074 HD
ENDBRANCH  26  27
ENDBRANCH  25  26
ENDBRANCH  24  25
ENDBRANCH   4  24
TORSDOF 7
ENDMDL
MODEL 9
REMARK VINA RESULT:      -7.8      3.938      4.818
REMARK  7 active torsions:
REMARK  status: ('A' for Active; 'I' for Inactive)
REMARK    1  A    between atoms: O1_2  and  C2_3 
REMARK    2  A    between atoms: C7_8  and  N1_9 
REMARK    3  A    between atoms: C12_15  and  C13_16 
REMARK    4  A    between atoms: C16_19  and  C17_20 
REMARK    5  A    between atoms: C17_20  and  C18_21 
REMARK    6  A    between atoms: C18_21  and  C19_22 
REMARK    7  A    between atoms: C19_22  and  C20_23 
ROOT
HETATM    1  C13 UNL     1      24.478   2.955  52.526  1.00  0.00     0.107 A 
HETATM    2  C14 UNL     1      24.200   2.996  51.246  1.00  0.00     0.040 A 
HETATM    3  C15 UNL     1      23.512   4.159  50.696  1.00  0.00     0.034 A 
HETATM    4  C16 UNL     1      23.225   5.094  51.579  1.00  0.00     0.054 A 
HETATM    5  N3  UNL     1      23.487   5.131  52.967  1.00  0.00    -0.261 N 
HETATM    6  O3  UNL     1      24.141   3.986  53.392  1.00  0.00    -0.239 OA
HETATM    7  H30 UNL     1      23.237   5.900  53.622  1.00  0.00     0.195 HD
ENDROOT
BRANCH   1   8
HETATM    8  C12 UNL     1      25.181   1.764  53.071  1.00  0.00     0.220 C 
HETATM    9  N1  UNL     1      24.354   0.595  53.135  1.00  0.00    -0.340 N 
HETATM   10  C8  UNL     1      25.042  -0.611  53.586  1.00  0.00     0.153 C 
HETATM   11  C9  UNL     1      26.149  -0.958  52.680  1.00  0.00    -0.003 C 
HETATM   12  C10 UNL     1      26.782   0.020  52.049  1.00  0.00     0.050 C 
HETATM   13  C11 UNL     1      26.379   1.424  52.254  1.00  0.00     0.178 C 
HETATM   14  O2  UNL     1      27.160   2.214  51.669  1.00  0.00    -0.291 OA
BRANCH   9  15
HETATM   15  C7  UNL     1      22.954   0.438  52.823  1.00  0.00     0.149 C 
HETATM   16  C6  UNL     1      22.162   0.377  53.888  1.00  0.00     0.056 C 
HETATM   17  C5  UNL     1      20.711   0.224  53.944  1.00  0.00     0.004 C 
HETATM   18  C4  UNL     1      19.841   0.229  52.926  1.00  0.00     0.005 C 
HETATM   19  C3  UNL     1      20.215   0.396  51.527  1.00  0.00     0.064 C 
HETATM   20  C2  UNL     1      21.357   0.463  50.863  1.00  0.00     0.186 C 
HETATM   21  O4  UNL     1      22.635   0.371  51.453  1.00  0.00    -0.271 OA
BRANCH  20  22
HETATM   22  O1  UNL     1      21.524   0.629  49.497  1.00  0.00    -0.335 OA
HETATM   23  C1  UNL     1      20.939   1.754  48.871  1.00  0.00     0.212 C 
ENDBRANCH  20  22
ENDBRANCH   9  15
ENDBRANCH   1   8
BRANCH   4  24
HETATM   24  C17 UNL     1      22.542   6.286  51.123  1.00  0.00     0.027 C 
BRANCH  24  25
HETATM   25  C18 UNL     1      22.538   7.376  50.428  1.00  0.00    -0.024 C 
BRANCH  25  26
HETATM   26  C19 UNL     1      22.434   8.575  49.613  1.00  0.00     0.032 C 
BRANCH  26  27
HETATM   27  C20 UNL     1      23.628   8.781  48.670  1.00  0.00    -0.005 C 
HETATM   28  C21 UNL     1      23.424  10.009  47.856  1.00  0.00     0.020 C 
HETATM   29  C22 UNL     1      24.110   9.954  46.510  1.00  0.00     0.094 C 
HETATM   30  N2  UNL     1      23.290   9.199  45.578  1.00  0.00    -0.296 NA
HETATM   31  C23 UNL     1      21.934   9.715  45.527  1.00  0.00     0.115 C 
HETATM   32  P1  UNL     1      23.200   7.517  46.213  1.00  0.00    -0.055 P 
HETATM   33  C24 UNL     1      23.952   7.541  47.916  1.00  0.00     0.052 C 
HETATM   34  H27 UNL     1      24.045   6.677  45.368  1.00  0.00     0.074 HD
ENDBRANCH  26  27
ENDBRANCH  25  26
ENDBRANCH  24  25
ENDBRANCH   4  24
TORSDOF 7
ENDMDL
