MODEL 1
REMARK VINA RESULT:      -7.8      0.000      0.000
REMARK  7 active torsions:
REMARK  status: ('A' for Active; 'I' for Inactive)
REMARK    1  A    between atoms: C2_2  and  C3_3 
REMARK       I    between atoms: C3_3  and  N1_5 
REMARK    2  A    between atoms: C5_7  and  O2_8 
REMARK    3  A    between atoms: C7_10  and  O3_11 
REMARK    4  A    between atoms: O3_11  and  C8_12 
REMARK    5  A    between atoms: C9_14  and  N3_15 
REMARK    6  A    between atoms: N3_15  and  C10_16 
REMARK    7  A    between atoms: C13_21  and  N6_22 
ROOT
HETATM    1  C8  UNL     1      23.873   2.201  51.674  1.00  0.00     0.150 A 
HETATM    2  N2  UNL     1      23.305   3.072  52.460  1.00  0.00    -0.243 NA
HETATM    3  C9  UNL     1      22.187   3.684  51.804  1.00  0.00     0.220 A 
HETATM    4  C15 UNL     1      22.156   3.034  50.452  1.00  0.00     0.050 A 
HETATM    5  C16 UNL     1      23.166   2.158  50.399  1.00  0.00     0.075 A 
HETATM    6  C17 UNL     1      22.277   2.315  49.218  1.00  0.00     0.115 A 
HETATM    7 CL1  UNL     1      21.271   0.912  48.847  1.00  0.00    -0.123 Cl
ENDROOT
BRANCH   1   8
HETATM    8  O3  UNL     1      24.991   1.423  51.999  1.00  0.00    -0.327 OA
BRANCH   8   9
HETATM    9  C7  UNL     1      25.124   1.033  53.349  1.00  0.00     0.178 C 
HETATM   10  C5  UNL     1      25.602  -0.390  53.522  1.00  0.00     0.169 C 
HETATM   11  C4  UNL     1      26.732  -0.185  54.538  1.00  0.00     0.160 C 
HETATM   12  N1  UNL     1      27.389   0.995  54.007  1.00  0.00    -0.344 N 
HETATM   13  C3  UNL     1      28.682   1.418  53.528  1.00  0.00     0.239 C 
HETATM   14  C18 UNL     1      26.193   1.809  54.091  1.00  0.00     0.161 C 
HETATM   15  O1  UNL     1      28.804   2.625  53.134  1.00  0.00    -0.269 OA
BRANCH  10  16
HETATM   16  O2  UNL     1      26.251  -0.835  52.363  1.00  0.00    -0.386 OA
HETATM   17  C6  UNL     1      26.708  -2.129  52.451  1.00  0.00     0.202 C 
ENDBRANCH  10  16
BRANCH  13  18
HETATM   18  C2  UNL     1      29.801   0.489  53.501  1.00  0.00     0.048 C 
HETATM   19  C1  UNL     1      29.708  -0.771  53.831  1.00  0.00     0.037 C 
ENDBRANCH  13  18
ENDBRANCH   8   9
ENDBRANCH   1   8
BRANCH   3  20
HETATM   20  N3  UNL     1      20.921   3.324  52.447  1.00  0.00    -0.362 N 
HETATM   21  H12 UNL     1      20.473   4.028  53.080  1.00  0.00     0.162 HD
BRANCH  20  22
HETATM   22  C10 UNL     1      20.240   2.081  52.278  1.00  0.00     0.095 A 
HETATM   23  C11 UNL     1      19.133   1.848  51.478  1.00  0.00     0.145 A 
HETATM   24  N4  UNL     1      18.763   0.578  51.561  1.00  0.00    -0.281 N 
HETATM   25  C12 UNL     1      17.679  -0.151  50.924  1.00  0.00     0.179 C 
HETATM   26  N5  UNL     1      19.618  -0.016  52.405  1.00  0.00    -0.153 NA
HETATM   27  C13 UNL     1      20.520   0.859  52.855  1.00  0.00     0.171 A 
BRANCH  27  28
HETATM   28  N6  UNL     1      21.575   0.587  53.763  1.00  0.00    -0.376 N 
HETATM   29  C14 UNL     1      21.777  -0.555  54.634  1.00  0.00     0.148 C 
HETATM   30  H17 UNL     1      22.366   1.260  53.879  1.00  0.00     0.160 HD
ENDBRANCH  27  28
ENDBRANCH  20  22
ENDBRANCH   3  20
TORSDOF 7
ENDMDL
MODEL 2
REMARK VINA RESULT:      -7.8      4.232      6.215
REMARK  7 active torsions:
REMARK  status: ('A' for Active; 'I' for Inactive)
REMARK    1  A    between atoms: C2_2  and  C3_3 
REMARK       I    between atoms: C3_3  and  N1_5 
REMARK    2  A    between atoms: C5_7  and  O2_8 
REMARK    3  A    between atoms: C7_10  and  O3_11 
REMARK    4  A    between atoms: O3_11  and  C8_12 
REMARK    5  A    between atoms: C9_14  and  N3_15 
REMARK    6  A    between atoms: N3_15  and  C10_16 
REMARK    7  A    between atoms: C13_21  and  N6_22 
ROOT
HETATM    1  C8  UNL     1      25.194   2.859  50.686  1.00  0.00     0.150 A 
HETATM    2  N2  UNL     1      25.959   3.666  50.006  1.00  0.00    -0.243 NA
HETATM    3  C9  UNL     1      25.234   4.842  49.624  1.00  0.00     0.220 A 
HETATM    4  C15 UNL     1      23.863   4.627  50.193  1.00  0.00     0.050 A 
HETATM    5  C16 UNL     1      23.864   3.443  50.819  1.00  0.00     0.075 A 
HETATM    6  C17 UNL     1      22.619   4.256  50.801  1.00  0.00     0.115 A 
HETATM    7 CL1  UNL     1      22.118   4.889  52.372  1.00  0.00    -0.123 Cl
ENDROOT
BRANCH   1   8
HETATM    8  O3  UNL     1      25.583   1.621  51.212  1.00  0.00    -0.327 OA
BRANCH   8   9
HETATM    9  C7  UNL     1      25.255   1.372  52.561  1.00  0.00     0.178 C 
HETATM   10  C5  UNL     1      25.526  -0.051  52.995  1.00  0.00     0.169 C 
HETATM   11  C4  UNL     1      26.298   0.196  54.297  1.00  0.00     0.160 C 
HETATM   12  N1  UNL     1      27.190   1.271  53.906  1.00  0.00    -0.344 N 
HETATM   13  C3  UNL     1      28.600   1.563  53.830  1.00  0.00     0.239 C 
HETATM   14  C18 UNL     1      26.105   2.158  53.537  1.00  0.00     0.161 C 
HETATM   15  O1  UNL     1      28.946   2.712  53.395  1.00  0.00    -0.269 OA
BRANCH  10  16
HETATM   16  O2  UNL     1      26.461  -0.655  52.144  1.00  0.00    -0.386 OA
HETATM   17  C6  UNL     1      26.760  -1.952  52.488  1.00  0.00     0.202 C 
ENDBRANCH  10  16
BRANCH  13  18
HETATM   18  C2  UNL     1      29.585   0.573  54.237  1.00  0.00     0.048 C 
HETATM   19  C1  UNL     1      29.925  -0.456  53.508  1.00  0.00     0.037 C 
ENDBRANCH  13  18
ENDBRANCH   8   9
ENDBRANCH   1   8
BRANCH   3  20
HETATM   20  N3  UNL     1      25.757   6.037  50.290  1.00  0.00    -0.362 N 
HETATM   21  H12 UNL     1      25.866   6.012  51.331  1.00  0.00     0.162 HD
BRANCH  20  22
HETATM   22  C10 UNL     1      26.134   7.245  49.630  1.00  0.00     0.095 A 
HETATM   23  C11 UNL     1      25.340   8.366  49.445  1.00  0.00     0.145 A 
HETATM   24  N4  UNL     1      26.012   9.303  48.791  1.00  0.00    -0.281 N 
HETATM   25  C12 UNL     1      25.629  10.638  48.361  1.00  0.00     0.179 C 
HETATM   26  N5  UNL     1      27.232   8.803  48.551  1.00  0.00    -0.153 NA
HETATM   27  C13 UNL     1      27.340   7.567  49.043  1.00  0.00     0.171 A 
BRANCH  27  28
HETATM   28  N6  UNL     1      28.484   6.732  48.974  1.00  0.00    -0.376 N 
HETATM   29  C14 UNL     1      28.694   5.506  48.229  1.00  0.00     0.148 C 
HETATM   30  H17 UNL     1      29.349   6.968  49.511  1.00  0.00     0.160 HD
ENDBRANCH  27  28
ENDBRANCH  20  22
ENDBRANCH   3  20
TORSDOF 7
ENDMDL
MODEL 3
REMARK VINA RESULT:      -7.7      3.155      6.716
REMARK  7 active torsions:
REMARK  status: ('A' for Active; 'I' for Inactive)
REMARK    1  A    between atoms: C2_2  and  C3_3 
REMARK       I    between atoms: C3_3  and  N1_5 
REMARK    2  A    between atoms: C5_7  and  O2_8 
REMARK    3  A    between atoms: C7_10  and  O3_11 
REMARK    4  A    between atoms: O3_11  and  C8_12 
REMARK    5  A    between atoms: C9_14  and  N3_15 
REMARK    6  A    between atoms: N3_15  and  C10_16 
REMARK    7  A    between atoms: C13_21  and  N6_22 
ROOT
HETATM    1  C8  UNL     1      23.735   3.133  52.353  1.00  0.00     0.150 A 
HETATM    2  N2  UNL     1      24.778   2.564  52.891  1.00  0.00    -0.243 NA
HETATM    3  C9  UNL     1      24.467   1.223  53.290  1.00  0.00     0.220 A 
HETATM    4  C15 UNL     1      23.028   1.050  52.901  1.00  0.00     0.050 A 
HETATM    5  C16 UNL     1      22.617   2.197  52.347  1.00  0.00     0.075 A 
HETATM    6  C17 UNL     1      21.662   1.063  52.468  1.00  0.00     0.115 A 
HETATM    7 CL1  UNL     1      21.158   0.345  50.935  1.00  0.00    -0.123 Cl
ENDROOT
BRANCH   1   8
HETATM    8  O3  UNL     1      23.691   4.441  51.855  1.00  0.00    -0.327 OA
BRANCH   8   9
HETATM    9  C7  UNL     1      23.277   4.597  50.516  1.00  0.00     0.178 C 
HETATM   10  C5  UNL     1      23.385   6.019  50.012  1.00  0.00     0.169 C 
HETATM   11  C4  UNL     1      24.117   5.791  48.684  1.00  0.00     0.160 C 
HETATM   12  N1  UNL     1      25.129   4.827  49.072  1.00  0.00    -0.344 N 
HETATM   13  C3  UNL     1      26.563   4.679  49.089  1.00  0.00     0.239 C 
HETATM   14  C18 UNL     1      24.157   3.855  49.530  1.00  0.00     0.161 C 
HETATM   15  O1  UNL     1      27.043   3.590  49.551  1.00  0.00    -0.269 OA
BRANCH  10  16
HETATM   16  O2  UNL     1      24.292   6.749  50.791  1.00  0.00    -0.386 OA
HETATM   17  C6  UNL     1      24.128   8.110  50.695  1.00  0.00     0.202 C 
ENDBRANCH  10  16
BRANCH  13  18
HETATM   18  C2  UNL     1      27.424   5.742  48.595  1.00  0.00     0.048 C 
HETATM   19  C1  UNL     1      28.672   5.567  48.251  1.00  0.00     0.037 C 
ENDBRANCH  13  18
ENDBRANCH   8   9
ENDBRANCH   1   8
BRANCH   3  20
HETATM   20  N3  UNL     1      25.212   0.239  52.500  1.00  0.00    -0.362 N 
HETATM   21  H12 UNL     1      24.794  -0.084  51.596  1.00  0.00     0.162 HD
BRANCH  20  22
HETATM   22  C10 UNL     1      26.473  -0.319  52.865  1.00  0.00     0.095 A 
HETATM   23  C11 UNL     1      26.876  -1.634  52.689  1.00  0.00     0.145 A 
HETATM   24  N4  UNL     1      28.109  -1.803  53.142  1.00  0.00    -0.281 N 
HETATM   25  C12 UNL     1      28.966  -2.977  53.185  1.00  0.00     0.179 C 
HETATM   26  N5  UNL     1      28.512  -0.613  53.610  1.00  0.00    -0.153 NA
HETATM   27  C13 UNL     1      27.553   0.302  53.459  1.00  0.00     0.171 A 
BRANCH  27  28
HETATM   28  N6  UNL     1      27.625   1.666  53.839  1.00  0.00    -0.376 N 
HETATM   29  C14 UNL     1      28.705   2.620  53.671  1.00  0.00     0.148 C 
HETATM   30  H17 UNL     1      26.820   2.130  54.318  1.00  0.00     0.160 HD
ENDBRANCH  27  28
ENDBRANCH  20  22
ENDBRANCH   3  20
TORSDOF 7
ENDMDL
MODEL 4
REMARK VINA RESULT:      -7.6      2.887      4.840
REMARK  7 active torsions:
REMARK  status: ('A' for Active; 'I' for Inactive)
REMARK    1  A    between atoms: C2_2  and  C3_3 
REMARK       I    between atoms: C3_3  and  N1_5 
REMARK    2  A    between atoms: C5_7  and  O2_8 
REMARK    3  A    between atoms: C7_10  and  O3_11 
REMARK    4  A    between atoms: O3_11  and  C8_12 
REMARK    5  A    between atoms: C9_14  and  N3_15 
REMARK    6  A    between atoms: N3_15  and  C10_16 
REMARK    7  A    between atoms: C13_21  and  N6_22 
ROOT
HETATM    1  C8  UNL     1      24.397   2.279  50.726  1.00  0.00     0.150 A 
HETATM    2  N2  UNL     1      24.572   3.099  49.729  1.00  0.00    -0.243 NA
HETATM    3  C9  UNL     1      23.310   3.583  49.250  1.00  0.00     0.220 A 
HETATM    4  C15 UNL     1      22.302   2.912  50.136  1.00  0.00     0.050 A 
HETATM    5  C16 UNL     1      22.972   2.143  51.004  1.00  0.00     0.075 A 
HETATM    6  C17 UNL     1      21.487   2.189  51.068  1.00  0.00     0.115 A 
HETATM    7 CL1  UNL     1      20.825   2.947  52.519  1.00  0.00    -0.123 Cl
ENDROOT
BRANCH   1   8
HETATM    8  O3  UNL     1      25.418   1.625  51.427  1.00  0.00    -0.327 OA
BRANCH   8   9
HETATM    9  C7  UNL     1      25.177   1.349  52.790  1.00  0.00     0.178 C 
HETATM   10  C5  UNL     1      25.493  -0.076  53.182  1.00  0.00     0.169 C 
HETATM   11  C4  UNL     1      26.342   0.160  54.438  1.00  0.00     0.160 C 
HETATM   12  N1  UNL     1      27.193   1.254  54.010  1.00  0.00    -0.344 N 
HETATM   13  C3  UNL     1      28.592   1.566  53.852  1.00  0.00     0.239 C 
HETATM   14  C18 UNL     1      26.077   2.132  53.724  1.00  0.00     0.161 C 
HETATM   15  O1  UNL     1      28.896   2.727  53.416  1.00  0.00    -0.269 OA
BRANCH  10  16
HETATM   16  O2  UNL     1      26.380  -0.654  52.264  1.00  0.00    -0.386 OA
HETATM   17  C6  UNL     1      26.702  -1.958  52.556  1.00  0.00     0.202 C 
ENDBRANCH  10  16
BRANCH  13  18
HETATM   18  C2  UNL     1      29.613   0.583  54.180  1.00  0.00     0.048 C 
HETATM   19  C1  UNL     1      29.884  -0.458  53.439  1.00  0.00     0.037 C 
ENDBRANCH  13  18
ENDBRANCH   8   9
ENDBRANCH   1   8
BRANCH   3  20
HETATM   20  N3  UNL     1      23.157   5.020  49.492  1.00  0.00    -0.362 N 
HETATM   21  H12 UNL     1      22.186   5.407  49.550  1.00  0.00     0.162 HD
BRANCH  20  22
HETATM   22  C10 UNL     1      24.232   5.943  49.657  1.00  0.00     0.095 A 
HETATM   23  C11 UNL     1      25.079   6.410  48.664  1.00  0.00     0.145 A 
HETATM   24  N4  UNL     1      25.964   7.256  49.172  1.00  0.00    -0.281 N 
HETATM   25  C12 UNL     1      27.046   8.003  48.552  1.00  0.00     0.179 C 
HETATM   26  N5  UNL     1      25.700   7.343  50.484  1.00  0.00    -0.153 NA
HETATM   27  C13 UNL     1      24.664   6.567  50.809  1.00  0.00     0.171 A 
BRANCH  27  28
HETATM   28  N6  UNL     1      24.108   6.408  52.104  1.00  0.00    -0.376 N 
HETATM   29  C14 UNL     1      23.695   5.202  52.794  1.00  0.00     0.148 C 
HETATM   30  H17 UNL     1      23.940   7.238  52.717  1.00  0.00     0.160 HD
ENDBRANCH  27  28
ENDBRANCH  20  22
ENDBRANCH   3  20
TORSDOF 7
ENDMDL
MODEL 5
REMARK VINA RESULT:      -7.6      6.343      9.852
REMARK  7 active torsions:
REMARK  status: ('A' for Active; 'I' for Inactive)
REMARK    1  A    between atoms: C2_2  and  C3_3 
REMARK       I    between atoms: C3_3  and  N1_5 
REMARK    2  A    between atoms: C5_7  and  O2_8 
REMARK    3  A    between atoms: C7_10  and  O3_11 
REMARK    4  A    between atoms: O3_11  and  C8_12 
REMARK    5  A    between atoms: C9_14  and  N3_15 
REMARK    6  A    between atoms: N3_15  and  C10_16 
REMARK    7  A    between atoms: C13_21  and  N6_22 
ROOT
HETATM    1  C8  UNL     1      26.815   5.095  48.886  1.00  0.00     0.150 A 
HETATM    2  N2  UNL     1      27.985   4.620  48.565  1.00  0.00    -0.243 NA
HETATM    3  C9  UNL     1      28.890   5.686  48.251  1.00  0.00     0.220 A 
HETATM    4  C15 UNL     1      28.069   6.928  48.435  1.00  0.00     0.050 A 
HETATM    5  C16 UNL     1      26.841   6.551  48.813  1.00  0.00     0.075 A 
HETATM    6  C17 UNL     1      27.143   7.999  48.657  1.00  0.00     0.115 A 
HETATM    7 CL1  UNL     1      27.129   8.930  50.158  1.00  0.00    -0.123 Cl
ENDROOT
BRANCH   1   8
HETATM    8  O3  UNL     1      25.699   4.330  49.248  1.00  0.00    -0.327 OA
BRANCH   8   9
HETATM    9  C7  UNL     1      24.495   5.029  49.475  1.00  0.00     0.178 C 
HETATM   10  C5  UNL     1      23.275   4.324  48.929  1.00  0.00     0.169 C 
HETATM   11  C4  UNL     1      22.345   4.388  50.147  1.00  0.00     0.160 C 
HETATM   12  N1  UNL     1      23.254   4.045  51.223  1.00  0.00    -0.344 N 
HETATM   13  C3  UNL     1      23.410   3.060  52.265  1.00  0.00     0.239 C 
HETATM   14  C18 UNL     1      24.146   5.152  50.945  1.00  0.00     0.161 C 
HETATM   15  O1  UNL     1      24.430   3.156  53.027  1.00  0.00    -0.269 OA
BRANCH  10  16
HETATM   16  O2  UNL     1      23.532   2.958  48.756  1.00  0.00    -0.386 OA
HETATM   17  C6  UNL     1      22.552   2.298  48.053  1.00  0.00     0.202 C 
ENDBRANCH  10  16
BRANCH  13  18
HETATM   18  C2  UNL     1      22.431   1.997  52.432  1.00  0.00     0.048 C 
HETATM   19  C1  UNL     1      22.368   0.940  51.667  1.00  0.00     0.037 C 
ENDBRANCH  13  18
ENDBRANCH   8   9
ENDBRANCH   1   8
BRANCH   3  20
HETATM   20  N3  UNL     1      29.975   5.778  49.231  1.00  0.00    -0.362 N 
HETATM   21  H12 UNL     1      29.812   5.375  50.184  1.00  0.00     0.162 HD
BRANCH  20  22
HETATM   22  C10 UNL     1      31.248   6.377  48.991  1.00  0.00     0.095 A 
HETATM   23  C11 UNL     1      32.354   5.765  48.422  1.00  0.00     0.145 A 
HETATM   24  N4  UNL     1      33.366   6.617  48.350  1.00  0.00    -0.281 N 
HETATM   25  C12 UNL     1      34.720   6.463  47.842  1.00  0.00     0.179 C 
HETATM   26  N5  UNL     1      32.930   7.775  48.867  1.00  0.00    -0.153 NA
HETATM   27  C13 UNL     1      31.660   7.666  49.262  1.00  0.00     0.171 A 
BRANCH  27  28
HETATM   28  N6  UNL     1      30.874   8.686  49.854  1.00  0.00    -0.376 N 
HETATM   29  C14 UNL     1      30.510   9.993  49.340  1.00  0.00     0.148 C 
HETATM   30  H17 UNL     1      30.456   8.555  50.803  1.00  0.00     0.160 HD
ENDBRANCH  27  28
ENDBRANCH  20  22
ENDBRANCH   3  20
TORSDOF 7
ENDMDL
MODEL 6
REMARK VINA RESULT:      -7.6      3.342      6.663
REMARK  7 active torsions:
REMARK  status: ('A' for Active; 'I' for Inactive)
REMARK    1  A    between atoms: C2_2  and  C3_3 
REMARK       I    between atoms: C3_3  and  N1_5 
REMARK    2  A    between atoms: C5_7  and  O2_8 
REMARK    3  A    between atoms: C7_10  and  O3_11 
REMARK    4  A    between atoms: O3_11  and  C8_12 
REMARK    5  A    between atoms: C9_14  and  N3_15 
REMARK    6  A    between atoms: N3_15  and  C10_16 
REMARK    7  A    between atoms: C13_21  and  N6_22 
ROOT
HETATM    1  C8  UNL     1      23.732   3.678  52.244  1.00  0.00     0.150 A 
HETATM    2  N2  UNL     1      24.686   3.180  52.980  1.00  0.00    -0.243 NA
HETATM    3  C9  UNL     1      24.371   1.836  53.366  1.00  0.00     0.220 A 
HETATM    4  C15 UNL     1      23.034   1.578  52.734  1.00  0.00     0.050 A 
HETATM    5  C16 UNL     1      22.677   2.686  52.074  1.00  0.00     0.075 A 
HETATM    6  C17 UNL     1      21.770   1.508  52.064  1.00  0.00     0.115 A 
HETATM    7 CL1  UNL     1      21.583   0.722  50.493  1.00  0.00    -0.123 Cl
ENDROOT
BRANCH   1   8
HETATM    8  O3  UNL     1      23.718   4.967  51.698  1.00  0.00    -0.327 OA
BRANCH   8   9
HETATM    9  C7  UNL     1      23.352   5.078  50.340  1.00  0.00     0.178 C 
HETATM   10  C5  UNL     1      23.551   6.465  49.773  1.00  0.00     0.169 C 
HETATM   11  C4  UNL     1      24.307   6.134  48.480  1.00  0.00     0.160 C 
HETATM   12  N1  UNL     1      25.253   5.138  48.945  1.00  0.00    -0.344 N 
HETATM   13  C3  UNL     1      26.676   4.914  49.014  1.00  0.00     0.239 C 
HETATM   14  C18 UNL     1      24.217   4.242  49.419  1.00  0.00     0.161 C 
HETATM   15  O1  UNL     1      27.082   3.825  49.542  1.00  0.00    -0.269 OA
BRANCH  10  16
HETATM   16  O2  UNL     1      24.474   7.184  50.543  1.00  0.00    -0.386 OA
HETATM   17  C6  UNL     1      24.703   8.458  50.081  1.00  0.00     0.202 C 
ENDBRANCH  10  16
BRANCH  13  18
HETATM   18  C2  UNL     1      27.607   5.903  48.496  1.00  0.00     0.048 C 
HETATM   19  C1  UNL     1      28.838   5.634  48.151  1.00  0.00     0.037 C 
ENDBRANCH  13  18
ENDBRANCH   8   9
ENDBRANCH   1   8
BRANCH   3  20
HETATM   20  N3  UNL     1      25.290   0.870  52.759  1.00  0.00    -0.362 N 
HETATM   21  H12 UNL     1      25.058   0.503  51.806  1.00  0.00     0.162 HD
BRANCH  20  22
HETATM   22  C10 UNL     1      26.487   0.385  53.366  1.00  0.00     0.095 A 
HETATM   23  C11 UNL     1      27.759   0.408  52.815  1.00  0.00     0.145 A 
HETATM   24  N4  UNL     1      28.634  -0.125  53.655  1.00  0.00    -0.281 N 
HETATM   25  C12 UNL     1      30.070  -0.330  53.547  1.00  0.00     0.179 C 
HETATM   26  N5  UNL     1      27.945  -0.493  54.744  1.00  0.00    -0.153 NA
HETATM   27  C13 UNL     1      26.650  -0.201  54.604  1.00  0.00     0.171 A 
BRANCH  27  28
HETATM   28  N6  UNL     1      25.626  -0.448  55.553  1.00  0.00    -0.376 N 
HETATM   29  C14 UNL     1      24.466  -1.313  55.461  1.00  0.00     0.148 C 
HETATM   30  H17 UNL     1      25.636   0.026  56.484  1.00  0.00     0.160 HD
ENDBRANCH  27  28
ENDBRANCH  20  22
ENDBRANCH   3  20
TORSDOF 7
ENDMDL
MODEL 7
REMARK VINA RESULT:      -7.3      5.623      8.591
REMARK  7 active torsions:
REMARK  status: ('A' for Active; 'I' for Inactive)
REMARK    1  A    between atoms: C2_2  and  C3_3 
REMARK       I    between atoms: C3_3  and  N1_5 
REMARK    2  A    between atoms: C5_7  and  O2_8 
REMARK    3  A    between atoms: C7_10  and  O3_11 
REMARK    4  A    between atoms: O3_11  and  C8_12 
REMARK    5  A    between atoms: C9_14  and  N3_15 
REMARK    6  A    between atoms: N3_15  and  C10_16 
REMARK    7  A    between atoms: C13_21  and  N6_22 
ROOT
HETATM    1  C8  UNL     1      26.044   3.816  49.968  1.00  0.00     0.150 A 
HETATM    2  N2  UNL     1      27.168   3.646  49.330  1.00  0.00    -0.243 NA
HETATM    3  C9  UNL     1      27.499   4.820  48.576  1.00  0.00     0.220 A 
HETATM    4  C15 UNL     1      26.369   5.766  48.858  1.00  0.00     0.050 A 
HETATM    5  C16 UNL     1      25.519   5.148  49.686  1.00  0.00     0.075 A 
HETATM    6  C17 UNL     1      25.219   6.532  49.235  1.00  0.00     0.115 A 
HETATM    7 CL1  UNL     1      25.285   7.761  50.502  1.00  0.00    -0.123 Cl
ENDROOT
BRANCH   1   8
HETATM    8  O3  UNL     1      25.430   2.870  50.797  1.00  0.00    -0.327 OA
BRANCH   8   9
HETATM    9  C7  UNL     1      24.383   3.331  51.621  1.00  0.00     0.178 C 
HETATM   10  C5  UNL     1      23.011   2.904  51.149  1.00  0.00     0.169 C 
HETATM   11  C4  UNL     1      22.422   2.357  52.456  1.00  0.00     0.160 C 
HETATM   12  N1  UNL     1      23.541   1.597  52.981  1.00  0.00    -0.344 N 
HETATM   13  C3  UNL     1      23.871   0.251  53.379  1.00  0.00     0.239 C 
HETATM   14  C18 UNL     1      24.422   2.747  53.018  1.00  0.00     0.161 C 
HETATM   15  O1  UNL     1      25.053   0.031  53.808  1.00  0.00    -0.269 OA
BRANCH  10  16
HETATM   16  O2  UNL     1      23.105   1.784  50.312  1.00  0.00    -0.386 OA
HETATM   17  C6  UNL     1      22.138   1.745  49.336  1.00  0.00     0.202 C 
ENDBRANCH  10  16
BRANCH  13  18
HETATM   18  C2  UNL     1      22.881  -0.811  53.289  1.00  0.00     0.048 C 
HETATM   19  C1  UNL     1      21.948  -1.013  54.180  1.00  0.00     0.037 C 
ENDBRANCH  13  18
ENDBRANCH   8   9
ENDBRANCH   1   8
BRANCH   3  20
HETATM   20  N3  UNL     1      28.703   5.473  49.096  1.00  0.00    -0.362 N 
HETATM   21  H12 UNL     1      28.849   5.481  50.133  1.00  0.00     0.162 HD
BRANCH  20  22
HETATM   22  C10 UNL     1      29.703   6.104  48.297  1.00  0.00     0.095 A 
HETATM   23  C11 UNL     1      30.847   5.511  47.785  1.00  0.00     0.145 A 
HETATM   24  N4  UNL     1      31.551   6.391  47.089  1.00  0.00    -0.281 N 
HETATM   25  C12 UNL     1      32.806   6.264  46.367  1.00  0.00     0.179 C 
HETATM   26  N5  UNL     1      30.877   7.549  47.143  1.00  0.00    -0.153 NA
HETATM   27  C13 UNL     1      29.761   7.412  47.861  1.00  0.00     0.171 A 
BRANCH  27  28
HETATM   28  N6  UNL     1      28.806   8.424  48.131  1.00  0.00    -0.376 N 
HETATM   29  C14 UNL     1      28.522   9.126  49.368  1.00  0.00     0.148 C 
HETATM   30  H17 UNL     1      28.172   8.775  47.377  1.00  0.00     0.160 HD
ENDBRANCH  27  28
ENDBRANCH  20  22
ENDBRANCH   3  20
TORSDOF 7
ENDMDL
MODEL 8
REMARK VINA RESULT:      -7.0      5.846      9.053
REMARK  7 active torsions:
REMARK  status: ('A' for Active; 'I' for Inactive)
REMARK    1  A    between atoms: C2_2  and  C3_3 
REMARK       I    between atoms: C3_3  and  N1_5 
REMARK    2  A    between atoms: C5_7  and  O2_8 
REMARK    3  A    between atoms: C7_10  and  O3_11 
REMARK    4  A    between atoms: O3_11  and  C8_12 
REMARK    5  A    between atoms: C9_14  and  N3_15 
REMARK    6  A    between atoms: N3_15  and  C10_16 
REMARK    7  A    between atoms: C13_21  and  N6_22 
ROOT
HETATM    1  C8  UNL     1      26.206   4.339  49.561  1.00  0.00     0.150 A 
HETATM    2  N2  UNL     1      27.377   4.072  49.054  1.00  0.00    -0.243 NA
HETATM    3  C9  UNL     1      27.915   5.228  48.398  1.00  0.00     0.220 A 
HETATM    4  C15 UNL     1      26.861   6.278  48.586  1.00  0.00     0.050 A 
HETATM    5  C16 UNL     1      25.857   5.727  49.279  1.00  0.00     0.075 A 
HETATM    6  C17 UNL     1      25.756   7.150  48.858  1.00  0.00     0.115 A 
HETATM    7 CL1  UNL     1      25.790   8.323  50.177  1.00  0.00    -0.123 Cl
ENDROOT
BRANCH   1   8
HETATM    8  O3  UNL     1      25.403   3.437  50.268  1.00  0.00    -0.327 OA
BRANCH   8   9
HETATM    9  C7  UNL     1      24.300   3.977  50.962  1.00  0.00     0.178 C 
HETATM   10  C5  UNL     1      22.964   3.550  50.398  1.00  0.00     0.169 C 
HETATM   11  C4  UNL     1      22.247   3.107  51.680  1.00  0.00     0.160 C 
HETATM   12  N1  UNL     1      23.292   2.360  52.352  1.00  0.00    -0.344 N 
HETATM   13  C3  UNL     1      23.547   1.036  52.866  1.00  0.00     0.239 C 
HETATM   14  C18 UNL     1      24.199   3.488  52.393  1.00  0.00     0.161 C 
HETATM   15  O1  UNL     1      24.679   0.818  53.413  1.00  0.00    -0.269 OA
BRANCH  10  16
HETATM   16  O2  UNL     1      23.099   2.375  49.649  1.00  0.00    -0.386 OA
HETATM   17  C6  UNL     1      22.312   2.347  48.522  1.00  0.00     0.202 C 
ENDBRANCH  10  16
BRANCH  13  18
HETATM   18  C2  UNL     1      22.539  -0.007  52.757  1.00  0.00     0.048 C 
HETATM   19  C1  UNL     1      22.139  -0.739  53.762  1.00  0.00     0.037 C 
ENDBRANCH  13  18
ENDBRANCH   8   9
ENDBRANCH   1   8
BRANCH   3  20
HETATM   20  N3  UNL     1      29.106   5.733  49.085  1.00  0.00    -0.362 N 
HETATM   21  H12 UNL     1      29.169   5.599  50.122  1.00  0.00     0.162 HD
BRANCH  20  22
HETATM   22  C10 UNL     1      30.198   6.398  48.452  1.00  0.00     0.095 A 
HETATM   23  C11 UNL     1      30.426   7.765  48.421  1.00  0.00     0.145 A 
HETATM   24  N4  UNL     1      31.534   8.032  47.745  1.00  0.00    -0.281 N 
HETATM   25  C12 UNL     1      32.192   9.291  47.436  1.00  0.00     0.179 C 
HETATM   26  N5  UNL     1      32.028   6.854  47.338  1.00  0.00    -0.153 NA
HETATM   27  C13 UNL     1      31.249   5.850  47.746  1.00  0.00     0.171 A 
BRANCH  27  28
HETATM   28  N6  UNL     1      31.460   4.470  47.499  1.00  0.00    -0.376 N 
HETATM   29  C14 UNL     1      32.700   3.726  47.386  1.00  0.00     0.148 C 
HETATM   30  H17 UNL     1      30.650   3.822  47.368  1.00  0.00     0.160 HD
ENDBRANCH  27  28
ENDBRANCH  20  22
ENDBRANCH   3  20
TORSDOF 7
ENDMDL
MODEL 9
REMARK VINA RESULT:      -6.9      3.357      7.748
REMARK  7 active torsions:
REMARK  status: ('A' for Active; 'I' for Inactive)
REMARK    1  A    between atoms: C2_2  and  C3_3 
REMARK       I    between atoms: C3_3  and  N1_5 
REMARK    2  A    between atoms: C5_7  and  O2_8 
REMARK    3  A    between atoms: C7_10  and  O3_11 
REMARK    4  A    between atoms: O3_11  and  C8_12 
REMARK    5  A    between atoms: C9_14  and  N3_15 
REMARK    6  A    between atoms: N3_15  and  C10_16 
REMARK    7  A    between atoms: C13_21  and  N6_22 
ROOT
HETATM    1  C8  UNL     1      24.139   3.600  49.686  1.00  0.00     0.150 A 
HETATM    2  N2  UNL     1      24.861   2.664  50.234  1.00  0.00    -0.243 NA
HETATM    3  C9  UNL     1      26.247   3.028  50.224  1.00  0.00     0.220 A 
HETATM    4  C15 UNL     1      26.266   4.376  49.565  1.00  0.00     0.050 A 
HETATM    5  C16 UNL     1      25.003   4.694  49.255  1.00  0.00     0.075 A 
HETATM    6  C17 UNL     1      26.096   5.645  48.920  1.00  0.00     0.115 A 
HETATM    7 CL1  UNL     1      26.070   7.161  49.827  1.00  0.00    -0.123 Cl
ENDROOT
BRANCH   1   8
HETATM    8  O3  UNL     1      22.748   3.567  49.531  1.00  0.00    -0.327 OA
BRANCH   8   9
HETATM    9  C7  UNL     1      22.072   4.804  49.589  1.00  0.00     0.178 C 
HETATM   10  C5  UNL     1      20.893   4.893  48.648  1.00  0.00     0.169 C 
HETATM   11  C4  UNL     1      19.814   5.424  49.599  1.00  0.00     0.160 C 
HETATM   12  N1  UNL     1      20.045   4.615  50.780  1.00  0.00    -0.344 N 
HETATM   13  C3  UNL     1      19.351   3.679  51.631  1.00  0.00     0.239 C 
HETATM   14  C18 UNL     1      21.415   5.062  50.930  1.00  0.00     0.161 C 
HETATM   15  O1  UNL     1      19.992   3.185  52.618  1.00  0.00    -0.269 OA
BRANCH  10  16
HETATM   16  O2  UNL     1      20.448   3.612  48.294  1.00  0.00    -0.386 OA
HETATM   17  C6  UNL     1      20.227   3.460  46.946  1.00  0.00     0.202 C 
ENDBRANCH  10  16
BRANCH  13  18
HETATM   18  C2  UNL     1      17.968   3.319  51.362  1.00  0.00     0.048 C 
HETATM   19  C1  UNL     1      16.953   4.110  51.586  1.00  0.00     0.037 C 
ENDBRANCH  13  18
ENDBRANCH   8   9
ENDBRANCH   1   8
BRANCH   3  20
HETATM   20  N3  UNL     1      26.758   3.243  51.580  1.00  0.00    -0.362 N 
HETATM   21  H12 UNL     1      27.045   4.214  51.849  1.00  0.00     0.162 HD
BRANCH  20  22
HETATM   22  C10 UNL     1      26.896   2.229  52.574  1.00  0.00     0.095 A 
HETATM   23  C11 UNL     1      28.083   1.674  53.028  1.00  0.00     0.145 A 
HETATM   24  N4  UNL     1      27.839   0.759  53.955  1.00  0.00    -0.281 N 
HETATM   25  C12 UNL     1      28.732  -0.091  54.726  1.00  0.00     0.179 C 
HETATM   26  N5  UNL     1      26.508   0.714  54.109  1.00  0.00    -0.153 NA
HETATM   27  C13 UNL     1      25.910   1.586  53.294  1.00  0.00     0.171 A 
BRANCH  27  28
HETATM   28  N6  UNL     1      24.515   1.811  53.184  1.00  0.00    -0.376 N 
HETATM   29  C14 UNL     1      23.431   0.860  53.027  1.00  0.00     0.148 C 
HETATM   30  H17 UNL     1      24.127   2.782  53.212  1.00  0.00     0.160 HD
ENDBRANCH  27  28
ENDBRANCH  20  22
ENDBRANCH   3  20
TORSDOF 7
ENDMDL
