MODEL 1
REMARK VINA RESULT:      -7.6      0.000      0.000
REMARK  6 active torsions:
REMARK  status: ('A' for Active; 'I' for Inactive)
REMARK    1  A    between atoms: O1_2  and  C2_3 
REMARK    2  A    between atoms: C5_6  and  C6_7 
REMARK    3  A    between atoms: C6_7  and  C7_8 
REMARK    4  A    between atoms: C7_8  and  O2_9 
REMARK    5  A    between atoms: C11_14  and  N2_15 
REMARK    6  A    between atoms: C12_16  and  N3_17 
ROOT
HETATM    1  C2  UNL     1      23.484   3.654  50.725  1.00  0.00     0.064 C 
HETATM    2  C3  UNL     1      24.546   3.622  51.582  1.00  0.00     0.080 C 
HETATM    3  C4  UNL     1      24.974   2.480  52.424  1.00  0.00    -0.011 C 
HETATM    4  C5  UNL     1      24.980   1.226  52.962  1.00  0.00    -0.070 C 
HETATM    5  C8  UNL     1      24.071   0.162  52.491  1.00  0.00     0.088 C 
HETATM    6  C9  UNL     1      23.114  -0.388  53.470  1.00  0.00     0.009 C 
HETATM    7  C10 UNL     1      23.536  -0.972  54.766  1.00  0.00     0.065 C 
HETATM    8  N1  UNL     1      21.906  -0.334  53.079  1.00  0.00    -0.258 NA
HETATM    9  C11 UNL     1      20.748  -0.769  53.758  1.00  0.00     0.390 C 
HETATM   10  C12 UNL     1      19.497  -0.606  52.997  1.00  0.00     0.080 C 
HETATM   11  C13 UNL     1      18.961  -0.144  51.860  1.00  0.00     0.171 C 
HETATM   12  O3  UNL     1      19.128   0.485  50.610  1.00  0.00    -0.321 OA
HETATM   13  C14 UNL     1      20.293   1.282  50.441  1.00  0.00     0.075 A 
HETATM   14  C15 UNL     1      21.061   1.180  49.312  1.00  0.00     0.038 A 
HETATM   15  C16 UNL     1      22.192   1.949  49.178  1.00  0.00     0.017 A 
HETATM   16  C17 UNL     1      22.380   2.740  50.259  1.00  0.00    -0.006 A 
HETATM   17  C18 UNL     1      21.635   2.881  51.411  1.00  0.00     0.017 A 
HETATM   18  C19 UNL     1      20.499   2.104  51.537  1.00  0.00     0.038 A 
ENDROOT
BRANCH   4  19
HETATM   19  C6  UNL     1      25.888   0.720  53.947  1.00  0.00     0.115 C 
BRANCH  19  20
HETATM   20  C7  UNL     1      26.928   0.290  54.593  1.00  0.00     0.105 C 
BRANCH  20  21
HETATM   21  O2  UNL     1      28.070  -0.143  55.231  1.00  0.00    -0.400 OA
HETATM   22  H8  UNL     1      28.057  -1.102  55.599  1.00  0.00     0.209 HD
ENDBRANCH  20  21
ENDBRANCH  19  20
ENDBRANCH   4  19
BRANCH   1  23
HETATM   23  O1  UNL     1      23.662   4.968  50.280  1.00  0.00    -0.359 OA
HETATM   24  C1  UNL     1      23.751   6.039  51.203  1.00  0.00     0.209 C 
ENDBRANCH   1  23
BRANCH   9  25
HETATM   25  N2  UNL     1      20.668  -0.020  55.022  1.00  0.00     0.109 N 
HETATM   26  H15 UNL     1      21.612   0.290  55.329  1.00  0.00     0.316 HD
HETATM   27  H16 UNL     1      19.944   0.708  54.995  1.00  0.00     0.316 HD
ENDBRANCH   9  25
BRANCH  10  28
HETATM   28  N3  UNL     1      18.448  -1.152  53.833  1.00  0.00    -0.398 N 
HETATM   29  H17 UNL     1      17.756  -1.610  54.465  1.00  0.00     0.156 HD
HETATM   30  H18 UNL     1      17.453  -0.875  53.968  1.00  0.00     0.156 HD
ENDBRANCH  10  28
TORSDOF 6
ENDMDL
MODEL 2
REMARK VINA RESULT:      -7.4      2.280      5.946
REMARK  6 active torsions:
REMARK  status: ('A' for Active; 'I' for Inactive)
REMARK    1  A    between atoms: O1_2  and  C2_3 
REMARK    2  A    between atoms: C5_6  and  C6_7 
REMARK    3  A    between atoms: C6_7  and  C7_8 
REMARK    4  A    between atoms: C7_8  and  O2_9 
REMARK    5  A    between atoms: C11_14  and  N2_15 
REMARK    6  A    between atoms: C12_16  and  N3_17 
ROOT
HETATM    1  C2  UNL     1      25.907  -0.074  54.243  1.00  0.00     0.064 C 
HETATM    2  C3  UNL     1      24.872  -0.688  54.888  1.00  0.00     0.080 C 
HETATM    3  C4  UNL     1      23.460  -0.751  54.445  1.00  0.00    -0.011 C 
HETATM    4  C5  UNL     1      22.363  -0.556  53.658  1.00  0.00    -0.070 C 
HETATM    5  C8  UNL     1      22.452   0.059  52.319  1.00  0.00     0.088 C 
HETATM    6  C9  UNL     1      21.723   1.324  52.109  1.00  0.00     0.009 C 
HETATM    7  C10 UNL     1      20.268   1.465  52.355  1.00  0.00     0.065 C 
HETATM    8  N1  UNL     1      22.460   2.266  51.676  1.00  0.00    -0.258 NA
HETATM    9  C11 UNL     1      22.093   3.592  51.368  1.00  0.00     0.390 C 
HETATM   10  C12 UNL     1      23.188   4.420  50.835  1.00  0.00     0.080 C 
HETATM   11  C13 UNL     1      24.494   4.448  50.538  1.00  0.00     0.171 C 
HETATM   12  O3  UNL     1      25.740   3.791  50.493  1.00  0.00    -0.321 OA
HETATM   13  C14 UNL     1      25.911   2.674  51.356  1.00  0.00     0.075 A 
HETATM   14  C15 UNL     1      26.463   1.508  50.900  1.00  0.00     0.038 A 
HETATM   15  C16 UNL     1      26.603   0.436  51.748  1.00  0.00     0.017 A 
HETATM   16  C17 UNL     1      26.140   0.724  52.986  1.00  0.00    -0.006 A 
HETATM   17  C18 UNL     1      25.583   1.879  53.491  1.00  0.00     0.017 A 
HETATM   18  C19 UNL     1      25.447   2.953  52.631  1.00  0.00     0.038 A 
ENDROOT
BRANCH   4  19
HETATM   19  C6  UNL     1      21.024  -0.986  53.932  1.00  0.00     0.115 C 
BRANCH  19  20
HETATM   20  C7  UNL     1      19.886  -1.608  53.958  1.00  0.00     0.105 C 
BRANCH  20  21
HETATM   21  O2  UNL     1      18.647  -2.210  53.988  1.00  0.00    -0.400 OA
HETATM   22  H8  UNL     1      17.896  -1.696  54.467  1.00  0.00     0.209 HD
ENDBRANCH  20  21
ENDBRANCH  19  20
ENDBRANCH   4  19
BRANCH   1  23
HETATM   23  O1  UNL     1      26.904  -0.397  55.169  1.00  0.00    -0.359 OA
HETATM   24  C1  UNL     1      28.242   0.024  54.968  1.00  0.00     0.209 C 
ENDBRANCH   1  23
BRANCH   9  25
HETATM   25  N2  UNL     1      21.557   4.199  52.596  1.00  0.00     0.109 N 
HETATM   26  H15 UNL     1      21.215   3.468  53.253  1.00  0.00     0.316 HD
HETATM   27  H16 UNL     1      22.198   4.895  52.996  1.00  0.00     0.316 HD
ENDBRANCH   9  25
BRANCH  10  28
HETATM   28  N3  UNL     1      22.603   5.712  50.537  1.00  0.00    -0.398 N 
HETATM   29  H17 UNL     1      22.263   6.680  50.356  1.00  0.00     0.156 HD
HETATM   30  H18 UNL     1      21.684   5.979  50.127  1.00  0.00     0.156 HD
ENDBRANCH  10  28
TORSDOF 6
ENDMDL
MODEL 3
REMARK VINA RESULT:      -7.1      2.489      5.131
REMARK  6 active torsions:
REMARK  status: ('A' for Active; 'I' for Inactive)
REMARK    1  A    between atoms: O1_2  and  C2_3 
REMARK    2  A    between atoms: C5_6  and  C6_7 
REMARK    3  A    between atoms: C6_7  and  C7_8 
REMARK    4  A    between atoms: C7_8  and  O2_9 
REMARK    5  A    between atoms: C11_14  and  N2_15 
REMARK    6  A    between atoms: C12_16  and  N3_17 
ROOT
HETATM    1  C2  UNL     1      23.692   0.674  53.243  1.00  0.00     0.064 C 
HETATM    2  C3  UNL     1      24.482   1.740  52.924  1.00  0.00     0.080 C 
HETATM    3  C4  UNL     1      24.030   3.076  52.467  1.00  0.00    -0.011 C 
HETATM    4  C5  UNL     1      23.176   4.080  52.117  1.00  0.00    -0.070 C 
HETATM    5  C8  UNL     1      21.713   3.959  52.269  1.00  0.00     0.088 C 
HETATM    6  C9  UNL     1      20.900   4.046  51.041  1.00  0.00     0.009 C 
HETATM    7  C10 UNL     1      20.963   5.201  50.113  1.00  0.00     0.065 C 
HETATM    8  N1  UNL     1      20.128   3.049  50.875  1.00  0.00    -0.258 NA
HETATM    9  C11 UNL     1      19.222   2.810  49.820  1.00  0.00     0.390 C 
HETATM   10  C12 UNL     1      18.437   1.572  49.958  1.00  0.00     0.080 C 
HETATM   11  C13 UNL     1      18.242   0.479  50.706  1.00  0.00     0.171 C 
HETATM   12  O3  UNL     1      18.581  -0.293  51.836  1.00  0.00    -0.321 OA
HETATM   13  C14 UNL     1      19.870  -0.080  52.397  1.00  0.00     0.075 A 
HETATM   14  C15 UNL     1      20.037   0.060  53.749  1.00  0.00     0.038 A 
HETATM   15  C16 UNL     1      21.290   0.281  54.267  1.00  0.00     0.017 A 
HETATM   16  C17 UNL     1      22.226   0.329  53.291  1.00  0.00    -0.006 A 
HETATM   17  C18 UNL     1      22.106   0.189  51.924  1.00  0.00     0.017 A 
HETATM   18  C19 UNL     1      20.842  -0.035  51.412  1.00  0.00     0.038 A 
ENDROOT
BRANCH   4  19
HETATM   19  C6  UNL     1      23.534   5.393  51.668  1.00  0.00     0.115 C 
BRANCH  19  20
HETATM   20  C7  UNL     1      23.941   6.621  51.578  1.00  0.00     0.105 C 
BRANCH  20  21
HETATM   21  O2  UNL     1      24.324   7.943  51.523  1.00  0.00    -0.400 OA
HETATM   22  H8  UNL     1      24.434   8.353  50.586  1.00  0.00     0.209 HD
ENDBRANCH  20  21
ENDBRANCH  19  20
ENDBRANCH   4  19
BRANCH   1  23
HETATM   23  O1  UNL     1      24.722  -0.209  53.581  1.00  0.00    -0.359 OA
HETATM   24  C1  UNL     1      25.911  -0.263  52.811  1.00  0.00     0.209 C 
ENDBRANCH   1  23
BRANCH   9  25
HETATM   25  N2  UNL     1      19.998   2.776  48.570  1.00  0.00     0.109 N 
HETATM   26  H15 UNL     1      20.822   2.147  48.661  1.00  0.00     0.316 HD
HETATM   27  H16 UNL     1      19.402   2.615  47.749  1.00  0.00     0.316 HD
ENDBRANCH   9  25
BRANCH  10  28
HETATM   28  N3  UNL     1      17.543   1.538  48.819  1.00  0.00    -0.398 N 
HETATM   29  H17 UNL     1      16.826   1.518  48.062  1.00  0.00     0.156 HD
HETATM   30  H18 UNL     1      17.724   1.489  47.795  1.00  0.00     0.156 HD
ENDBRANCH  10  28
TORSDOF 6
ENDMDL
MODEL 4
REMARK VINA RESULT:      -6.9      2.898      4.809
REMARK  6 active torsions:
REMARK  status: ('A' for Active; 'I' for Inactive)
REMARK    1  A    between atoms: O1_2  and  C2_3 
REMARK    2  A    between atoms: C5_6  and  C6_7 
REMARK    3  A    between atoms: C6_7  and  C7_8 
REMARK    4  A    between atoms: C7_8  and  O2_9 
REMARK    5  A    between atoms: C11_14  and  N2_15 
REMARK    6  A    between atoms: C12_16  and  N3_17 
ROOT
HETATM    1  C2  UNL     1      20.718   3.745  50.980  1.00  0.00     0.064 C 
HETATM    2  C3  UNL     1      21.489   4.800  50.587  1.00  0.00     0.080 C 
HETATM    3  C4  UNL     1      22.929   4.769  50.238  1.00  0.00    -0.011 C 
HETATM    4  C5  UNL     1      24.173   4.258  50.015  1.00  0.00    -0.070 C 
HETATM    5  C8  UNL     1      24.450   2.808  50.056  1.00  0.00     0.088 C 
HETATM    6  C9  UNL     1      25.410   2.335  51.071  1.00  0.00     0.009 C 
HETATM    7  C10 UNL     1      26.794   2.859  51.176  1.00  0.00     0.065 C 
HETATM    8  N1  UNL     1      24.942   1.422  51.822  1.00  0.00    -0.258 NA
HETATM    9  C11 UNL     1      25.582   0.750  52.884  1.00  0.00     0.390 C 
HETATM   10  C12 UNL     1      24.768  -0.298  53.522  1.00  0.00     0.080 C 
HETATM   11  C13 UNL     1      23.568  -0.893  53.538  1.00  0.00     0.171 C 
HETATM   12  O3  UNL     1      22.260  -0.997  53.022  1.00  0.00    -0.321 OA
HETATM   13  C14 UNL     1      21.739   0.145  52.355  1.00  0.00     0.075 A 
HETATM   14  C15 UNL     1      21.094   0.027  51.153  1.00  0.00     0.038 A 
HETATM   15  C16 UNL     1      20.613   1.147  50.518  1.00  0.00     0.017 A 
HETATM   16  C17 UNL     1      20.871   2.267  51.233  1.00  0.00    -0.006 A 
HETATM   17  C18 UNL     1      21.509   2.433  52.443  1.00  0.00     0.017 A 
HETATM   18  C19 UNL     1      21.989   1.301  53.075  1.00  0.00     0.038 A 
ENDROOT
BRANCH   4  19
HETATM   19  C6  UNL     1      25.341   4.987  49.619  1.00  0.00     0.115 C 
BRANCH  19  20
HETATM   20  C7  UNL     1      26.249   5.893  49.421  1.00  0.00     0.105 C 
BRANCH  20  21
HETATM   21  O2  UNL     1      27.221   6.857  49.276  1.00  0.00    -0.400 OA
HETATM   22  H8  UNL     1      27.243   7.601  49.985  1.00  0.00     0.209 HD
ENDBRANCH  20  21
ENDBRANCH  19  20
ENDBRANCH   4  19
BRANCH   1  23
HETATM   23  O1  UNL     1      19.521   4.452  51.132  1.00  0.00    -0.359 OA
HETATM   24  C1  UNL     1      18.283   3.768  51.219  1.00  0.00     0.209 C 
ENDBRANCH   1  23
BRANCH   9  25
HETATM   25  N2  UNL     1      25.968   1.762  53.880  1.00  0.00     0.109 N 
HETATM   26  H15 UNL     1      26.263   2.645  53.416  1.00  0.00     0.316 HD
HETATM   27  H16 UNL     1      25.265   1.861  54.623  1.00  0.00     0.316 HD
ENDBRANCH   9  25
BRANCH  10  28
HETATM   28  N3  UNL     1      25.611  -0.896  54.537  1.00  0.00    -0.398 N 
HETATM   29  H17 UNL     1      26.177  -1.266  55.330  1.00  0.00     0.156 HD
HETATM   30  H18 UNL     1      26.323  -1.654  54.489  1.00  0.00     0.156 HD
ENDBRANCH  10  28
TORSDOF 6
ENDMDL
MODEL 5
REMARK VINA RESULT:      -6.8      9.943     13.103
REMARK  6 active torsions:
REMARK  status: ('A' for Active; 'I' for Inactive)
REMARK    1  A    between atoms: O1_2  and  C2_3 
REMARK    2  A    between atoms: C5_6  and  C6_7 
REMARK    3  A    between atoms: C6_7  and  C7_8 
REMARK    4  A    between atoms: C7_8  and  O2_9 
REMARK    5  A    between atoms: C11_14  and  N2_15 
REMARK    6  A    between atoms: C12_16  and  N3_17 
ROOT
HETATM    1  C2  UNL     1      33.020   5.462  46.836  1.00  0.00     0.064 C 
HETATM    2  C3  UNL     1      32.091   4.676  47.455  1.00  0.00     0.080 C 
HETATM    3  C4  UNL     1      30.693   5.043  47.784  1.00  0.00    -0.011 C 
HETATM    4  C5  UNL     1      29.559   5.796  47.858  1.00  0.00    -0.070 C 
HETATM    5  C8  UNL     1      29.443   7.114  47.204  1.00  0.00     0.088 C 
HETATM    6  C9  UNL     1      29.208   8.281  48.076  1.00  0.00     0.009 C 
HETATM    7  C10 UNL     1      28.065   8.365  49.017  1.00  0.00     0.065 C 
HETATM    8  N1  UNL     1      30.064   9.208  47.921  1.00  0.00    -0.258 NA
HETATM    9  C11 UNL     1      30.137  10.450  48.585  1.00  0.00     0.390 C 
HETATM   10  C12 UNL     1      31.233  11.322  48.130  1.00  0.00     0.080 C 
HETATM   11  C13 UNL     1      32.291  11.413  47.314  1.00  0.00     0.171 C 
HETATM   12  O3  UNL     1      33.124  10.826  46.339  1.00  0.00    -0.321 OA
HETATM   13  C14 UNL     1      33.132   9.406  46.270  1.00  0.00     0.075 A 
HETATM   14  C15 UNL     1      33.039   8.758  45.068  1.00  0.00     0.038 A 
HETATM   15  C16 UNL     1      33.032   7.385  45.026  1.00  0.00     0.017 A 
HETATM   16  C17 UNL     1      33.123   6.854  46.267  1.00  0.00    -0.006 A 
HETATM   17  C18 UNL     1      33.222   7.464  47.500  1.00  0.00     0.017 A 
HETATM   18  C19 UNL     1      33.230   8.845  47.532  1.00  0.00     0.038 A 
ENDROOT
BRANCH   4  19
HETATM   19  C6  UNL     1      28.316   5.416  48.460  1.00  0.00     0.115 C 
BRANCH  19  20
HETATM   20  C7  UNL     1      27.249   4.789  48.848  1.00  0.00     0.105 C 
BRANCH  20  21
HETATM   21  O2  UNL     1      26.140   4.068  49.233  1.00  0.00    -0.400 OA
HETATM   22  H8  UNL     1      25.256   4.587  49.313  1.00  0.00     0.209 HD
ENDBRANCH  20  21
ENDBRANCH  19  20
ENDBRANCH   4  19
BRANCH   1  23
HETATM   23  O1  UNL     1      34.064   4.531  46.838  1.00  0.00    -0.359 OA
HETATM   24  C1  UNL     1      34.627   4.074  45.621  1.00  0.00     0.209 C 
ENDBRANCH   1  23
BRANCH   9  25
HETATM   25  N2  UNL     1      30.279  10.176  50.024  1.00  0.00     0.109 N 
HETATM   26  H15 UNL     1      30.996  10.796  50.451  1.00  0.00     0.316 HD
HETATM   27  H16 UNL     1      29.371  10.146  50.503  1.00  0.00     0.316 HD
ENDBRANCH   9  25
BRANCH  10  28
HETATM   28  N3  UNL     1      31.105  12.552  48.885  1.00  0.00    -0.398 N 
HETATM   29  H17 UNL     1      30.991  13.480  49.345  1.00  0.00     0.156 HD
HETATM   30  H18 UNL     1      31.220  12.759  49.899  1.00  0.00     0.156 HD
ENDBRANCH  10  28
TORSDOF 6
ENDMDL
MODEL 6
REMARK VINA RESULT:      -6.8      2.847      5.502
REMARK  6 active torsions:
REMARK  status: ('A' for Active; 'I' for Inactive)
REMARK    1  A    between atoms: O1_2  and  C2_3 
REMARK    2  A    between atoms: C5_6  and  C6_7 
REMARK    3  A    between atoms: C6_7  and  C7_8 
REMARK    4  A    between atoms: C7_8  and  O2_9 
REMARK    5  A    between atoms: C11_14  and  N2_15 
REMARK    6  A    between atoms: C12_16  and  N3_17 
ROOT
HETATM    1  C2  UNL     1      20.496   1.411  50.454  1.00  0.00     0.064 C 
HETATM    2  C3  UNL     1      20.879   0.330  51.195  1.00  0.00     0.080 C 
HETATM    3  C4  UNL     1      22.037   0.249  52.117  1.00  0.00    -0.011 C 
HETATM    4  C5  UNL     1      23.138   0.648  52.814  1.00  0.00    -0.070 C 
HETATM    5  C8  UNL     1      23.611   2.047  52.811  1.00  0.00     0.088 C 
HETATM    6  C9  UNL     1      24.960   2.301  52.271  1.00  0.00     0.009 C 
HETATM    7  C10 UNL     1      26.175   1.626  52.788  1.00  0.00     0.065 C 
HETATM    8  N1  UNL     1      24.976   3.168  51.341  1.00  0.00    -0.258 NA
HETATM    9  C11 UNL     1      26.085   3.646  50.612  1.00  0.00     0.390 C 
HETATM   10  C12 UNL     1      25.763   4.696  49.631  1.00  0.00     0.080 C 
HETATM   11  C13 UNL     1      24.773   5.408  49.076  1.00  0.00     0.171 C 
HETATM   12  O3  UNL     1      23.399   5.706  48.985  1.00  0.00    -0.321 OA
HETATM   13  C14 UNL     1      22.492   4.707  49.434  1.00  0.00     0.075 A 
HETATM   14  C15 UNL     1      21.435   5.026  50.243  1.00  0.00     0.038 A 
HETATM   15  C16 UNL     1      20.581   4.041  50.679  1.00  0.00     0.017 A 
HETATM   16  C17 UNL     1      20.948   2.827  50.205  1.00  0.00    -0.006 A 
HETATM   17  C18 UNL     1      21.997   2.460  49.389  1.00  0.00     0.017 A 
HETATM   18  C19 UNL     1      22.849   3.458  48.955  1.00  0.00     0.038 A 
ENDROOT
BRANCH   4  19
HETATM   19  C6  UNL     1      23.924  -0.151  53.707  1.00  0.00     0.115 C 
BRANCH  19  20
HETATM   20  C7  UNL     1      24.379  -0.825  54.718  1.00  0.00     0.105 C 
BRANCH  20  21
HETATM   21  O2  UNL     1      24.889  -1.584  55.748  1.00  0.00    -0.400 OA
HETATM   22  H8  UNL     1      25.655  -1.168  56.293  1.00  0.00     0.209 HD
ENDBRANCH  20  21
ENDBRANCH  19  20
ENDBRANCH   4  19
BRANCH   1  23
HETATM   23  O1  UNL     1      19.381   0.821  49.852  1.00  0.00    -0.359 OA
HETATM   24  C1  UNL     1      18.077   1.057  50.355  1.00  0.00     0.209 C 
ENDBRANCH   1  23
BRANCH   9  25
HETATM   25  N2  UNL     1      26.697   2.494  49.931  1.00  0.00     0.109 N 
HETATM   26  H15 UNL     1      25.969   1.873  49.525  1.00  0.00     0.316 HD
HETATM   27  H16 UNL     1      27.450   2.778  49.292  1.00  0.00     0.316 HD
ENDBRANCH   9  25
BRANCH  10  28
HETATM   28  N3  UNL     1      27.024   5.085  49.034  1.00  0.00    -0.398 N 
HETATM   29  H17 UNL     1      27.970   5.358  48.691  1.00  0.00     0.156 HD
HETATM   30  H18 UNL     1      27.285   5.317  48.053  1.00  0.00     0.156 HD
ENDBRANCH  10  28
TORSDOF 6
ENDMDL
MODEL 7
REMARK VINA RESULT:      -6.3      2.914      5.239
REMARK  6 active torsions:
REMARK  status: ('A' for Active; 'I' for Inactive)
REMARK    1  A    between atoms: O1_2  and  C2_3 
REMARK    2  A    between atoms: C5_6  and  C6_7 
REMARK    3  A    between atoms: C6_7  and  C7_8 
REMARK    4  A    between atoms: C7_8  and  O2_9 
REMARK    5  A    between atoms: C11_14  and  N2_15 
REMARK    6  A    between atoms: C12_16  and  N3_17 
ROOT
HETATM    1  C2  UNL     1      23.820   0.361  52.718  1.00  0.00     0.064 C 
HETATM    2  C3  UNL     1      24.990   0.860  52.223  1.00  0.00     0.080 C 
HETATM    3  C4  UNL     1      25.162   2.093  51.419  1.00  0.00    -0.011 C 
HETATM    4  C5  UNL     1      24.829   3.241  50.761  1.00  0.00    -0.070 C 
HETATM    5  C8  UNL     1      23.466   3.807  50.804  1.00  0.00     0.088 C 
HETATM    6  C9  UNL     1      22.742   3.918  49.524  1.00  0.00     0.009 C 
HETATM    7  C10 UNL     1      23.284   4.652  48.354  1.00  0.00     0.065 C 
HETATM    8  N1  UNL     1      21.607   3.347  49.534  1.00  0.00    -0.258 NA
HETATM    9  C11 UNL     1      20.661   3.261  48.491  1.00  0.00     0.390 C 
HETATM   10  C12 UNL     1      19.415   2.566  48.853  1.00  0.00     0.080 C 
HETATM   11  C13 UNL     1      18.777   1.896  49.821  1.00  0.00     0.171 C 
HETATM   12  O3  UNL     1      18.771   1.372  51.130  1.00  0.00    -0.321 OA
HETATM   13  C14 UNL     1      20.036   1.143  51.738  1.00  0.00     0.075 A 
HETATM   14  C15 UNL     1      20.283   1.540  53.024  1.00  0.00     0.038 A 
HETATM   15  C16 UNL     1      21.519   1.322  53.585  1.00  0.00     0.017 A 
HETATM   16  C17 UNL     1      22.354   0.709  52.715  1.00  0.00    -0.006 A 
HETATM   17  C18 UNL     1      22.149   0.289  51.418  1.00  0.00     0.017 A 
HETATM   18  C19 UNL     1      20.903   0.510  50.862  1.00  0.00     0.038 A 
ENDROOT
BRANCH   4  19
HETATM   19  C6  UNL     1      25.716   4.106  50.043  1.00  0.00     0.115 C 
BRANCH  19  20
HETATM   20  C7  UNL     1      26.626   4.605  49.265  1.00  0.00     0.105 C 
BRANCH  20  21
HETATM   21  O2  UNL     1      27.585   5.193  48.469  1.00  0.00    -0.400 OA
HETATM   22  H8  UNL     1      27.567   6.219  48.406  1.00  0.00     0.209 HD
ENDBRANCH  20  21
ENDBRANCH  19  20
ENDBRANCH   4  19
BRANCH   1  23
HETATM   23  O1  UNL     1      24.364  -0.761  53.351  1.00  0.00    -0.359 OA
HETATM   24  C1  UNL     1      25.546  -0.652  54.126  1.00  0.00     0.209 C 
ENDBRANCH   1  23
BRANCH   9  25
HETATM   25  N2  UNL     1      21.309   2.576  47.361  1.00  0.00     0.109 N 
HETATM   26  H15 UNL     1      22.180   3.069  47.078  1.00  0.00     0.316 HD
HETATM   27  H16 UNL     1      21.400   1.566  47.523  1.00  0.00     0.316 HD
ENDBRANCH   9  25
BRANCH  10  28
HETATM   28  N3  UNL     1      18.567   2.631  47.680  1.00  0.00    -0.398 N 
HETATM   29  H17 UNL     1      17.882   2.660  46.894  1.00  0.00     0.156 HD
HETATM   30  H18 UNL     1      18.784   2.797  46.675  1.00  0.00     0.156 HD
ENDBRANCH  10  28
TORSDOF 6
ENDMDL
MODEL 8
REMARK VINA RESULT:      -6.2      6.199      9.171
REMARK  6 active torsions:
REMARK  status: ('A' for Active; 'I' for Inactive)
REMARK    1  A    between atoms: O1_2  and  C2_3 
REMARK    2  A    between atoms: C5_6  and  C6_7 
REMARK    3  A    between atoms: C6_7  and  C7_8 
REMARK    4  A    between atoms: C7_8  and  O2_9 
REMARK    5  A    between atoms: C11_14  and  N2_15 
REMARK    6  A    between atoms: C12_16  and  N3_17 
ROOT
HETATM    1  C2  UNL     1      25.037   4.360  49.842  1.00  0.00     0.064 C 
HETATM    2  C3  UNL     1      26.222   3.823  49.430  1.00  0.00     0.080 C 
HETATM    3  C4  UNL     1      27.388   4.555  48.882  1.00  0.00    -0.011 C 
HETATM    4  C5  UNL     1      28.151   5.609  48.472  1.00  0.00    -0.070 C 
HETATM    5  C8  UNL     1      27.725   7.010  48.656  1.00  0.00     0.088 C 
HETATM    6  C9  UNL     1      27.536   7.822  47.439  1.00  0.00     0.009 C 
HETATM    7  C10 UNL     1      28.602   8.014  46.426  1.00  0.00     0.065 C 
HETATM    8  N1  UNL     1      26.385   8.356  47.362  1.00  0.00    -0.258 NA
HETATM    9  C11 UNL     1      25.874   9.188  46.343  1.00  0.00     0.390 C 
HETATM   10  C12 UNL     1      24.509   9.683  46.588  1.00  0.00     0.080 C 
HETATM   11  C13 UNL     1      23.460   9.634  47.419  1.00  0.00     0.171 C 
HETATM   12  O3  UNL     1      22.871   9.134  48.599  1.00  0.00    -0.321 OA
HETATM   13  C14 UNL     1      23.403   7.924  49.121  1.00  0.00     0.075 A 
HETATM   14  C15 UNL     1      23.681   7.792  50.454  1.00  0.00     0.038 A 
HETATM   15  C16 UNL     1      24.210   6.618  50.934  1.00  0.00     0.017 A 
HETATM   16  C17 UNL     1      24.385   5.715  49.941  1.00  0.00    -0.006 A 
HETATM   17  C18 UNL     1      24.116   5.800  48.591  1.00  0.00     0.017 A 
HETATM   18  C19 UNL     1      23.583   6.985  48.119  1.00  0.00     0.038 A 
ENDROOT
BRANCH   4  19
HETATM   19  C6  UNL     1      29.471   5.547  47.919  1.00  0.00     0.115 C 
BRANCH  19  20
HETATM   20  C7  UNL     1      30.751   5.444  47.733  1.00  0.00     0.105 C 
BRANCH  20  21
HETATM   21  O2  UNL     1      32.099   5.340  47.470  1.00  0.00    -0.400 OA
HETATM   22  H8  UNL     1      32.546   4.444  47.703  1.00  0.00     0.209 HD
ENDBRANCH  20  21
ENDBRANCH  19  20
ENDBRANCH   4  19
BRANCH   1  23
HETATM   23  O1  UNL     1      24.429   3.161  50.229  1.00  0.00    -0.359 OA
HETATM   24  C1  UNL     1      24.264   2.843  51.600  1.00  0.00     0.209 C 
ENDBRANCH   1  23
BRANCH   9  25
HETATM   25  N2  UNL     1      25.913   8.423  45.086  1.00  0.00     0.109 N 
HETATM   26  H15 UNL     1      24.953   8.173  44.775  1.00  0.00     0.316 HD
HETATM   27  H16 UNL     1      26.510   8.871  44.380  1.00  0.00     0.316 HD
ENDBRANCH   9  25
BRANCH  10  28
HETATM   28  N3  UNL     1      24.192  10.548  45.470  1.00  0.00    -0.398 N 
HETATM   29  H17 UNL     1      24.059  11.183  44.654  1.00  0.00     0.156 HD
HETATM   30  H18 UNL     1      23.283  10.848  45.060  1.00  0.00     0.156 HD
ENDBRANCH  10  28
TORSDOF 6
ENDMDL
MODEL 9
REMARK VINA RESULT:      -5.9     23.143     25.233
REMARK  6 active torsions:
REMARK  status: ('A' for Active; 'I' for Inactive)
REMARK    1  A    between atoms: O1_2  and  C2_3 
REMARK    2  A    between atoms: C5_6  and  C6_7 
REMARK    3  A    between atoms: C6_7  and  C7_8 
REMARK    4  A    between atoms: C7_8  and  O2_9 
REMARK    5  A    between atoms: C11_14  and  N2_15 
REMARK    6  A    between atoms: C12_16  and  N3_17 
ROOT
HETATM    1  C2  UNL     1      43.741   1.861  68.511  1.00  0.00     0.064 C 
HETATM    2  C3  UNL     1      43.243   3.047  68.967  1.00  0.00     0.080 C 
HETATM    3  C4  UNL     1      42.011   3.246  69.766  1.00  0.00    -0.011 C 
HETATM    4  C5  UNL     1      40.878   2.933  70.457  1.00  0.00    -0.070 C 
HETATM    5  C8  UNL     1      40.481   1.538  70.730  1.00  0.00     0.088 C 
HETATM    6  C9  UNL     1      39.196   1.081  70.168  1.00  0.00     0.009 C 
HETATM    7  C10 UNL     1      37.909   1.767  70.439  1.00  0.00     0.065 C 
HETATM    8  N1  UNL     1      39.300   0.034  69.454  1.00  0.00    -0.258 NA
HETATM    9  C11 UNL     1      38.282  -0.665  68.774  1.00  0.00     0.390 C 
HETATM   10  C12 UNL     1      38.737  -1.878  68.074  1.00  0.00     0.080 C 
HETATM   11  C13 UNL     1      39.804  -2.624  67.760  1.00  0.00     0.171 C 
HETATM   12  O3  UNL     1      41.196  -2.839  67.831  1.00  0.00    -0.321 OA
HETATM   13  C14 UNL     1      42.009  -1.707  68.110  1.00  0.00     0.075 A 
HETATM   14  C15 UNL     1      43.011  -1.770  69.040  1.00  0.00     0.038 A 
HETATM   15  C16 UNL     1      43.774  -0.658  69.305  1.00  0.00     0.017 A 
HETATM   16  C17 UNL     1      43.385   0.397  68.551  1.00  0.00    -0.006 A 
HETATM   17  C18 UNL     1      42.390   0.505  67.603  1.00  0.00     0.017 A 
HETATM   18  C19 UNL     1      41.629  -0.619  67.343  1.00  0.00     0.038 A 
ENDROOT
BRANCH   4  19
HETATM   19  C6  UNL     1      39.982   3.851  71.095  1.00  0.00     0.115 C 
BRANCH  19  20
HETATM   20  C7  UNL     1      39.337   4.903  71.496  1.00  0.00     0.105 C 
BRANCH  20  21
HETATM   21  O2  UNL     1      38.632   6.029  71.859  1.00  0.00    -0.400 OA
HETATM   22  H8  UNL     1      38.414   6.699  71.110  1.00  0.00     0.209 HD
ENDBRANCH  20  21
ENDBRANCH  19  20
ENDBRANCH   4  19
BRANCH   1  23
HETATM   23  O1  UNL     1      44.870   2.381  67.872  1.00  0.00    -0.359 OA
HETATM   24  C1  UNL     1      44.739   3.359  66.854  1.00  0.00     0.209 C 
ENDBRANCH   1  23
BRANCH   9  25
HETATM   25  N2  UNL     1      37.669   0.268  67.815  1.00  0.00     0.109 N 
HETATM   26  H15 UNL     1      38.322   1.042  67.581  1.00  0.00     0.316 HD
HETATM   27  H16 UNL     1      37.249  -0.221  67.014  1.00  0.00     0.316 HD
ENDBRANCH   9  25
BRANCH  10  28
HETATM   28  N3  UNL     1      37.551  -2.472  67.492  1.00  0.00    -0.398 N 
HETATM   29  H17 UNL     1      36.686  -2.947  67.156  1.00  0.00     0.156 HD
HETATM   30  H18 UNL     1      37.108  -2.363  66.556  1.00  0.00     0.156 HD
ENDBRANCH  10  28
TORSDOF 6
ENDMDL
