MODEL 1
REMARK VINA RESULT:      -9.6      0.000      0.000
REMARK  5 active torsions:
REMARK  status: ('A' for Active; 'I' for Inactive)
REMARK    1  A    between atoms: C4_5  and  S1_6 
REMARK    2  A    between atoms: C7_9  and  O1_10 
REMARK    3  A    between atoms: C10_13  and  N2_14 
REMARK    4  A    between atoms: N2_14  and  C11_15 
REMARK    5  A    between atoms: C14_19  and  C15_20 
ROOT
HETATM    1  C1  UNL     1      17.329  -0.126  51.120  1.00  0.00     0.025 C 
HETATM    2  C2  UNL     1      18.596   0.181  51.265  1.00  0.00    -0.022 A 
HETATM    3  C3  UNL     1      19.173   1.116  50.296  1.00  0.00     0.123 A 
HETATM    4  N1  UNL     1      20.367   1.254  50.610  1.00  0.00    -0.281 NA
HETATM    5  C4  UNL     1      21.431   2.048  50.038  1.00  0.00     0.194 A 
HETATM    6  C6  UNL     1      22.602   1.874  50.852  1.00  0.00     0.047 A 
HETATM    7  C7  UNL     1      23.782   1.966  51.326  1.00  0.00     0.069 A 
HETATM    8  C9  UNL     1      24.989   1.849  52.089  1.00  0.00     0.062 A 
HETATM    9  C10 UNL     1      24.739   0.975  53.111  1.00  0.00     0.018 A 
HETATM   10  C17 UNL     1      24.380   0.053  54.136  1.00  0.00     0.078 A 
HETATM   11  C18 UNL     1      23.539  -0.723  54.705  1.00  0.00    -0.073 A 
HETATM   12  C19 UNL     1      24.397  -1.225  55.804  1.00  0.00     0.044 C 
HETATM   13  C20 UNL     1      22.142  -1.230  54.719  1.00  0.00     0.003 A 
HETATM   14  C21 UNL     1      20.983  -1.223  54.187  1.00  0.00     0.001 A 
HETATM   15  C22 UNL     1      20.227  -0.665  53.113  1.00  0.00     0.007 A 
HETATM   16  C23 UNL     1      19.145  -0.506  52.421  1.00  0.00    -0.051 A 
HETATM   17  C24 UNL     1      18.349  -1.416  53.255  1.00  0.00     0.049 C 
ENDROOT
BRANCH   9  18
HETATM   18  N2  UNL     1      26.097   1.042  53.746  1.00  0.00    -0.368 N 
HETATM   19  H13 UNL     1      26.840   1.490  54.371  1.00  0.00     0.161 HD
BRANCH  18  20
HETATM   20  C11 UNL     1      27.034  -0.149  53.393  1.00  0.00     0.118 A 
HETATM   21  N3  UNL     1      28.083   0.593  54.033  1.00  0.00    -0.217 N 
HETATM   22  C12 UNL     1      29.076  -0.670  54.098  1.00  0.00     0.117 A 
HETATM   23  C13 UNL     1      28.125  -1.474  53.116  1.00  0.00     0.024 A 
HETATM   24  C14 UNL     1      29.235  -1.881  53.116  1.00  0.00     0.028 A 
HETATM   25  C16 UNL     1      26.758  -1.774  52.390  1.00  0.00     0.019 A 
HETATM   26  C15 UNL     1      27.766  -1.624  52.861  1.00  0.00     0.024 A 
ENDBRANCH  18  20
ENDBRANCH   9  18
BRANCH   7  27
HETATM   27  O1  UNL     1      24.048   2.871  50.263  1.00  0.00    -0.356 OA
HETATM   28  C8  UNL     1      25.279   3.410  49.945  1.00  0.00     0.210 C 
ENDBRANCH   7  27
BRANCH   5  29
HETATM   29  S1  UNL     1      21.630   1.710  48.301  1.00  0.00    -0.142 SA
HETATM   30  C5  UNL     1      22.077   3.090  47.278  1.00  0.00     0.092 C 
ENDBRANCH   5  29
TORSDOF 5
ENDMDL
MODEL 2
REMARK VINA RESULT:      -8.4      3.357      6.692
REMARK  5 active torsions:
REMARK  status: ('A' for Active; 'I' for Inactive)
REMARK    1  A    between atoms: C4_5  and  S1_6 
REMARK    2  A    between atoms: C7_9  and  O1_10 
REMARK    3  A    between atoms: C10_13  and  N2_14 
REMARK    4  A    between atoms: N2_14  and  C11_15 
REMARK    5  A    between atoms: C14_19  and  C15_20 
ROOT
HETATM    1  C1  UNL     1      21.204  -1.477  53.957  1.00  0.00     0.025 C 
HETATM    2  C2  UNL     1      22.099  -0.700  53.395  1.00  0.00    -0.022 A 
HETATM    3  C3  UNL     1      23.495  -0.883  53.802  1.00  0.00     0.123 A 
HETATM    4  N1  UNL     1      24.158  -0.049  53.164  1.00  0.00    -0.281 NA
HETATM    5  C4  UNL     1      25.574   0.243  53.136  1.00  0.00     0.194 A 
HETATM    6  C6  UNL     1      25.796   1.272  52.159  1.00  0.00     0.047 A 
HETATM    7  C7  UNL     1      26.352   2.129  51.396  1.00  0.00     0.069 A 
HETATM    8  C9  UNL     1      26.656   3.148  50.437  1.00  0.00     0.062 A 
HETATM    9  C10 UNL     1      25.472   3.544  49.876  1.00  0.00     0.018 A 
HETATM   10  C17 UNL     1      24.191   3.887  49.358  1.00  0.00     0.078 A 
HETATM   11  C18 UNL     1      22.920   3.756  49.326  1.00  0.00    -0.073 A 
HETATM   12  C19 UNL     1      22.611   4.763  48.284  1.00  0.00     0.044 C 
HETATM   13  C20 UNL     1      21.743   3.011  49.845  1.00  0.00     0.003 A 
HETATM   14  C21 UNL     1      21.293   2.105  50.622  1.00  0.00     0.001 A 
HETATM   15  C22 UNL     1      21.689   1.140  51.596  1.00  0.00     0.007 A 
HETATM   16  C23 UNL     1      21.457   0.191  52.444  1.00  0.00    -0.051 A 
HETATM   17  C24 UNL     1      20.007   0.187  52.208  1.00  0.00     0.049 C 
ENDROOT
BRANCH   9  18
HETATM   18  N2  UNL     1      26.047   4.558  48.930  1.00  0.00    -0.368 N 
HETATM   19  H13 UNL     1      26.475   4.863  47.999  1.00  0.00     0.161 HD
BRANCH  18  20
HETATM   20  C11 UNL     1      26.079   6.011  49.484  1.00  0.00     0.118 A 
HETATM   21  N3  UNL     1      27.278   6.191  48.716  1.00  0.00    -0.217 N 
HETATM   22  C12 UNL     1      27.260   7.791  48.870  1.00  0.00     0.117 A 
HETATM   23  C13 UNL     1      26.139   7.675  49.986  1.00  0.00     0.024 A 
HETATM   24  C14 UNL     1      26.749   8.686  50.051  1.00  0.00     0.028 A 
HETATM   25  C16 UNL     1      24.976   6.946  50.762  1.00  0.00     0.019 A 
HETATM   26  C15 UNL     1      25.797   7.530  50.266  1.00  0.00     0.024 A 
ENDBRANCH  18  20
ENDBRANCH   9  18
BRANCH   7  27
HETATM   27  O1  UNL     1      27.583   1.725  51.978  1.00  0.00    -0.356 OA
HETATM   28  C8  UNL     1      28.382   2.492  52.802  1.00  0.00     0.210 C 
ENDBRANCH   7  27
BRANCH   5  29
HETATM   29  S1  UNL     1      26.202   0.568  54.770  1.00  0.00    -0.142 SA
HETATM   30  C5  UNL     1      27.858   0.021  55.099  1.00  0.00     0.092 C 
ENDBRANCH   5  29
TORSDOF 5
ENDMDL
MODEL 3
REMARK VINA RESULT:      -8.2      2.319      7.944
REMARK  5 active torsions:
REMARK  status: ('A' for Active; 'I' for Inactive)
REMARK    1  A    between atoms: C4_5  and  S1_6 
REMARK    2  A    between atoms: C7_9  and  O1_10 
REMARK    3  A    between atoms: C10_13  and  N2_14 
REMARK    4  A    between atoms: N2_14  and  C11_15 
REMARK    5  A    between atoms: C14_19  and  C15_20 
ROOT
HETATM    1  C1  UNL     1      25.483  -0.529  54.672  1.00  0.00     0.025 C 
HETATM    2  C2  UNL     1      24.567  -0.118  53.828  1.00  0.00    -0.022 A 
HETATM    3  C3  UNL     1      25.003   0.769  52.746  1.00  0.00     0.123 A 
HETATM    4  N1  UNL     1      23.988   1.040  52.084  1.00  0.00    -0.281 NA
HETATM    5  C4  UNL     1      23.791   1.855  50.906  1.00  0.00     0.194 A 
HETATM    6  C6  UNL     1      22.409   1.760  50.527  1.00  0.00     0.047 A 
HETATM    7  C7  UNL     1      21.302   1.900  49.910  1.00  0.00     0.069 A 
HETATM    8  C9  UNL     1      19.941   1.855  49.465  1.00  0.00     0.062 A 
HETATM    9  C10 UNL     1      19.253   1.065  50.345  1.00  0.00     0.018 A 
HETATM   10  C17 UNL     1      18.627   0.232  51.316  1.00  0.00     0.078 A 
HETATM   11  C18 UNL     1      18.663  -0.476  52.379  1.00  0.00    -0.073 A 
HETATM   12  C19 UNL     1      17.240  -0.887  52.430  1.00  0.00     0.044 C 
HETATM   13  C20 UNL     1      19.516  -1.040  53.457  1.00  0.00     0.003 A 
HETATM   14  C21 UNL     1      20.676  -1.142  53.977  1.00  0.00     0.001 A 
HETATM   15  C22 UNL     1      22.031  -0.717  53.831  1.00  0.00     0.007 A 
HETATM   16  C23 UNL     1      23.276  -0.682  54.181  1.00  0.00    -0.051 A 
HETATM   17  C24 UNL     1      23.086  -1.564  55.341  1.00  0.00     0.049 C 
ENDROOT
BRANCH   9  18
HETATM   18  N2  UNL     1      17.916   1.159  49.669  1.00  0.00    -0.368 N 
HETATM   19  H13 UNL     1      17.206   0.898  48.914  1.00  0.00     0.161 HD
BRANCH  18  20
HETATM   20  C11 UNL     1      16.910   2.124  50.360  1.00  0.00     0.118 A 
HETATM   21  N3  UNL     1      15.885   1.470  49.596  1.00  0.00    -0.217 N 
HETATM   22  C12 UNL     1      14.691   2.097  50.471  1.00  0.00     0.117 A 
HETATM   23  C13 UNL     1      15.711   3.102  51.152  1.00  0.00     0.024 A 
HETATM   24  C14 UNL     1      14.591   3.480  51.202  1.00  0.00     0.028 A 
HETATM   25  C16 UNL     1      17.144   3.598  51.582  1.00  0.00     0.019 A 
HETATM   26  C15 UNL     1      16.092   3.318  51.309  1.00  0.00     0.024 A 
ENDBRANCH  18  20
ENDBRANCH   9  18
BRANCH   7  27
HETATM   27  O1  UNL     1      22.011   2.725  48.996  1.00  0.00    -0.356 OA
HETATM   28  C8  UNL     1      22.226   2.457  47.659  1.00  0.00     0.210 C 
ENDBRANCH   7  27
BRANCH   5  29
HETATM   29  S1  UNL     1      24.427   3.500  51.141  1.00  0.00    -0.142 SA
HETATM   30  C5  UNL     1      23.417   4.603  52.099  1.00  0.00     0.092 C 
ENDBRANCH   5  29
TORSDOF 5
ENDMDL
MODEL 4
REMARK VINA RESULT:      -8.2      3.154      6.823
REMARK  5 active torsions:
REMARK  status: ('A' for Active; 'I' for Inactive)
REMARK    1  A    between atoms: C4_5  and  S1_6 
REMARK    2  A    between atoms: C7_9  and  O1_10 
REMARK    3  A    between atoms: C10_13  and  N2_14 
REMARK    4  A    between atoms: N2_14  and  C11_15 
REMARK    5  A    between atoms: C14_19  and  C15_20 
ROOT
HETATM    1  C1  UNL     1      22.833  -1.560  55.193  1.00  0.00     0.025 C 
HETATM    2  C2  UNL     1      22.668  -0.641  54.271  1.00  0.00    -0.022 A 
HETATM    3  C3  UNL     1      21.294  -0.228  53.975  1.00  0.00     0.123 A 
HETATM    4  N1  UNL     1      21.370   0.628  53.078  1.00  0.00    -0.281 NA
HETATM    5  C4  UNL     1      20.359   1.397  52.388  1.00  0.00     0.194 A 
HETATM    6  C6  UNL     1      21.025   2.294  51.484  1.00  0.00     0.047 A 
HETATM    7  C7  UNL     1      21.259   3.196  50.614  1.00  0.00     0.069 A 
HETATM    8  C9  UNL     1      21.846   4.122  49.692  1.00  0.00     0.062 A 
HETATM    9  C10 UNL     1      23.201   3.942  49.746  1.00  0.00     0.018 A 
HETATM   10  C17 UNL     1      24.595   3.677  49.872  1.00  0.00     0.078 A 
HETATM   11  C18 UNL     1      25.574   3.029  50.376  1.00  0.00    -0.073 A 
HETATM   12  C19 UNL     1      26.686   3.697  49.659  1.00  0.00     0.044 C 
HETATM   13  C20 UNL     1      25.994   1.994  51.357  1.00  0.00     0.003 A 
HETATM   14  C21 UNL     1      25.653   1.139  52.239  1.00  0.00     0.001 A 
HETATM   15  C22 UNL     1      24.522   0.573  52.901  1.00  0.00     0.007 A 
HETATM   16  C23 UNL     1      23.958  -0.223  53.749  1.00  0.00    -0.051 A 
HETATM   17  C24 UNL     1      25.226  -0.801  54.214  1.00  0.00     0.049 C 
ENDROOT
BRANCH   9  18
HETATM   18  N2  UNL     1      23.566   5.002  48.747  1.00  0.00    -0.368 N 
HETATM   19  H13 UNL     1      23.670   5.387  47.755  1.00  0.00     0.161 HD
BRANCH  18  20
HETATM   20  C11 UNL     1      24.072   6.333  49.375  1.00  0.00     0.118 A 
HETATM   21  N3  UNL     1      24.604   6.646  48.080  1.00  0.00    -0.217 N 
HETATM   22  C12 UNL     1      24.852   8.193  48.442  1.00  0.00     0.117 A 
HETATM   23  C13 UNL     1      24.592   7.880  49.975  1.00  0.00     0.024 A 
HETATM   24  C14 UNL     1      25.228   8.863  49.809  1.00  0.00     0.028 A 
HETATM   25  C16 UNL     1      24.033   7.025  51.176  1.00  0.00     0.019 A 
HETATM   26  C15 UNL     1      24.466   7.687  50.379  1.00  0.00     0.024 A 
ENDBRANCH  18  20
ENDBRANCH   9  18
BRANCH   7  27
HETATM   27  O1  UNL     1      19.852   3.383  50.551  1.00  0.00    -0.356 OA
HETATM   28  C8  UNL     1      19.202   4.525  50.126  1.00  0.00     0.210 C 
ENDBRANCH   7  27
BRANCH   5  29
HETATM   29  S1  UNL     1      19.119   0.341  51.670  1.00  0.00    -0.142 SA
HETATM   30  C5  UNL     1      17.475   1.005  51.585  1.00  0.00     0.092 C 
ENDBRANCH   5  29
TORSDOF 5
ENDMDL
MODEL 5
REMARK VINA RESULT:      -7.7      2.515      7.781
REMARK  5 active torsions:
REMARK  status: ('A' for Active; 'I' for Inactive)
REMARK    1  A    between atoms: C4_5  and  S1_6 
REMARK    2  A    between atoms: C7_9  and  O1_10 
REMARK    3  A    between atoms: C10_13  and  N2_14 
REMARK    4  A    between atoms: N2_14  and  C11_15 
REMARK    5  A    between atoms: C14_19  and  C15_20 
ROOT
HETATM    1  C1  UNL     1      27.564   1.906  52.771  1.00  0.00     0.025 C 
HETATM    2  C2  UNL     1      26.422   1.995  52.131  1.00  0.00    -0.022 A 
HETATM    3  C3  UNL     1      26.402   2.797  50.905  1.00  0.00     0.123 A 
HETATM    4  N1  UNL     1      25.237   2.755  50.477  1.00  0.00    -0.281 NA
HETATM    5  C4  UNL     1      24.614   3.340  49.311  1.00  0.00     0.194 A 
HETATM    6  C6  UNL     1      23.245   2.905  49.274  1.00  0.00     0.047 A 
HETATM    7  C7  UNL     1      22.033   2.721  48.922  1.00  0.00     0.069 A 
HETATM    8  C9  UNL     1      20.660   2.329  48.811  1.00  0.00     0.062 A 
HETATM    9  C10 UNL     1      20.376   1.539  49.892  1.00  0.00     0.018 A 
HETATM   10  C17 UNL     1      20.181   0.734  51.050  1.00  0.00     0.078 A 
HETATM   11  C18 UNL     1      20.602   0.201  52.133  1.00  0.00    -0.073 A 
HETATM   12  C19 UNL     1      19.360  -0.490  52.548  1.00  0.00     0.044 C 
HETATM   13  C20 UNL     1      21.769  -0.017  53.027  1.00  0.00     0.003 A 
HETATM   14  C21 UNL     1      23.002   0.201  53.269  1.00  0.00     0.001 A 
HETATM   15  C22 UNL     1      24.158   0.879  52.776  1.00  0.00     0.007 A 
HETATM   16  C23 UNL     1      25.403   1.224  52.822  1.00  0.00    -0.051 A 
HETATM   17  C24 UNL     1      25.672   0.490  54.066  1.00  0.00     0.049 C 
ENDROOT
BRANCH   9  18
HETATM   18  N2  UNL     1      18.945   1.255  49.540  1.00  0.00    -0.368 N 
HETATM   19  H13 UNL     1      18.176   0.739  49.007  1.00  0.00     0.161 HD
BRANCH  18  20
HETATM   20  C11 UNL     1      17.906   2.100  50.331  1.00  0.00     0.118 A 
HETATM   21  N3  UNL     1      16.902   1.241  49.771  1.00  0.00    -0.217 N 
HETATM   22  C12 UNL     1      15.762   1.737  50.790  1.00  0.00     0.117 A 
HETATM   23  C13 UNL     1      16.691   2.936  51.252  1.00  0.00     0.024 A 
HETATM   24  C14 UNL     1      15.544   3.139  51.457  1.00  0.00     0.028 A 
HETATM   25  C16 UNL     1      18.070   3.680  51.427  1.00  0.00     0.019 A 
HETATM   26  C15 UNL     1      17.050   3.220  51.335  1.00  0.00     0.024 A 
ENDBRANCH  18  20
ENDBRANCH   9  18
BRANCH   7  27
HETATM   27  O1  UNL     1      22.322   3.544  47.801  1.00  0.00    -0.356 OA
HETATM   28  C8  UNL     1      21.397   4.072  46.921  1.00  0.00     0.210 C 
ENDBRANCH   7  27
BRANCH   5  29
HETATM   29  S1  UNL     1      24.876   5.100  49.250  1.00  0.00    -0.142 SA
HETATM   30  C5  UNL     1      24.342   6.024  50.668  1.00  0.00     0.092 C 
ENDBRANCH   5  29
TORSDOF 5
ENDMDL
MODEL 6
REMARK VINA RESULT:      -7.7      2.525      8.034
REMARK  5 active torsions:
REMARK  status: ('A' for Active; 'I' for Inactive)
REMARK    1  A    between atoms: C4_5  and  S1_6 
REMARK    2  A    between atoms: C7_9  and  O1_10 
REMARK    3  A    between atoms: C10_13  and  N2_14 
REMARK    4  A    between atoms: N2_14  and  C11_15 
REMARK    5  A    between atoms: C14_19  and  C15_20 
ROOT
HETATM    1  C1  UNL     1      26.106   0.871  52.885  1.00  0.00     0.025 C 
HETATM    2  C2  UNL     1      24.900   1.030  52.392  1.00  0.00    -0.022 A 
HETATM    3  C3  UNL     1      24.761   1.923  51.238  1.00  0.00     0.123 A 
HETATM    4  N1  UNL     1      23.554   1.935  50.948  1.00  0.00    -0.281 NA
HETATM    5  C4  UNL     1      22.817   2.618  49.909  1.00  0.00     0.194 A 
HETATM    6  C6  UNL     1      21.442   2.214  50.001  1.00  0.00     0.047 A 
HETATM    7  C7  UNL     1      20.193   2.081  49.781  1.00  0.00     0.069 A 
HETATM    8  C9  UNL     1      18.805   1.724  49.804  1.00  0.00     0.062 A 
HETATM    9  C10 UNL     1      18.626   0.861  50.851  1.00  0.00     0.018 A 
HETATM   10  C17 UNL     1      18.543  -0.025  51.963  1.00  0.00     0.078 A 
HETATM   11  C18 UNL     1      19.072  -0.646  52.946  1.00  0.00    -0.073 A 
HETATM   12  C19 UNL     1      17.867  -1.343  53.454  1.00  0.00     0.044 C 
HETATM   13  C20 UNL     1      20.328  -0.953  53.680  1.00  0.00     0.003 A 
HETATM   14  C21 UNL     1      21.586  -0.778  53.790  1.00  0.00     0.001 A 
HETATM   15  C22 UNL     1      22.695  -0.087  53.215  1.00  0.00     0.007 A 
HETATM   16  C23 UNL     1      23.947   0.229  53.140  1.00  0.00    -0.051 A 
HETATM   17  C24 UNL     1      24.337  -0.602  54.287  1.00  0.00     0.049 C 
ENDROOT
BRANCH   9  18
HETATM   18  N2  UNL     1      17.157   0.632  50.649  1.00  0.00    -0.368 N 
HETATM   19  H13 UNL     1      16.317   0.115  50.236  1.00  0.00     0.161 HD
BRANCH  18  20
HETATM   20  C11 UNL     1      16.237   1.609  51.436  1.00  0.00     0.118 A 
HETATM   21  N3  UNL     1      15.305   0.523  51.537  1.00  0.00    -0.217 N 
HETATM   22  C12 UNL     1      14.423   1.248  52.668  1.00  0.00     0.117 A 
HETATM   23  C13 UNL     1      15.191   2.610  52.400  1.00  0.00     0.024 A 
HETATM   24  C14 UNL     1      14.132   2.771  52.900  1.00  0.00     0.028 A 
HETATM   25  C16 UNL     1      16.390   3.484  51.868  1.00  0.00     0.019 A 
HETATM   26  C15 UNL     1      15.496   2.935  52.267  1.00  0.00     0.024 A 
ENDBRANCH  18  20
ENDBRANCH   9  18
BRANCH   7  27
HETATM   27  O1  UNL     1      20.372   2.980  48.697  1.00  0.00    -0.356 OA
HETATM   28  C8  UNL     1      19.673   2.967  47.506  1.00  0.00     0.210 C 
ENDBRANCH   7  27
BRANCH   5  29
HETATM   29  S1  UNL     1      23.119   4.372  49.945  1.00  0.00    -0.142 SA
HETATM   30  C5  UNL     1      23.026   5.218  48.387  1.00  0.00     0.092 C 
ENDBRANCH   5  29
TORSDOF 5
ENDMDL
MODEL 7
REMARK VINA RESULT:      -7.7      4.711      8.615
REMARK  5 active torsions:
REMARK  status: ('A' for Active; 'I' for Inactive)
REMARK    1  A    between atoms: C4_5  and  S1_6 
REMARK    2  A    between atoms: C7_9  and  O1_10 
REMARK    3  A    between atoms: C10_13  and  N2_14 
REMARK    4  A    between atoms: N2_14  and  C11_15 
REMARK    5  A    between atoms: C14_19  and  C15_20 
ROOT
HETATM    1  C1  UNL     1      24.119   0.443  52.967  1.00  0.00     0.025 C 
HETATM    2  C2  UNL     1      23.995   1.624  52.409  1.00  0.00    -0.022 A 
HETATM    3  C3  UNL     1      22.769   2.374  52.695  1.00  0.00     0.123 A 
HETATM    4  N1  UNL     1      22.855   3.441  52.065  1.00  0.00    -0.281 NA
HETATM    5  C4  UNL     1      21.966   4.576  51.960  1.00  0.00     0.194 A 
HETATM    6  C6  UNL     1      22.606   5.566  51.139  1.00  0.00     0.047 A 
HETATM    7  C7  UNL     1      22.858   6.636  50.494  1.00  0.00     0.069 A 
HETATM    8  C9  UNL     1      23.430   7.675  49.690  1.00  0.00     0.062 A 
HETATM    9  C10 UNL     1      24.643   7.223  49.247  1.00  0.00     0.018 A 
HETATM   10  C17 UNL     1      25.886   6.661  48.836  1.00  0.00     0.078 A 
HETATM   11  C18 UNL     1      26.733   5.705  48.812  1.00  0.00    -0.073 A 
HETATM   12  C19 UNL     1      27.767   6.334  47.957  1.00  0.00     0.044 C 
HETATM   13  C20 UNL     1      27.074   4.347  49.310  1.00  0.00     0.003 A 
HETATM   14  C21 UNL     1      26.741   3.337  50.014  1.00  0.00     0.001 A 
HETATM   15  C22 UNL     1      25.703   2.824  50.850  1.00  0.00     0.007 A 
HETATM   16  C23 UNL     1      25.172   1.924  51.612  1.00  0.00    -0.051 A 
HETATM   17  C24 UNL     1      26.296   0.988  51.474  1.00  0.00     0.049 C 
ENDROOT
BRANCH   9  18
HETATM   18  N2  UNL     1      25.028   8.454  48.480  1.00  0.00    -0.368 N 
HETATM   19  H13 UNL     1      25.412   9.449  48.396  1.00  0.00     0.161 HD
BRANCH  18  20
HETATM   20  C11 UNL     1      24.817   8.349  46.942  1.00  0.00     0.118 A 
HETATM   21  N3  UNL     1      25.932   9.242  46.810  1.00  0.00    -0.217 N 
HETATM   22  C12 UNL     1      26.108   8.954  45.238  1.00  0.00     0.117 A 
HETATM   23  C13 UNL     1      24.705   8.215  45.212  1.00  0.00     0.024 A 
HETATM   24  C14 UNL     1      25.035   8.611  44.148  1.00  0.00     0.028 A 
HETATM   25  C16 UNL     1      23.482   7.464  45.865  1.00  0.00     0.019 A 
HETATM   26  C15 UNL     1      24.312   7.995  45.325  1.00  0.00     0.024 A 
ENDBRANCH  18  20
ENDBRANCH   9  18
BRANCH   7  27
HETATM   27  O1  UNL     1      21.597   7.108  50.947  1.00  0.00    -0.356 OA
HETATM   28  C8  UNL     1      20.738   7.931  50.246  1.00  0.00     0.210 C 
ENDBRANCH   7  27
BRANCH   5  29
HETATM   29  S1  UNL     1      20.334   4.077  51.454  1.00  0.00    -0.142 SA
HETATM   30  C5  UNL     1      19.997   4.144  49.712  1.00  0.00     0.092 C 
ENDBRANCH   5  29
TORSDOF 5
ENDMDL
MODEL 8
REMARK VINA RESULT:      -7.6      3.264      7.286
REMARK  5 active torsions:
REMARK  status: ('A' for Active; 'I' for Inactive)
REMARK    1  A    between atoms: C4_5  and  S1_6 
REMARK    2  A    between atoms: C7_9  and  O1_10 
REMARK    3  A    between atoms: C10_13  and  N2_14 
REMARK    4  A    between atoms: N2_14  and  C11_15 
REMARK    5  A    between atoms: C14_19  and  C15_20 
ROOT
HETATM    1  C1  UNL     1      26.179   6.398  48.200  1.00  0.00     0.025 C 
HETATM    2  C2  UNL     1      25.236   5.805  48.893  1.00  0.00    -0.022 A 
HETATM    3  C3  UNL     1      23.901   6.408  48.861  1.00  0.00     0.123 A 
HETATM    4  N1  UNL     1      23.180   5.702  49.584  1.00  0.00    -0.281 NA
HETATM    5  C4  UNL     1      21.779   5.789  49.932  1.00  0.00     0.194 A 
HETATM    6  C6  UNL     1      21.456   4.659  50.758  1.00  0.00     0.047 A 
HETATM    7  C7  UNL     1      20.826   3.814  51.474  1.00  0.00     0.069 A 
HETATM    8  C9  UNL     1      20.423   2.714  52.299  1.00  0.00     0.062 A 
HETATM    9  C10 UNL     1      21.533   1.945  52.519  1.00  0.00     0.018 A 
HETATM   10  C17 UNL     1      22.744   1.216  52.692  1.00  0.00     0.078 A 
HETATM   11  C18 UNL     1      23.997   1.055  52.497  1.00  0.00    -0.073 A 
HETATM   12  C19 UNL     1      24.191  -0.198  53.264  1.00  0.00     0.044 C 
HETATM   13  C20 UNL     1      25.213   1.566  51.813  1.00  0.00     0.003 A 
HETATM   14  C21 UNL     1      25.740   2.448  51.057  1.00  0.00     0.001 A 
HETATM   15  C22 UNL     1      25.451   3.637  50.322  1.00  0.00     0.007 A 
HETATM   16  C23 UNL     1      25.770   4.624  49.548  1.00  0.00    -0.051 A 
HETATM   17  C24 UNL     1      27.176   4.217  49.428  1.00  0.00     0.049 C 
ENDROOT
BRANCH   9  18
HETATM   18  N2  UNL     1      20.864   0.892  53.354  1.00  0.00    -0.368 N 
HETATM   19  H13 UNL     1      20.751   0.299  54.237  1.00  0.00     0.161 HD
BRANCH  18  20
HETATM   20  C11 UNL     1      19.623   0.232  52.687  1.00  0.00     0.118 A 
HETATM   21  N3  UNL     1      19.630  -0.696  53.781  1.00  0.00    -0.217 N 
HETATM   22  C12 UNL     1      18.156  -1.249  53.456  1.00  0.00     0.117 A 
HETATM   23  C13 UNL     1      18.182  -0.508  52.054  1.00  0.00     0.024 A 
HETATM   24  C14 UNL     1      17.416  -1.409  52.083  1.00  0.00     0.028 A 
HETATM   25  C16 UNL     1      18.701   0.567  51.024  1.00  0.00     0.019 A 
HETATM   26  C15 UNL     1      18.281  -0.229  51.696  1.00  0.00     0.024 A 
ENDBRANCH  18  20
ENDBRANCH   9  18
BRANCH   7  27
HETATM   27  O1  UNL     1      19.671   4.611  51.252  1.00  0.00    -0.356 OA
HETATM   28  C8  UNL     1      18.479   4.180  50.705  1.00  0.00     0.210 C 
ENDBRANCH   7  27
BRANCH   5  29
HETATM   29  S1  UNL     1      21.375   7.388  50.601  1.00  0.00    -0.142 SA
HETATM   30  C5  UNL     1      20.111   8.299  49.752  1.00  0.00     0.092 C 
ENDBRANCH   5  29
TORSDOF 5
ENDMDL
MODEL 9
REMARK VINA RESULT:      -7.5      3.658      9.057
REMARK  5 active torsions:
REMARK  status: ('A' for Active; 'I' for Inactive)
REMARK    1  A    between atoms: C4_5  and  S1_6 
REMARK    2  A    between atoms: C7_9  and  O1_10 
REMARK    3  A    between atoms: C10_13  and  N2_14 
REMARK    4  A    between atoms: N2_14  and  C11_15 
REMARK    5  A    between atoms: C14_19  and  C15_20 
ROOT
HETATM    1  C1  UNL     1      23.791  -0.427  53.773  1.00  0.00     0.025 C 
HETATM    2  C2  UNL     1      22.756   0.196  53.261  1.00  0.00    -0.022 A 
HETATM    3  C3  UNL     1      23.010   1.463  52.572  1.00  0.00     0.123 A 
HETATM    4  N1  UNL     1      21.906   1.878  52.182  1.00  0.00    -0.281 NA
HETATM    5  C4  UNL     1      21.524   3.061  51.445  1.00  0.00     0.194 A 
HETATM    6  C6  UNL     1      20.108   3.000  51.211  1.00  0.00     0.047 A 
HETATM    7  C7  UNL     1      18.924   3.269  50.821  1.00  0.00     0.069 A 
HETATM    8  C9  UNL     1      17.519   3.280  50.544  1.00  0.00     0.062 A 
HETATM    9  C10 UNL     1      16.984   2.157  51.114  1.00  0.00     0.018 A 
HETATM   10  C17 UNL     1      16.526   0.965  51.744  1.00  0.00     0.078 A 
HETATM   11  C18 UNL     1      16.729  -0.091  52.435  1.00  0.00    -0.073 A 
HETATM   12  C19 UNL     1      15.343  -0.611  52.475  1.00  0.00     0.044 C 
HETATM   13  C20 UNL     1      17.739  -0.949  53.108  1.00  0.00     0.003 A 
HETATM   14  C21 UNL     1      18.961  -1.141  53.418  1.00  0.00     0.001 A 
HETATM   15  C22 UNL     1      20.268  -0.577  53.304  1.00  0.00     0.007 A 
HETATM   16  C23 UNL     1      21.546  -0.571  53.503  1.00  0.00    -0.051 A 
HETATM   17  C24 UNL     1      21.546  -1.842  54.240  1.00  0.00     0.049 C 
ENDROOT
BRANCH   9  18
HETATM   18  N2  UNL     1      15.567   2.386  50.677  1.00  0.00    -0.368 N 
HETATM   19  H13 UNL     1      14.753   2.306  49.988  1.00  0.00     0.161 HD
BRANCH  18  20
HETATM   20  C11 UNL     1      14.681   3.125  51.721  1.00  0.00     0.118 A 
HETATM   21  N3  UNL     1      13.554   2.713  50.935  1.00  0.00    -0.217 N 
HETATM   22  C12 UNL     1      12.489   3.076  52.084  1.00  0.00     0.117 A 
HETATM   23  C13 UNL     1      13.616   3.849  52.889  1.00  0.00     0.024 A 
HETATM   24  C14 UNL     1      12.524   4.202  53.174  1.00  0.00     0.028 A 
HETATM   25  C16 UNL     1      15.106   4.201  53.266  1.00  0.00     0.019 A 
HETATM   26  C15 UNL     1      14.020   4.011  53.052  1.00  0.00     0.024 A 
ENDBRANCH  18  20
ENDBRANCH   9  18
BRANCH   7  27
HETATM   27  O1  UNL     1      19.473   4.439  50.232  1.00  0.00    -0.356 OA
HETATM   28  C8  UNL     1      19.379   4.799  48.902  1.00  0.00     0.210 C 
ENDBRANCH   7  27
BRANCH   5  29
HETATM   29  S1  UNL     1      22.122   4.540  52.235  1.00  0.00    -0.142 SA
HETATM   30  C5  UNL     1      22.730   5.815  51.159  1.00  0.00     0.092 C 
ENDBRANCH   5  29
TORSDOF 5
ENDMDL
