MODEL 1
REMARK VINA RESULT:      -9.1      0.000      0.000
REMARK  5 active torsions:
REMARK  status: ('A' for Active; 'I' for Inactive)
REMARK    1  A    between atoms: C2_2  and  C3_3 
REMARK       I    between atoms: C3_3  and  N1_5 
REMARK    2  A    between atoms: N1_5  and  C4_6 
REMARK    3  A    between atoms: C12_17  and  N4_18 
REMARK    4  A    between atoms: N4_18  and  C13_19 
REMARK    5  A    between atoms: C13_19  and  C15_21 
ROOT
HETATM    1  C4  UNL     1      20.507  -0.029  53.939  1.00  0.00     0.125 C 
HETATM    2  C5  UNL     1      21.142  -1.304  54.414  1.00  0.00     0.031 C 
HETATM    3  C6  UNL     1      22.172  -1.657  53.403  1.00  0.00     0.007 C 
HETATM    4  C7  UNL     1      23.301  -0.676  53.240  1.00  0.00     0.041 C 
HETATM    5  C8  UNL     1      22.849   0.658  52.784  1.00  0.00    -0.026 A 
HETATM    6  C9  UNL     1      21.514   0.773  53.175  1.00  0.00     0.015 A 
HETATM    7  S1  UNL     1      21.013   2.367  52.539  1.00  0.00    -0.071 SA
HETATM    8  C10 UNL     1      22.586   2.779  51.806  1.00  0.00     0.114 A 
HETATM    9  N2  UNL     1      22.943   3.880  51.142  1.00  0.00    -0.234 NA
HETATM   10  C11 UNL     1      24.186   3.997  50.684  1.00  0.00     0.236 A 
HETATM   11  N3  UNL     1      24.939   2.963  50.958  1.00  0.00    -0.224 NA
HETATM   12  C12 UNL     1      24.635   1.840  51.617  1.00  0.00     0.139 A 
HETATM   13  C21 UNL     1      23.353   1.699  52.095  1.00  0.00     0.053 A 
ENDROOT
BRANCH  12  14
HETATM   14  N4  UNL     1      25.728   0.910  51.829  1.00  0.00    -0.366 N 
HETATM   15  H13 UNL     1      26.118   0.229  51.155  1.00  0.00     0.161 HD
BRANCH  14  16
HETATM   16  C13 UNL     1      26.384   0.871  53.142  1.00  0.00     0.112 C 
HETATM   17  C14 UNL     1      26.687   2.227  53.696  1.00  0.00     0.037 C 
BRANCH  16  18
HETATM   18  C15 UNL     1      27.485  -0.101  53.229  1.00  0.00    -0.036 A 
HETATM   19  C16 UNL     1      28.764   0.076  53.670  1.00  0.00     0.009 A 
HETATM   20  C17 UNL     1      29.725  -0.903  53.729  1.00  0.00     0.001 A 
HETATM   21  C18 UNL     1      29.434  -2.180  53.328  1.00  0.00     0.000 A 
HETATM   22  C19 UNL     1      28.158  -2.435  52.869  1.00  0.00     0.001 A 
HETATM   23  C20 UNL     1      27.195  -1.417  52.818  1.00  0.00     0.009 A 
ENDBRANCH  16  18
ENDBRANCH  14  16
ENDBRANCH  12  14
BRANCH   1  24
HETATM   24  N1  UNL     1      19.304  -0.193  53.177  1.00  0.00    -0.348 N 
HETATM   25  C3  UNL     1      18.173  -0.987  52.993  1.00  0.00     0.240 C 
HETATM   26  O1  UNL     1      18.049  -1.976  53.724  1.00  0.00    -0.269 OA
HETATM   27  H4  UNL     1      19.357   0.648  52.519  1.00  0.00     0.163 HD
BRANCH  25  28
HETATM   28  C2  UNL     1      17.170  -0.691  52.005  1.00  0.00     0.064 C 
HETATM   29  C1  UNL     1      18.084   0.039  51.240  1.00  0.00     0.017 C 
ENDBRANCH  25  28
ENDBRANCH   1  24
TORSDOF 5
ENDMDL
MODEL 2
REMARK VINA RESULT:      -9.0      3.222      7.460
REMARK  5 active torsions:
REMARK  status: ('A' for Active; 'I' for Inactive)
REMARK    1  A    between atoms: C2_2  and  C3_3 
REMARK       I    between atoms: C3_3  and  N1_5 
REMARK    2  A    between atoms: N1_5  and  C4_6 
REMARK    3  A    between atoms: C12_17  and  N4_18 
REMARK    4  A    between atoms: N4_18  and  C13_19 
REMARK    5  A    between atoms: C13_19  and  C15_21 
ROOT
HETATM    1  C4  UNL     1      27.081   0.743  53.637  1.00  0.00     0.125 C 
HETATM    2  C5  UNL     1      27.294   1.761  52.554  1.00  0.00     0.031 C 
HETATM    3  C6  UNL     1      26.299   1.455  51.494  1.00  0.00     0.007 C 
HETATM    4  C7  UNL     1      24.853   1.579  51.891  1.00  0.00     0.041 C 
HETATM    5  C8  UNL     1      24.466   0.645  52.971  1.00  0.00    -0.026 A 
HETATM    6  C9  UNL     1      25.639   0.344  53.666  1.00  0.00     0.015 A 
HETATM    7  S1  UNL     1      25.116  -0.832  54.907  1.00  0.00    -0.071 SA
HETATM    8  C10 UNL     1      23.395  -0.849  54.436  1.00  0.00     0.114 A 
HETATM    9  N2  UNL     1      22.383  -1.534  54.971  1.00  0.00    -0.234 NA
HETATM   10  C11 UNL     1      21.158  -1.391  54.474  1.00  0.00     0.236 A 
HETATM   11  N3  UNL     1      21.099  -0.552  53.472  1.00  0.00    -0.224 NA
HETATM   12  C12 UNL     1      22.077   0.158  52.900  1.00  0.00     0.139 A 
HETATM   13  C21 UNL     1      23.351   0.021  53.397  1.00  0.00     0.053 A 
ENDROOT
BRANCH  12  14
HETATM   14  N4  UNL     1      21.669   1.072  51.850  1.00  0.00    -0.366 N 
HETATM   15  H13 UNL     1      21.673   0.905  50.829  1.00  0.00     0.161 HD
BRANCH  14  16
HETATM   16  C13 UNL     1      21.206   2.416  52.217  1.00  0.00     0.112 C 
HETATM   17  C14 UNL     1      19.729   2.599  52.065  1.00  0.00     0.037 C 
BRANCH  16  18
HETATM   18  C15 UNL     1      22.031   3.502  51.664  1.00  0.00    -0.036 A 
HETATM   19  C16 UNL     1      22.634   4.545  52.306  1.00  0.00     0.009 A 
HETATM   20  C17 UNL     1      23.403   5.508  51.703  1.00  0.00     0.001 A 
HETATM   21  C18 UNL     1      23.621   5.471  50.351  1.00  0.00     0.000 A 
HETATM   22  C19 UNL     1      23.043   4.445  49.635  1.00  0.00     0.001 A 
HETATM   23  C20 UNL     1      22.259   3.473  50.274  1.00  0.00     0.009 A 
ENDBRANCH  16  18
ENDBRANCH  14  16
ENDBRANCH  12  14
BRANCH   1  24
HETATM   24  N1  UNL     1      27.926  -0.412  53.564  1.00  0.00    -0.348 N 
HETATM   25  C3  UNL     1      29.247  -0.854  53.493  1.00  0.00     0.240 C 
HETATM   26  O1  UNL     1      30.134   0.009  53.483  1.00  0.00    -0.269 OA
HETATM   27  H4  UNL     1      27.205  -1.201  53.571  1.00  0.00     0.163 HD
BRANCH  25  28
HETATM   28  C2  UNL     1      29.598  -2.248  53.438  1.00  0.00     0.064 C 
HETATM   29  C1  UNL     1      28.347  -2.581  52.910  1.00  0.00     0.017 C 
ENDBRANCH  25  28
ENDBRANCH   1  24
TORSDOF 5
ENDMDL
MODEL 3
REMARK VINA RESULT:      -8.7      2.479      3.948
REMARK  5 active torsions:
REMARK  status: ('A' for Active; 'I' for Inactive)
REMARK    1  A    between atoms: C2_2  and  C3_3 
REMARK       I    between atoms: C3_3  and  N1_5 
REMARK    2  A    between atoms: N1_5  and  C4_6 
REMARK    3  A    between atoms: C12_17  and  N4_18 
REMARK    4  A    between atoms: N4_18  and  C13_19 
REMARK    5  A    between atoms: C13_19  and  C15_21 
ROOT
HETATM    1  C4  UNL     1      19.403   1.113  50.235  1.00  0.00     0.125 C 
HETATM    2  C5  UNL     1      20.260   1.776  49.196  1.00  0.00     0.031 C 
HETATM    3  C6  UNL     1      21.433   2.334  49.918  1.00  0.00     0.007 C 
HETATM    4  C7  UNL     1      22.324   1.333  50.601  1.00  0.00     0.041 C 
HETATM    5  C8  UNL     1      21.631   0.567  51.661  1.00  0.00    -0.026 A 
HETATM    6  C9  UNL     1      20.273   0.594  51.338  1.00  0.00     0.015 A 
HETATM    7  S1  UNL     1      19.490  -0.284  52.683  1.00  0.00    -0.071 SA
HETATM    8  C10 UNL     1      20.994  -0.631  53.580  1.00  0.00     0.114 A 
HETATM    9  N2  UNL     1      21.156  -1.292  54.727  1.00  0.00    -0.234 NA
HETATM   10  C11 UNL     1      22.379  -1.455  55.224  1.00  0.00     0.236 A 
HETATM   11  N3  UNL     1      23.315  -0.918  54.485  1.00  0.00    -0.224 NA
HETATM   12  C12 UNL     1      23.208  -0.249  53.332  1.00  0.00     0.139 A 
HETATM   13  C21 UNL     1      21.952  -0.067  52.804  1.00  0.00     0.053 A 
ENDROOT
BRANCH  12  14
HETATM   14  N4  UNL     1      24.457   0.153  52.711  1.00  0.00    -0.366 N 
HETATM   15  H13 UNL     1      24.886  -0.227  51.850  1.00  0.00     0.161 HD
BRANCH  14  16
HETATM   16  C13 UNL     1      25.262   1.203  53.348  1.00  0.00     0.112 C 
HETATM   17  C14 UNL     1      24.965   2.575  52.832  1.00  0.00     0.037 C 
BRANCH  16  18
HETATM   18  C15 UNL     1      26.691   0.873  53.460  1.00  0.00    -0.036 A 
HETATM   19  C16 UNL     1      27.308  -0.343  53.381  1.00  0.00     0.009 A 
HETATM   20  C17 UNL     1      28.661  -0.552  53.483  1.00  0.00     0.001 A 
HETATM   21  C18 UNL     1      29.510   0.504  53.679  1.00  0.00     0.000 A 
HETATM   22  C19 UNL     1      28.958   1.764  53.770  1.00  0.00     0.001 A 
HETATM   23  C20 UNL     1      27.573   1.953  53.664  1.00  0.00     0.009 A 
ENDBRANCH  16  18
ENDBRANCH  14  16
ENDBRANCH  12  14
BRANCH   1  24
HETATM   24  N1  UNL     1      18.344   1.922  50.762  1.00  0.00    -0.348 N 
HETATM   25  C3  UNL     1      18.044   3.034  51.549  1.00  0.00     0.240 C 
HETATM   26  O1  UNL     1      18.995   3.649  52.048  1.00  0.00    -0.269 OA
HETATM   27  H4  UNL     1      17.485   1.433  50.357  1.00  0.00     0.163 HD
BRANCH  25  28
HETATM   28  C2  UNL     1      16.696   3.475  51.787  1.00  0.00     0.064 C 
HETATM   29  C1  UNL     1      16.458   3.612  50.417  1.00  0.00     0.017 C 
ENDBRANCH  25  28
ENDBRANCH   1  24
TORSDOF 5
ENDMDL
MODEL 4
REMARK VINA RESULT:      -8.7      2.781      7.326
REMARK  5 active torsions:
REMARK  status: ('A' for Active; 'I' for Inactive)
REMARK    1  A    between atoms: C2_2  and  C3_3 
REMARK       I    between atoms: C3_3  and  N1_5 
REMARK    2  A    between atoms: N1_5  and  C4_6 
REMARK    3  A    between atoms: C12_17  and  N4_18 
REMARK    4  A    between atoms: N4_18  and  C13_19 
REMARK    5  A    between atoms: C13_19  and  C15_21 
ROOT
HETATM    1  C4  UNL     1      26.515   0.113  52.312  1.00  0.00     0.125 C 
HETATM    2  C5  UNL     1      25.808  -1.015  53.007  1.00  0.00     0.031 C 
HETATM    3  C6  UNL     1      24.627  -0.414  53.680  1.00  0.00     0.007 C 
HETATM    4  C7  UNL     1      23.601   0.214  52.774  1.00  0.00     0.041 C 
HETATM    5  C8  UNL     1      24.137   1.350  51.991  1.00  0.00    -0.026 A 
HETATM    6  C9  UNL     1      25.515   1.147  51.900  1.00  0.00     0.015 A 
HETATM    7  S1  UNL     1      26.105   2.579  51.007  1.00  0.00    -0.071 SA
HETATM    8  C10 UNL     1      24.507   3.348  50.809  1.00  0.00     0.114 A 
HETATM    9  N2  UNL     1      24.193   4.493  50.201  1.00  0.00    -0.234 NA
HETATM   10  C11 UNL     1      22.923   4.884  50.151  1.00  0.00     0.236 A 
HETATM   11  N3  UNL     1      22.101   4.052  50.736  1.00  0.00    -0.224 NA
HETATM   12  C12 UNL     1      22.360   2.896  51.357  1.00  0.00     0.139 A 
HETATM   13  C21 UNL     1      23.668   2.476  51.422  1.00  0.00     0.053 A 
ENDROOT
BRANCH  12  14
HETATM   14  N4  UNL     1      21.207   2.158  51.836  1.00  0.00    -0.366 N 
HETATM   15  H13 UNL     1      20.657   2.331  52.694  1.00  0.00     0.161 HD
BRANCH  14  16
HETATM   16  C13 UNL     1      20.730   1.004  51.062  1.00  0.00     0.112 C 
HETATM   17  C14 UNL     1      20.455   1.323  49.627  1.00  0.00     0.037 C 
BRANCH  16  18
HETATM   18  C15 UNL     1      19.684   0.223  51.742  1.00  0.00    -0.036 A 
HETATM   19  C16 UNL     1      19.742  -0.460  52.922  1.00  0.00     0.009 A 
HETATM   20  C17 UNL     1      18.701  -1.152  53.489  1.00  0.00     0.001 A 
HETATM   21  C18 UNL     1      17.482  -1.198  52.866  1.00  0.00     0.000 A 
HETATM   22  C19 UNL     1      17.348  -0.531  51.667  1.00  0.00     0.001 A 
HETATM   23  C20 UNL     1      18.427   0.169  51.108  1.00  0.00     0.009 A 
ENDBRANCH  16  18
ENDBRANCH  14  16
ENDBRANCH  12  14
BRANCH   1  24
HETATM   24  N1  UNL     1      27.588   0.709  53.052  1.00  0.00    -0.348 N 
HETATM   25  C3  UNL     1      28.356   0.624  54.213  1.00  0.00     0.240 C 
HETATM   26  O1  UNL     1      28.100  -0.299  54.996  1.00  0.00    -0.269 OA
HETATM   27  H4  UNL     1      27.855   1.525  52.415  1.00  0.00     0.163 HD
BRANCH  25  28
HETATM   28  C2  UNL     1      29.412   1.552  54.514  1.00  0.00     0.064 C 
HETATM   29  C1  UNL     1      28.834   2.533  53.703  1.00  0.00     0.017 C 
ENDBRANCH  25  28
ENDBRANCH   1  24
TORSDOF 5
ENDMDL
MODEL 5
REMARK VINA RESULT:      -8.6      2.920      8.175
REMARK  5 active torsions:
REMARK  status: ('A' for Active; 'I' for Inactive)
REMARK    1  A    between atoms: C2_2  and  C3_3 
REMARK       I    between atoms: C3_3  and  N1_5 
REMARK    2  A    between atoms: N1_5  and  C4_6 
REMARK    3  A    between atoms: C12_17  and  N4_18 
REMARK    4  A    between atoms: N4_18  and  C13_19 
REMARK    5  A    between atoms: C13_19  and  C15_21 
ROOT
HETATM    1  C4  UNL     1      26.658   1.017  53.451  1.00  0.00     0.125 C 
HETATM    2  C5  UNL     1      26.742   2.106  52.420  1.00  0.00     0.031 C 
HETATM    3  C6  UNL     1      25.704   1.795  51.403  1.00  0.00     0.007 C 
HETATM    4  C7  UNL     1      24.280   1.803  51.889  1.00  0.00     0.041 C 
HETATM    5  C8  UNL     1      24.018   0.788  52.933  1.00  0.00    -0.026 A 
HETATM    6  C9  UNL     1      25.247   0.525  53.540  1.00  0.00     0.015 A 
HETATM    7  S1  UNL     1      24.875  -0.750  54.737  1.00  0.00    -0.071 SA
HETATM    8  C10 UNL     1      23.133  -0.852  54.366  1.00  0.00     0.114 A 
HETATM    9  N2  UNL     1      22.199  -1.630  54.916  1.00  0.00    -0.234 NA
HETATM   10  C11 UNL     1      20.939  -1.539  54.500  1.00  0.00     0.236 A 
HETATM   11  N3  UNL     1      20.768  -0.651  53.554  1.00  0.00    -0.224 NA
HETATM   12  C12 UNL     1      21.664   0.151  52.970  1.00  0.00     0.139 A 
HETATM   13  C21 UNL     1      22.972   0.070  53.384  1.00  0.00     0.053 A 
ENDROOT
BRANCH  12  14
HETATM   14  N4  UNL     1      21.137   1.093  52.001  1.00  0.00    -0.366 N 
HETATM   15  H13 UNL     1      21.028   2.116  52.108  1.00  0.00     0.161 HD
BRANCH  14  16
HETATM   16  C13 UNL     1      20.668   0.591  50.703  1.00  0.00     0.112 C 
HETATM   17  C14 UNL     1      21.482   1.077  49.547  1.00  0.00     0.037 C 
BRANCH  16  18
HETATM   18  C15 UNL     1      19.210   0.678  50.523  1.00  0.00    -0.036 A 
HETATM   19  C16 UNL     1      18.220  -0.065  51.098  1.00  0.00     0.009 A 
HETATM   20  C17 UNL     1      16.875   0.101  50.878  1.00  0.00     0.001 A 
HETATM   21  C18 UNL     1      16.430   1.076  50.024  1.00  0.00     0.000 A 
HETATM   22  C19 UNL     1      17.375   1.867  49.405  1.00  0.00     0.001 A 
HETATM   23  C20 UNL     1      18.743   1.676  49.645  1.00  0.00     0.009 A 
ENDBRANCH  16  18
ENDBRANCH  14  16
ENDBRANCH  12  14
BRANCH   1  24
HETATM   24  N1  UNL     1      27.567  -0.075  53.262  1.00  0.00    -0.348 N 
HETATM   25  C3  UNL     1      28.621  -0.791  53.829  1.00  0.00     0.240 C 
HETATM   26  O1  UNL     1      29.016  -0.430  54.944  1.00  0.00    -0.269 OA
HETATM   27  H4  UNL     1      27.267  -0.432  52.300  1.00  0.00     0.163 HD
BRANCH  25  28
HETATM   28  C2  UNL     1      29.240  -1.911  53.172  1.00  0.00     0.064 C 
HETATM   29  C1  UNL     1      27.997  -2.417  52.781  1.00  0.00     0.017 C 
ENDBRANCH  25  28
ENDBRANCH   1  24
TORSDOF 5
ENDMDL
MODEL 6
REMARK VINA RESULT:      -7.9      3.200      7.154
REMARK  5 active torsions:
REMARK  status: ('A' for Active; 'I' for Inactive)
REMARK    1  A    between atoms: C2_2  and  C3_3 
REMARK       I    between atoms: C3_3  and  N1_5 
REMARK    2  A    between atoms: N1_5  and  C4_6 
REMARK    3  A    between atoms: C12_17  and  N4_18 
REMARK    4  A    between atoms: N4_18  and  C13_19 
REMARK    5  A    between atoms: C13_19  and  C15_21 
ROOT
HETATM    1  C4  UNL     1      25.931   0.638  52.128  1.00  0.00     0.125 C 
HETATM    2  C5  UNL     1      24.815   0.097  52.974  1.00  0.00     0.031 C 
HETATM    3  C6  UNL     1      24.107   1.278  53.533  1.00  0.00     0.007 C 
HETATM    4  C7  UNL     1      23.453   2.191  52.531  1.00  0.00     0.041 C 
HETATM    5  C8  UNL     1      24.417   2.810  51.595  1.00  0.00    -0.026 A 
HETATM    6  C9  UNL     1      25.523   1.959  51.553  1.00  0.00     0.015 A 
HETATM    7  S1  UNL     1      26.670   2.792  50.465  1.00  0.00    -0.071 SA
HETATM    8  C10 UNL     1      25.625   4.200  50.133  1.00  0.00     0.114 A 
HETATM    9  N2  UNL     1      25.860   5.259  49.357  1.00  0.00    -0.234 NA
HETATM   10  C11 UNL     1      24.930   6.202  49.233  1.00  0.00     0.236 A 
HETATM   11  N3  UNL     1      23.847   5.957  49.924  1.00  0.00    -0.224 NA
HETATM   12  C12 UNL     1      23.560   4.917  50.714  1.00  0.00     0.139 A 
HETATM   13  C21 UNL     1      24.510   3.933  50.858  1.00  0.00     0.053 A 
ENDROOT
BRANCH  12  14
HETATM   14  N4  UNL     1      22.226   4.898  51.282  1.00  0.00    -0.366 N 
HETATM   15  H13 UNL     1      21.938   5.188  52.232  1.00  0.00     0.161 HD
BRANCH  14  16
HETATM   16  C13 UNL     1      21.112   4.398  50.465  1.00  0.00     0.112 C 
HETATM   17  C14 UNL     1      20.019   5.401  50.271  1.00  0.00     0.037 C 
BRANCH  16  18
HETATM   18  C15 UNL     1      20.663   3.046  50.834  1.00  0.00    -0.036 A 
HETATM   19  C16 UNL     1      19.903   2.645  51.894  1.00  0.00     0.009 A 
HETATM   20  C17 UNL     1      19.518   1.352  52.149  1.00  0.00     0.001 A 
HETATM   21  C18 UNL     1      19.897   0.341  51.307  1.00  0.00     0.000 A 
HETATM   22  C19 UNL     1      20.668   0.670  50.212  1.00  0.00     0.001 A 
HETATM   23  C20 UNL     1      21.049   1.999  49.974  1.00  0.00     0.009 A 
ENDBRANCH  16  18
ENDBRANCH  14  16
ENDBRANCH  12  14
BRANCH   1  24
HETATM   24  N1  UNL     1      27.201   0.740  52.785  1.00  0.00    -0.348 N 
HETATM   25  C3  UNL     1      28.155   0.050  53.532  1.00  0.00     0.240 C 
HETATM   26  O1  UNL     1      27.920  -1.135  53.796  1.00  0.00    -0.269 OA
HETATM   27  H4  UNL     1      27.458   1.759  52.587  1.00  0.00     0.163 HD
BRANCH  25  28
HETATM   28  C2  UNL     1      29.374   0.662  53.988  1.00  0.00     0.064 C 
HETATM   29  C1  UNL     1      28.824   1.941  53.864  1.00  0.00     0.017 C 
ENDBRANCH  25  28
ENDBRANCH   1  24
TORSDOF 5
ENDMDL
MODEL 7
REMARK VINA RESULT:      -7.8      2.936      7.549
REMARK  5 active torsions:
REMARK  status: ('A' for Active; 'I' for Inactive)
REMARK    1  A    between atoms: C2_2  and  C3_3 
REMARK       I    between atoms: C3_3  and  N1_5 
REMARK    2  A    between atoms: N1_5  and  C4_6 
REMARK    3  A    between atoms: C12_17  and  N4_18 
REMARK    4  A    between atoms: N4_18  and  C13_19 
REMARK    5  A    between atoms: C13_19  and  C15_21 
ROOT
HETATM    1  C4  UNL     1      26.512   1.514  52.802  1.00  0.00     0.125 C 
HETATM    2  C5  UNL     1      27.150   2.587  51.969  1.00  0.00     0.031 C 
HETATM    3  C6  UNL     1      26.468   2.549  50.649  1.00  0.00     0.007 C 
HETATM    4  C7  UNL     1      24.996   2.860  50.657  1.00  0.00     0.041 C 
HETATM    5  C8  UNL     1      24.204   1.898  51.454  1.00  0.00    -0.026 A 
HETATM    6  C9  UNL     1      25.083   1.347  52.389  1.00  0.00     0.015 A 
HETATM    7  S1  UNL     1      24.087   0.152  53.268  1.00  0.00    -0.071 SA
HETATM    8  C10 UNL     1      22.583   0.454  52.356  1.00  0.00     0.114 A 
HETATM    9  N2  UNL     1      21.383  -0.112  52.499  1.00  0.00    -0.234 NA
HETATM   10  C11 UNL     1      20.378   0.272  51.717  1.00  0.00     0.236 A 
HETATM   11  N3  UNL     1      20.712   1.205  50.863  1.00  0.00    -0.224 NA
HETATM   12  C12 UNL     1      21.894   1.804  50.678  1.00  0.00     0.139 A 
HETATM   13  C21 UNL     1      22.946   1.419  51.475  1.00  0.00     0.053 A 
ENDROOT
BRANCH  12  14
HETATM   14  N4  UNL     1      21.919   2.870  49.694  1.00  0.00    -0.366 N 
HETATM   15  H13 UNL     1      22.213   2.810  48.705  1.00  0.00     0.161 HD
BRANCH  14  16
HETATM   16  C13 UNL     1      21.510   4.221  50.099  1.00  0.00     0.112 C 
HETATM   17  C14 UNL     1      20.105   4.558  49.713  1.00  0.00     0.037 C 
BRANCH  16  18
HETATM   18  C15 UNL     1      22.508   5.260  49.800  1.00  0.00    -0.036 A 
HETATM   19  C16 UNL     1      23.285   5.420  48.689  1.00  0.00     0.009 A 
HETATM   20  C17 UNL     1      24.185   6.438  48.491  1.00  0.00     0.001 A 
HETATM   21  C18 UNL     1      24.359   7.401  49.450  1.00  0.00     0.000 A 
HETATM   22  C19 UNL     1      23.608   7.304  50.602  1.00  0.00     0.001 A 
HETATM   23  C20 UNL     1      22.696   6.254  50.781  1.00  0.00     0.009 A 
ENDBRANCH  16  18
ENDBRANCH  14  16
ENDBRANCH  12  14
BRANCH   1  24
HETATM   24  N1  UNL     1      27.192   0.252  52.799  1.00  0.00    -0.348 N 
HETATM   25  C3  UNL     1      27.842  -0.693  53.592  1.00  0.00     0.240 C 
HETATM   26  O1  UNL     1      27.925  -0.456  54.803  1.00  0.00    -0.269 OA
HETATM   27  H4  UNL     1      27.149  -0.006  51.763  1.00  0.00     0.163 HD
BRANCH  25  28
HETATM   28  C2  UNL     1      28.397  -1.906  53.055  1.00  0.00     0.064 C 
HETATM   29  C1  UNL     1      29.692  -1.515  53.409  1.00  0.00     0.017 C 
ENDBRANCH  25  28
ENDBRANCH   1  24
TORSDOF 5
ENDMDL
MODEL 8
REMARK VINA RESULT:      -7.8      3.534      5.249
REMARK  5 active torsions:
REMARK  status: ('A' for Active; 'I' for Inactive)
REMARK    1  A    between atoms: C2_2  and  C3_3 
REMARK       I    between atoms: C3_3  and  N1_5 
REMARK    2  A    between atoms: N1_5  and  C4_6 
REMARK    3  A    between atoms: C12_17  and  N4_18 
REMARK    4  A    between atoms: N4_18  and  C13_19 
REMARK    5  A    between atoms: C13_19  and  C15_21 
ROOT
HETATM    1  C4  UNL     1      20.708   1.946  52.697  1.00  0.00     0.125 C 
HETATM    2  C5  UNL     1      21.798   0.981  53.063  1.00  0.00     0.031 C 
HETATM    3  C6  UNL     1      22.855   1.136  52.030  1.00  0.00     0.007 C 
HETATM    4  C7  UNL     1      23.514   2.487  51.959  1.00  0.00     0.041 C 
HETATM    5  C8  UNL     1      22.571   3.575  51.618  1.00  0.00    -0.026 A 
HETATM    6  C9  UNL     1      21.306   3.134  52.011  1.00  0.00     0.015 A 
HETATM    7  S1  UNL     1      20.213   4.457  51.513  1.00  0.00    -0.071 SA
HETATM    8  C10 UNL     1      21.484   5.503  50.825  1.00  0.00     0.114 A 
HETATM    9  N2  UNL     1      21.371   6.707  50.261  1.00  0.00    -0.234 NA
HETATM   10  C11 UNL     1      22.460   7.331  49.821  1.00  0.00     0.236 A 
HETATM   11  N3  UNL     1      23.560   6.650  50.008  1.00  0.00    -0.224 NA
HETATM   12  C12 UNL     1      23.730   5.446  50.566  1.00  0.00     0.139 A 
HETATM   13  C21 UNL     1      22.616   4.783  51.024  1.00  0.00     0.053 A 
ENDROOT
BRANCH  12  14
HETATM   14  N4  UNL     1      25.102   4.996  50.702  1.00  0.00    -0.366 N 
HETATM   15  H13 UNL     1      25.700   5.034  51.545  1.00  0.00     0.161 HD
BRANCH  14  16
HETATM   16  C13 UNL     1      25.784   4.429  49.530  1.00  0.00     0.112 C 
HETATM   17  C14 UNL     1      26.338   3.060  49.770  1.00  0.00     0.037 C 
BRANCH  16  18
HETATM   18  C15 UNL     1      26.699   5.367  48.862  1.00  0.00    -0.036 A 
HETATM   19  C16 UNL     1      26.455   6.621  48.382  1.00  0.00     0.009 A 
HETATM   20  C17 UNL     1      27.384   7.435  47.783  1.00  0.00     0.001 A 
HETATM   21  C18 UNL     1      28.676   7.008  47.626  1.00  0.00     0.000 A 
HETATM   22  C19 UNL     1      28.998   5.749  48.086  1.00  0.00     0.001 A 
HETATM   23  C20 UNL     1      28.030   4.936  48.695  1.00  0.00     0.009 A 
ENDBRANCH  16  18
ENDBRANCH  14  16
ENDBRANCH  12  14
BRANCH   1  24
HETATM   24  N1  UNL     1      19.639   1.394  51.918  1.00  0.00    -0.348 N 
HETATM   25  C3  UNL     1      19.306   0.804  50.699  1.00  0.00     0.240 C 
HETATM   26  O1  UNL     1      20.218   0.638  49.881  1.00  0.00    -0.269 OA
HETATM   27  H4  UNL     1      18.812   1.510  52.584  1.00  0.00     0.163 HD
BRANCH  25  28
HETATM   28  C2  UNL     1      17.966   0.388  50.379  1.00  0.00     0.064 C 
HETATM   29  C1  UNL     1      17.933  -0.480  51.474  1.00  0.00     0.017 C 
ENDBRANCH  25  28
ENDBRANCH   1  24
TORSDOF 5
ENDMDL
MODEL 9
REMARK VINA RESULT:      -7.8      5.443      9.150
REMARK  5 active torsions:
REMARK  status: ('A' for Active; 'I' for Inactive)
REMARK    1  A    between atoms: C2_2  and  C3_3 
REMARK       I    between atoms: C3_3  and  N1_5 
REMARK    2  A    between atoms: N1_5  and  C4_6 
REMARK    3  A    between atoms: C12_17  and  N4_18 
REMARK    4  A    between atoms: N4_18  and  C13_19 
REMARK    5  A    between atoms: C13_19  and  C15_21 
ROOT
HETATM    1  C4  UNL     1      27.880   7.401  47.927  1.00  0.00     0.125 C 
HETATM    2  C5  UNL     1      28.720   6.235  47.493  1.00  0.00     0.031 C 
HETATM    3  C6  UNL     1      28.611   5.219  48.572  1.00  0.00     0.007 C 
HETATM    4  C7  UNL     1      27.235   4.661  48.816  1.00  0.00     0.041 C 
HETATM    5  C8  UNL     1      26.260   5.688  49.244  1.00  0.00    -0.026 A 
HETATM    6  C9  UNL     1      26.739   6.908  48.762  1.00  0.00     0.015 A 
HETATM    7  S1  UNL     1      25.560   8.107  49.367  1.00  0.00    -0.071 SA
HETATM    8  C10 UNL     1      24.514   6.932  50.210  1.00  0.00     0.114 A 
HETATM    9  N2  UNL     1      23.393   7.146  50.901  1.00  0.00    -0.234 NA
HETATM   10  C11 UNL     1      22.749   6.117  51.445  1.00  0.00     0.236 A 
HETATM   11  N3  UNL     1      23.328   4.966  51.220  1.00  0.00    -0.224 NA
HETATM   12  C12 UNL     1      24.446   4.695  50.537  1.00  0.00     0.139 A 
HETATM   13  C21 UNL     1      25.127   5.746  49.970  1.00  0.00     0.053 A 
ENDROOT
BRANCH  12  14
HETATM   14  N4  UNL     1      24.782   3.291  50.398  1.00  0.00    -0.366 N 
HETATM   15  H13 UNL     1      24.710   2.704  49.550  1.00  0.00     0.161 HD
BRANCH  14  16
HETATM   16  C13 UNL     1      25.268   2.557  51.574  1.00  0.00     0.112 C 
HETATM   17  C14 UNL     1      26.703   2.147  51.468  1.00  0.00     0.037 C 
BRANCH  16  18
HETATM   18  C15 UNL     1      24.350   1.506  52.041  1.00  0.00    -0.036 A 
HETATM   19  C16 UNL     1      24.534   0.563  53.010  1.00  0.00     0.009 A 
HETATM   20  C17 UNL     1      23.606  -0.374  53.390  1.00  0.00     0.001 A 
HETATM   21  C18 UNL     1      22.377  -0.413  52.786  1.00  0.00     0.000 A 
HETATM   22  C19 UNL     1      22.118   0.511  51.795  1.00  0.00     0.001 A 
HETATM   23  C20 UNL     1      23.084   1.457  51.424  1.00  0.00     0.009 A 
ENDBRANCH  16  18
ENDBRANCH  14  16
ENDBRANCH  12  14
BRANCH   1  24
HETATM   24  N1  UNL     1      28.589   8.447  48.603  1.00  0.00    -0.348 N 
HETATM   25  C3  UNL     1      29.827   8.838  49.113  1.00  0.00     0.240 C 
HETATM   26  O1  UNL     1      30.768   8.045  48.989  1.00  0.00    -0.269 OA
HETATM   27  H4  UNL     1      27.816   9.172  48.737  1.00  0.00     0.163 HD
BRANCH  25  28
HETATM   28  C2  UNL     1      30.035  10.108  49.756  1.00  0.00     0.064 C 
HETATM   29  C1  UNL     1      30.871  10.538  48.722  1.00  0.00     0.017 C 
ENDBRANCH  25  28
ENDBRANCH   1  24
TORSDOF 5
ENDMDL
