MODEL 1
REMARK VINA RESULT:      -7.8      0.000      0.000
REMARK  9 active torsions:
REMARK  status: ('A' for Active; 'I' for Inactive)
REMARK    1  A    between atoms: N1_1  and  C1_2 
REMARK    2  A    between atoms: C2_4  and  N3_5 
REMARK    3  A    between atoms: N3_5  and  C3_6 
REMARK    4  A    between atoms: C7_10  and  C8_11 
REMARK    5  A    between atoms: C11_14  and  C12_15 
REMARK    6  A    between atoms: C12_15  and  C13_16 
REMARK    7  A    between atoms: C15_18  and  C16_19 
REMARK    8  A    between atoms: C16_19  and  C17_20 
REMARK    9  A    between atoms: C17_20  and  P1_21 
ROOT
HETATM    1  C1  UNL     1      28.398   1.449  53.848  1.00  0.00     0.127 C 
HETATM    2  N2  UNL     1      28.180   2.442  53.015  1.00  0.00    -0.215 NA
HETATM    3  C2  UNL     1      27.088   2.289  52.164  1.00  0.00     0.138 C 
HETATM    4  C9  UNL     1      26.631   1.168  52.584  1.00  0.00     0.020 C 
HETATM    5  C10 UNL     1      25.589   0.217  52.399  1.00  0.00     0.038 C 
HETATM    6  C11 UNL     1      25.140  -0.196  53.666  1.00  0.00     0.006 C 
HETATM    7  N4  UNL     1      26.424   0.017  54.492  1.00  0.00    -0.378 N 
HETATM    8  C18 UNL     1      27.498   0.350  53.554  1.00  0.00     0.188 C 
HETATM    9  H17 UNL     1      27.081   0.084  55.286  1.00  0.00     0.160 HD
ENDROOT
BRANCH   6  10
HETATM   10  C12 UNL     1      24.459  -0.815  54.790  1.00  0.00     0.057 C 
BRANCH  10  11
HETATM   11  C13 UNL     1      23.058  -1.314  54.693  1.00  0.00     0.009 A 
HETATM   12  C14 UNL     1      21.800  -1.643  54.582  1.00  0.00     0.005 A 
HETATM   13  C15 UNL     1      22.197  -0.087  54.331  1.00  0.00    -0.008 A 
BRANCH  13  14
HETATM   14  C16 UNL     1      20.818   0.338  54.034  1.00  0.00     0.001 C 
BRANCH  14  15
HETATM   15  C17 UNL     1      20.432   1.359  53.004  1.00  0.00     0.071 C 
BRANCH  15  16
HETATM   16  P1  UNL     1      20.952   0.758  51.305  1.00  0.00     0.064 P 
HETATM   17  F1  UNL     1      22.700   0.808  51.120  1.00  0.00    -0.229 F 
HETATM   18  H16 UNL     1      20.360   1.696  50.303  1.00  0.00     0.093 HD
ENDBRANCH  15  16
ENDBRANCH  14  15
ENDBRANCH  13  14
ENDBRANCH  10  11
ENDBRANCH   6  10
BRANCH   3  19
HETATM   19  N3  UNL     1      26.790   3.232  51.079  1.00  0.00    -0.343 N 
HETATM   20  H3  UNL     1      27.328   3.743  50.414  1.00  0.00     0.167 HD
BRANCH  19  21
HETATM   21  C3  UNL     1      25.390   3.542  50.836  1.00  0.00     0.019 A 
HETATM   22  C4  UNL     1      24.127   4.094  51.210  1.00  0.00     0.011 A 
HETATM   23  C5  UNL     1      23.360   3.818  50.000  1.00  0.00     0.004 A 
HETATM   24  C6  UNL     1      22.724   3.410  48.585  1.00  0.00     0.011 A 
HETATM   25  C8  UNL     1      24.819   3.212  49.649  1.00  0.00     0.034 A 
HETATM   26  C7  UNL     1      23.732   3.296  49.050  1.00  0.00     0.022 A 
ENDBRANCH  19  21
ENDBRANCH   3  19
BRANCH   1  27
HETATM   27  N1  UNL     1      29.502   2.107  54.513  1.00  0.00    -0.385 N 
HETATM   28  H1  UNL     1      30.253   2.534  55.038  1.00  0.00     0.157 HD
HETATM   29  H2  UNL     1      30.137   2.758  53.915  1.00  0.00     0.157 HD
ENDBRANCH   1  27
TORSDOF 9
ENDMDL
MODEL 2
REMARK VINA RESULT:      -7.1      1.691      5.123
REMARK  9 active torsions:
REMARK  status: ('A' for Active; 'I' for Inactive)
REMARK    1  A    between atoms: N1_1  and  C1_2 
REMARK    2  A    between atoms: C2_4  and  N3_5 
REMARK    3  A    between atoms: N3_5  and  C3_6 
REMARK    4  A    between atoms: C7_10  and  C8_11 
REMARK    5  A    between atoms: C11_14  and  C12_15 
REMARK    6  A    between atoms: C12_15  and  C13_16 
REMARK    7  A    between atoms: C15_18  and  C16_19 
REMARK    8  A    between atoms: C16_19  and  C17_20 
REMARK    9  A    between atoms: C17_20  and  P1_21 
ROOT
HETATM    1  C1  UNL     1      26.950   0.470  54.259  1.00  0.00     0.127 C 
HETATM    2  N2  UNL     1      25.982  -0.413  54.375  1.00  0.00    -0.215 NA
HETATM    3  C2  UNL     1      24.801  -0.105  53.704  1.00  0.00     0.138 C 
HETATM    4  C9  UNL     1      25.145   0.988  53.131  1.00  0.00     0.020 C 
HETATM    5  C10 UNL     1      24.690   2.011  52.253  1.00  0.00     0.038 C 
HETATM    6  C11 UNL     1      25.724   2.308  51.349  1.00  0.00     0.006 C 
HETATM    7  N4  UNL     1      26.950   1.933  52.205  1.00  0.00    -0.378 N 
HETATM    8  C18 UNL     1      26.468   1.643  53.557  1.00  0.00     0.188 C 
HETATM    9  H17 UNL     1      27.922   1.741  52.498  1.00  0.00     0.160 HD
ENDROOT
BRANCH   6  10
HETATM   10  C12 UNL     1      26.563   2.838  50.288  1.00  0.00     0.057 C 
BRANCH  10  11
HETATM   11  C13 UNL     1      26.339   4.187  49.696  1.00  0.00     0.009 A 
HETATM   12  C14 UNL     1      26.033   5.339  49.163  1.00  0.00     0.005 A 
HETATM   13  C15 UNL     1      24.851   4.230  49.294  1.00  0.00    -0.008 A 
BRANCH  13  14
HETATM   14  C16 UNL     1      23.815   5.097  48.706  1.00  0.00     0.001 C 
BRANCH  14  15
HETATM   15  C17 UNL     1      22.365   4.735  48.565  1.00  0.00     0.071 C 
BRANCH  15  16
HETATM   16  P1  UNL     1      21.887   3.538  49.929  1.00  0.00     0.064 P 
HETATM   17  F1  UNL     1      22.573   1.945  49.645  1.00  0.00    -0.229 F 
HETATM   18  H16 UNL     1      20.398   3.406  49.899  1.00  0.00     0.093 HD
ENDBRANCH  15  16
ENDBRANCH  14  15
ENDBRANCH  13  14
ENDBRANCH  10  11
ENDBRANCH   6  10
BRANCH   3  19
HETATM   19  N3  UNL     1      23.578  -0.906  53.846  1.00  0.00    -0.343 N 
HETATM   20  H3  UNL     1      23.369  -1.845  54.099  1.00  0.00     0.167 HD
BRANCH  19  21
HETATM   21  C3  UNL     1      22.314  -0.234  53.587  1.00  0.00     0.019 A 
HETATM   22  C4  UNL     1      21.203   0.578  53.970  1.00  0.00     0.011 A 
HETATM   23  C5  UNL     1      20.471   0.620  52.709  1.00  0.00     0.004 A 
HETATM   24  C6  UNL     1      19.846   0.523  51.236  1.00  0.00     0.011 A 
HETATM   25  C8  UNL     1      21.757  -0.294  52.350  1.00  0.00     0.034 A 
HETATM   26  C7  UNL     1      20.763   0.116  51.723  1.00  0.00     0.022 A 
ENDBRANCH  19  21
ENDBRANCH   3  19
BRANCH   1  27
HETATM   27  N1  UNL     1      27.905  -0.319  55.008  1.00  0.00    -0.385 N 
HETATM   28  H1  UNL     1      28.605  -0.883  55.470  1.00  0.00     0.157 HD
HETATM   29  H2  UNL     1      27.760  -0.399  56.084  1.00  0.00     0.157 HD
ENDBRANCH   1  27
TORSDOF 9
ENDMDL
MODEL 3
REMARK VINA RESULT:      -7.1      4.415      8.036
REMARK  9 active torsions:
REMARK  status: ('A' for Active; 'I' for Inactive)
REMARK    1  A    between atoms: N1_1  and  C1_2 
REMARK    2  A    between atoms: C2_4  and  N3_5 
REMARK    3  A    between atoms: N3_5  and  C3_6 
REMARK    4  A    between atoms: C7_10  and  C8_11 
REMARK    5  A    between atoms: C11_14  and  C12_15 
REMARK    6  A    between atoms: C12_15  and  C13_16 
REMARK    7  A    between atoms: C15_18  and  C16_19 
REMARK    8  A    between atoms: C16_19  and  C17_20 
REMARK    9  A    between atoms: C17_20  and  P1_21 
ROOT
HETATM    1  C1  UNL     1      23.551   3.720  51.856  1.00  0.00     0.127 C 
HETATM    2  N2  UNL     1      24.056   3.172  52.939  1.00  0.00    -0.215 NA
HETATM    3  C2  UNL     1      25.282   2.532  52.775  1.00  0.00     0.138 C 
HETATM    4  C9  UNL     1      25.506   2.785  51.539  1.00  0.00     0.020 C 
HETATM    5  C10 UNL     1      26.448   2.606  50.488  1.00  0.00     0.038 C 
HETATM    6  C11 UNL     1      26.560   3.819  49.786  1.00  0.00     0.006 C 
HETATM    7  N4  UNL     1      25.160   4.412  50.042  1.00  0.00    -0.378 N 
HETATM    8  C18 UNL     1      24.361   3.379  50.703  1.00  0.00     0.188 C 
HETATM    9  H17 UNL     1      24.358   5.063  50.065  1.00  0.00     0.160 HD
ENDROOT
BRANCH   6  10
HETATM   10  C12 UNL     1      26.906   4.896  48.874  1.00  0.00     0.057 C 
BRANCH  10  11
HETATM   11  C13 UNL     1      28.312   5.173  48.468  1.00  0.00     0.009 A 
HETATM   12  C14 UNL     1      29.513   5.525  48.097  1.00  0.00     0.005 A 
HETATM   13  C15 UNL     1      28.363   6.674  48.118  1.00  0.00    -0.008 A 
BRANCH  13  14
HETATM   14  C16 UNL     1      29.266   7.751  47.676  1.00  0.00     0.001 C 
BRANCH  14  15
HETATM   15  C17 UNL     1      29.401   9.090  48.338  1.00  0.00     0.071 C 
BRANCH  15  16
HETATM   16  P1  UNL     1      27.743   9.604  49.048  1.00  0.00     0.064 P 
HETATM   17  F1  UNL     1      27.671   9.301  50.779  1.00  0.00    -0.229 F 
HETATM   18  H16 UNL     1      26.699   8.757  48.393  1.00  0.00     0.093 HD
ENDBRANCH  15  16
ENDBRANCH  14  15
ENDBRANCH  13  14
ENDBRANCH  10  11
ENDBRANCH   6  10
BRANCH   3  19
HETATM   19  N3  UNL     1      25.915   1.746  53.842  1.00  0.00    -0.343 N 
HETATM   20  H3  UNL     1      25.600   1.281  54.664  1.00  0.00     0.167 HD
BRANCH  19  21
HETATM   21  C3  UNL     1      27.350   1.532  53.745  1.00  0.00     0.019 A 
HETATM   22  C4  UNL     1      28.702   1.989  53.674  1.00  0.00     0.011 A 
HETATM   23  C5  UNL     1      29.401   0.709  53.634  1.00  0.00     0.004 A 
HETATM   24  C6  UNL     1      29.946  -0.799  53.599  1.00  0.00     0.011 A 
HETATM   25  C8  UNL     1      27.846   0.269  53.714  1.00  0.00     0.034 A 
HETATM   26  C7  UNL     1      28.933  -0.335  53.655  1.00  0.00     0.022 A 
ENDBRANCH  19  21
ENDBRANCH   3  19
BRANCH   1  27
HETATM   27  N1  UNL     1      22.411   4.287  52.545  1.00  0.00    -0.385 N 
HETATM   28  H1  UNL     1      21.642   4.657  53.087  1.00  0.00     0.157 HD
HETATM   29  H2  UNL     1      21.668   4.811  51.947  1.00  0.00     0.157 HD
ENDBRANCH   1  27
TORSDOF 9
ENDMDL
MODEL 4
REMARK VINA RESULT:      -7.0      4.178      6.928
REMARK  9 active torsions:
REMARK  status: ('A' for Active; 'I' for Inactive)
REMARK    1  A    between atoms: N1_1  and  C1_2 
REMARK    2  A    between atoms: C2_4  and  N3_5 
REMARK    3  A    between atoms: N3_5  and  C3_6 
REMARK    4  A    between atoms: C7_10  and  C8_11 
REMARK    5  A    between atoms: C11_14  and  C12_15 
REMARK    6  A    between atoms: C12_15  and  C13_16 
REMARK    7  A    between atoms: C15_18  and  C16_19 
REMARK    8  A    between atoms: C16_19  and  C17_20 
REMARK    9  A    between atoms: C17_20  and  P1_21 
ROOT
HETATM    1  C1  UNL     1      26.856   1.194  54.048  1.00  0.00     0.127 C 
HETATM    2  N2  UNL     1      26.057   0.157  54.162  1.00  0.00    -0.215 NA
HETATM    3  C2  UNL     1      24.923   0.176  53.353  1.00  0.00     0.138 C 
HETATM    4  C9  UNL     1      25.128   1.263  52.705  1.00  0.00     0.020 C 
HETATM    5  C10 UNL     1      24.598   2.103  51.686  1.00  0.00     0.038 C 
HETATM    6  C11 UNL     1      25.658   2.515  50.859  1.00  0.00     0.006 C 
HETATM    7  N4  UNL     1      26.826   2.453  51.863  1.00  0.00    -0.378 N 
HETATM    8  C18 UNL     1      26.253   2.191  53.185  1.00  0.00     0.188 C 
HETATM    9  H17 UNL     1      27.777   2.475  52.266  1.00  0.00     0.160 HD
ENDROOT
BRANCH   6  10
HETATM   10  C12 UNL     1      26.503   3.103  49.834  1.00  0.00     0.057 C 
BRANCH  10  11
HETATM   11  C13 UNL     1      26.326   4.507  49.368  1.00  0.00     0.009 A 
HETATM   12  C14 UNL     1      26.281   5.734  48.925  1.00  0.00     0.005 A 
HETATM   13  C15 UNL     1      27.689   4.933  48.785  1.00  0.00    -0.008 A 
BRANCH  13  14
HETATM   14  C16 UNL     1      28.392   6.049  48.128  1.00  0.00     0.001 C 
BRANCH  14  15
HETATM   15  C17 UNL     1      29.881   6.228  48.092  1.00  0.00     0.071 C 
BRANCH  15  16
HETATM   16  P1  UNL     1      30.303   8.018  48.463  1.00  0.00     0.064 P 
HETATM   17  F1  UNL     1      31.658   8.568  47.487  1.00  0.00    -0.229 F 
HETATM   18  H16 UNL     1      30.717   8.087  49.898  1.00  0.00     0.093 HD
ENDBRANCH  15  16
ENDBRANCH  14  15
ENDBRANCH  13  14
ENDBRANCH  10  11
ENDBRANCH   6  10
BRANCH   3  19
HETATM   19  N3  UNL     1      23.856  -0.827  53.459  1.00  0.00    -0.343 N 
HETATM   20  H3  UNL     1      23.818  -1.821  53.502  1.00  0.00     0.167 HD
BRANCH  19  21
HETATM   21  C3  UNL     1      22.490  -0.335  53.540  1.00  0.00     0.019 A 
HETATM   22  C4  UNL     1      21.355   0.152  54.256  1.00  0.00     0.011 A 
HETATM   23  C5  UNL     1      20.438   0.393  53.147  1.00  0.00     0.004 A 
HETATM   24  C6  UNL     1      19.612   0.575  51.785  1.00  0.00     0.011 A 
HETATM   25  C8  UNL     1      21.762  -0.167  52.406  1.00  0.00     0.034 A 
HETATM   26  C7  UNL     1      20.639   0.217  52.034  1.00  0.00     0.022 A 
ENDBRANCH  19  21
ENDBRANCH   3  19
BRANCH   1  27
HETATM   27  N1  UNL     1      27.846   0.668  54.964  1.00  0.00    -0.385 N 
HETATM   28  H1  UNL     1      28.569   0.269  55.547  1.00  0.00     0.157 HD
HETATM   29  H2  UNL     1      27.742   0.917  56.019  1.00  0.00     0.157 HD
ENDBRANCH   1  27
TORSDOF 9
ENDMDL
MODEL 5
REMARK VINA RESULT:      -6.9      2.107      5.124
REMARK  9 active torsions:
REMARK  status: ('A' for Active; 'I' for Inactive)
REMARK    1  A    between atoms: N1_1  and  C1_2 
REMARK    2  A    between atoms: C2_4  and  N3_5 
REMARK    3  A    between atoms: N3_5  and  C3_6 
REMARK    4  A    between atoms: C7_10  and  C8_11 
REMARK    5  A    between atoms: C11_14  and  C12_15 
REMARK    6  A    between atoms: C12_15  and  C13_16 
REMARK    7  A    between atoms: C15_18  and  C16_19 
REMARK    8  A    between atoms: C16_19  and  C17_20 
REMARK    9  A    between atoms: C17_20  and  P1_21 
ROOT
HETATM    1  C1  UNL     1      25.778   3.452  50.127  1.00  0.00     0.127 C 
HETATM    2  N2  UNL     1      26.569   2.944  51.046  1.00  0.00    -0.215 NA
HETATM    3  C2  UNL     1      25.931   2.364  52.139  1.00  0.00     0.138 C 
HETATM    4  C9  UNL     1      24.707   2.503  51.786  1.00  0.00     0.020 C 
HETATM    5  C10 UNL     1      23.366   2.231  52.177  1.00  0.00     0.038 C 
HETATM    6  C11 UNL     1      22.661   1.782  51.047  1.00  0.00     0.006 C 
HETATM    7  N4  UNL     1      23.455   2.490  49.931  1.00  0.00    -0.378 N 
HETATM    8  C18 UNL     1      24.400   3.402  50.578  1.00  0.00     0.188 C 
HETATM    9  H17 UNL     1      23.792   2.782  48.999  1.00  0.00     0.160 HD
ENDROOT
BRANCH   6  10
HETATM   10  C12 UNL     1      21.671   1.293  50.102  1.00  0.00     0.057 C 
BRANCH  10  11
HETATM   11  C13 UNL     1      20.306   0.874  50.527  1.00  0.00     0.009 A 
HETATM   12  C14 UNL     1      19.157   0.468  50.997  1.00  0.00     0.005 A 
HETATM   13  C15 UNL     1      20.477   0.218  51.912  1.00  0.00    -0.008 A 
BRANCH  13  14
HETATM   14  C16 UNL     1      19.734  -0.416  53.015  1.00  0.00     0.001 C 
BRANCH  14  15
HETATM   15  C17 UNL     1      20.324  -1.358  54.023  1.00  0.00     0.071 C 
BRANCH  15  16
HETATM   16  P1  UNL     1      22.077  -0.824  54.426  1.00  0.00     0.064 P 
HETATM   17  F1  UNL     1      23.144  -1.060  53.049  1.00  0.00    -0.229 F 
HETATM   18  H16 UNL     1      22.563  -1.699  55.536  1.00  0.00     0.093 HD
ENDBRANCH  15  16
ENDBRANCH  14  15
ENDBRANCH  13  14
ENDBRANCH  10  11
ENDBRANCH   6  10
BRANCH   3  19
HETATM   19  N3  UNL     1      26.661   1.882  53.319  1.00  0.00    -0.343 N 
HETATM   20  H3  UNL     1      26.853   2.237  54.228  1.00  0.00     0.167 HD
BRANCH  19  21
HETATM   21  C3  UNL     1      27.270   0.565  53.228  1.00  0.00     0.019 A 
HETATM   22  C4  UNL     1      27.252  -0.825  52.898  1.00  0.00     0.011 A 
HETATM   23  C5  UNL     1      28.621  -1.188  53.248  1.00  0.00     0.004 A 
HETATM   24  C6  UNL     1      30.151  -1.352  53.700  1.00  0.00     0.011 A 
HETATM   25  C8  UNL     1      28.564   0.390  53.600  1.00  0.00     0.034 A 
HETATM   26  C7  UNL     1      29.432  -0.499  53.669  1.00  0.00     0.022 A 
ENDBRANCH  19  21
ENDBRANCH   3  19
BRANCH   1  27
HETATM   27  N1  UNL     1      26.862   3.815  49.239  1.00  0.00    -0.385 N 
HETATM   28  H1  UNL     1      27.660   4.078  48.677  1.00  0.00     0.157 HD
HETATM   29  H2  UNL     1      26.669   3.786  48.168  1.00  0.00     0.157 HD
ENDBRANCH   1  27
TORSDOF 9
ENDMDL
MODEL 6
REMARK VINA RESULT:      -6.9      4.232      7.880
REMARK  9 active torsions:
REMARK  status: ('A' for Active; 'I' for Inactive)
REMARK    1  A    between atoms: N1_1  and  C1_2 
REMARK    2  A    between atoms: C2_4  and  N3_5 
REMARK    3  A    between atoms: N3_5  and  C3_6 
REMARK    4  A    between atoms: C7_10  and  C8_11 
REMARK    5  A    between atoms: C11_14  and  C12_15 
REMARK    6  A    between atoms: C12_15  and  C13_16 
REMARK    7  A    between atoms: C15_18  and  C16_19 
REMARK    8  A    between atoms: C16_19  and  C17_20 
REMARK    9  A    between atoms: C17_20  and  P1_21 
ROOT
HETATM    1  C1  UNL     1      23.265   2.811  51.687  1.00  0.00     0.127 C 
HETATM    2  N2  UNL     1      23.745   2.325  52.809  1.00  0.00    -0.215 NA
HETATM    3  C2  UNL     1      25.082   1.936  52.775  1.00  0.00     0.138 C 
HETATM    4  C9  UNL     1      25.385   2.277  51.578  1.00  0.00     0.020 C 
HETATM    5  C10 UNL     1      26.453   2.322  50.639  1.00  0.00     0.038 C 
HETATM    6  C11 UNL     1      26.405   3.562  49.977  1.00  0.00     0.006 C 
HETATM    7  N4  UNL     1      24.898   3.868  50.082  1.00  0.00    -0.378 N 
HETATM    8  C18 UNL     1      24.246   2.676  50.628  1.00  0.00     0.188 C 
HETATM    9  H17 UNL     1      23.988   4.354  50.026  1.00  0.00     0.160 HD
ENDROOT
BRANCH   6  10
HETATM   10  C12 UNL     1      26.634   4.721  49.132  1.00  0.00     0.057 C 
BRANCH  10  11
HETATM   11  C13 UNL     1      27.982   5.059  48.594  1.00  0.00     0.009 A 
HETATM   12  C14 UNL     1      29.122   5.460  48.100  1.00  0.00     0.005 A 
HETATM   13  C15 UNL     1      27.888   6.518  48.104  1.00  0.00    -0.008 A 
BRANCH  13  14
HETATM   14  C16 UNL     1      28.669   7.609  47.496  1.00  0.00     0.001 C 
BRANCH  14  15
HETATM   15  C17 UNL     1      28.172   8.532  46.422  1.00  0.00     0.071 C 
BRANCH  15  16
HETATM   16  P1  UNL     1      26.405   9.036  46.802  1.00  0.00     0.064 P 
HETATM   17  F1  UNL     1      25.266   7.804  46.277  1.00  0.00    -0.229 F 
HETATM   18  H16 UNL     1      26.123  10.281  46.024  1.00  0.00     0.093 HD
ENDBRANCH  15  16
ENDBRANCH  14  15
ENDBRANCH  13  14
ENDBRANCH  10  11
ENDBRANCH   6  10
BRANCH   3  19
HETATM   19  N3  UNL     1      25.734   1.241  53.893  1.00  0.00    -0.343 N 
HETATM   20  H3  UNL     1      25.694   1.299  54.886  1.00  0.00     0.167 HD
BRANCH  19  21
HETATM   21  C3  UNL     1      26.674   0.183  53.556  1.00  0.00     0.019 A 
HETATM   22  C4  UNL     1      27.013  -1.084  52.990  1.00  0.00     0.011 A 
HETATM   23  C5  UNL     1      28.452  -1.094  53.233  1.00  0.00     0.004 A 
HETATM   24  C6  UNL     1      29.997  -0.886  53.605  1.00  0.00     0.011 A 
HETATM   25  C8  UNL     1      27.990   0.326  53.856  1.00  0.00     0.034 A 
HETATM   26  C7  UNL     1      29.072  -0.278  53.744  1.00  0.00     0.022 A 
ENDBRANCH  19  21
ENDBRANCH   3  19
BRANCH   1  27
HETATM   27  N1  UNL     1      21.968   3.123  52.251  1.00  0.00    -0.385 N 
HETATM   28  H1  UNL     1      21.081   3.410  52.641  1.00  0.00     0.157 HD
HETATM   29  H2  UNL     1      21.311   2.291  52.497  1.00  0.00     0.157 HD
ENDBRANCH   1  27
TORSDOF 9
ENDMDL
MODEL 7
REMARK VINA RESULT:      -6.8      4.879      8.219
REMARK  9 active torsions:
REMARK  status: ('A' for Active; 'I' for Inactive)
REMARK    1  A    between atoms: N1_1  and  C1_2 
REMARK    2  A    between atoms: C2_4  and  N3_5 
REMARK    3  A    between atoms: N3_5  and  C3_6 
REMARK    4  A    between atoms: C7_10  and  C8_11 
REMARK    5  A    between atoms: C11_14  and  C12_15 
REMARK    6  A    between atoms: C12_15  and  C13_16 
REMARK    7  A    between atoms: C15_18  and  C16_19 
REMARK    8  A    between atoms: C16_19  and  C17_20 
REMARK    9  A    between atoms: C17_20  and  P1_21 
ROOT
HETATM    1  C1  UNL     1      23.913   4.936  52.275  1.00  0.00     0.127 C 
HETATM    2  N2  UNL     1      23.238   3.831  52.503  1.00  0.00    -0.215 NA
HETATM    3  C2  UNL     1      23.159   2.940  51.436  1.00  0.00     0.138 C 
HETATM    4  C9  UNL     1      23.881   3.556  50.575  1.00  0.00     0.020 C 
HETATM    5  C10 UNL     1      24.411   3.470  49.257  1.00  0.00     0.038 C 
HETATM    6  C11 UNL     1      25.750   3.898  49.292  1.00  0.00     0.006 C 
HETATM    7  N4  UNL     1      25.695   4.863  50.493  1.00  0.00    -0.378 N 
HETATM    8  C18 UNL     1      24.290   5.006  50.876  1.00  0.00     0.188 C 
HETATM    9  H17 UNL     1      25.979   5.513  51.244  1.00  0.00     0.160 HD
ENDROOT
BRANCH   6  10
HETATM   10  C12 UNL     1      27.123   4.266  48.992  1.00  0.00     0.057 C 
BRANCH  10  11
HETATM   11  C13 UNL     1      27.496   5.631  48.525  1.00  0.00     0.009 A 
HETATM   12  C14 UNL     1      27.931   6.789  48.107  1.00  0.00     0.005 A 
HETATM   13  C15 UNL     1      29.019   5.594  48.287  1.00  0.00    -0.008 A 
BRANCH  13  14
HETATM   14  C16 UNL     1      30.160   6.409  47.837  1.00  0.00     0.001 C 
BRANCH  14  15
HETATM   15  C17 UNL     1      31.518   5.874  47.486  1.00  0.00     0.071 C 
BRANCH  15  16
HETATM   16  P1  UNL     1      32.800   6.631  48.626  1.00  0.00     0.064 P 
HETATM   17  F1  UNL     1      32.177   8.075  49.414  1.00  0.00    -0.229 F 
HETATM   18  H16 UNL     1      33.962   7.040  47.778  1.00  0.00     0.093 HD
ENDBRANCH  15  16
ENDBRANCH  14  15
ENDBRANCH  13  14
ENDBRANCH  10  11
ENDBRANCH   6  10
BRANCH   3  19
HETATM   19  N3  UNL     1      22.325   1.732  51.472  1.00  0.00    -0.343 N 
HETATM   20  H3  UNL     1      21.521   1.409  50.981  1.00  0.00     0.167 HD
BRANCH  19  21
HETATM   21  C3  UNL     1      22.704   0.694  52.418  1.00  0.00     0.019 A 
HETATM   22  C4  UNL     1      23.664  -0.078  53.141  1.00  0.00     0.011 A 
HETATM   23  C5  UNL     1      22.771  -0.917  53.933  1.00  0.00     0.004 A 
HETATM   24  C6  UNL     1      21.607  -1.720  54.689  1.00  0.00     0.011 A 
HETATM   25  C8  UNL     1      21.745  -0.005  53.077  1.00  0.00     0.034 A 
HETATM   26  C7  UNL     1      21.626  -0.907  53.926  1.00  0.00     0.022 A 
ENDBRANCH  19  21
ENDBRANCH   3  19
BRANCH   1  27
HETATM   27  N1  UNL     1      23.777   5.427  53.630  1.00  0.00    -0.385 N 
HETATM   28  H1  UNL     1      23.753   5.771  54.580  1.00  0.00     0.157 HD
HETATM   29  H2  UNL     1      22.769   5.561  54.020  1.00  0.00     0.157 HD
ENDBRANCH   1  27
TORSDOF 9
ENDMDL
MODEL 8
REMARK VINA RESULT:      -6.6      6.261      8.618
REMARK  9 active torsions:
REMARK  status: ('A' for Active; 'I' for Inactive)
REMARK    1  A    between atoms: N1_1  and  C1_2 
REMARK    2  A    between atoms: C2_4  and  N3_5 
REMARK    3  A    between atoms: N3_5  and  C3_6 
REMARK    4  A    between atoms: C7_10  and  C8_11 
REMARK    5  A    between atoms: C11_14  and  C12_15 
REMARK    6  A    between atoms: C12_15  and  C13_16 
REMARK    7  A    between atoms: C15_18  and  C16_19 
REMARK    8  A    between atoms: C16_19  and  C17_20 
REMARK    9  A    between atoms: C17_20  and  P1_21 
ROOT
HETATM    1  C1  UNL     1      31.729   7.980  48.193  1.00  0.00     0.127 C 
HETATM    2  N2  UNL     1      32.402   7.280  47.307  1.00  0.00    -0.215 NA
HETATM    3  C2  UNL     1      31.902   6.008  47.036  1.00  0.00     0.138 C 
HETATM    4  C9  UNL     1      30.854   6.016  47.773  1.00  0.00     0.020 C 
HETATM    5  C10 UNL     1      29.721   5.246  48.158  1.00  0.00     0.038 C 
HETATM    6  C11 UNL     1      28.600   6.093  48.181  1.00  0.00     0.006 C 
HETATM    7  N4  UNL     1      29.283   7.440  48.488  1.00  0.00    -0.378 N 
HETATM    8  C18 UNL     1      30.689   7.161  48.785  1.00  0.00     0.188 C 
HETATM    9  H17 UNL     1      29.440   8.450  48.642  1.00  0.00     0.160 HD
ENDROOT
BRANCH   6  10
HETATM   10  C12 UNL     1      27.276   6.680  48.294  1.00  0.00     0.057 C 
BRANCH  10  11
HETATM   11  C13 UNL     1      26.103   5.907  48.791  1.00  0.00     0.009 A 
HETATM   12  C14 UNL     1      25.148   5.144  49.250  1.00  0.00     0.005 A 
HETATM   13  C15 UNL     1      26.660   4.546  49.255  1.00  0.00    -0.008 A 
BRANCH  13  14
HETATM   14  C16 UNL     1      26.274   3.260  49.860  1.00  0.00     0.001 C 
BRANCH  14  15
HETATM   15  C17 UNL     1      26.773   2.739  51.175  1.00  0.00     0.071 C 
BRANCH  15  16
HETATM   16  P1  UNL     1      25.588   1.436  51.821  1.00  0.00     0.064 P 
HETATM   17  F1  UNL     1      26.342  -0.152  51.845  1.00  0.00    -0.229 F 
HETATM   18  H16 UNL     1      24.433   1.379  50.872  1.00  0.00     0.093 HD
ENDBRANCH  15  16
ENDBRANCH  14  15
ENDBRANCH  13  14
ENDBRANCH  10  11
ENDBRANCH   6  10
BRANCH   3  19
HETATM   19  N3  UNL     1      32.610   5.043  46.186  1.00  0.00    -0.343 N 
HETATM   20  H3  UNL     1      32.999   5.055  45.269  1.00  0.00     0.167 HD
BRANCH  19  21
HETATM   21  C3  UNL     1      32.861   3.725  46.747  1.00  0.00     0.019 A 
HETATM   22  C4  UNL     1      33.531   2.826  47.632  1.00  0.00     0.011 A 
HETATM   23  C5  UNL     1      32.845   1.582  47.300  1.00  0.00     0.004 A 
HETATM   24  C6  UNL     1      31.965   0.350  46.772  1.00  0.00     0.011 A 
HETATM   25  C8  UNL     1      32.133   2.659  46.324  1.00  0.00     0.034 A 
HETATM   26  C7  UNL     1      32.010   1.438  46.529  1.00  0.00     0.022 A 
ENDBRANCH  19  21
ENDBRANCH   3  19
BRANCH   1  27
HETATM   27  N1  UNL     1      32.551   9.162  48.043  1.00  0.00    -0.385 N 
HETATM   28  H1  UNL     1      33.094  10.013  47.997  1.00  0.00     0.157 HD
HETATM   29  H2  UNL     1      33.250   9.189  47.209  1.00  0.00     0.157 HD
ENDBRANCH   1  27
TORSDOF 9
ENDMDL
MODEL 9
REMARK VINA RESULT:      -6.6      2.644      5.241
REMARK  9 active torsions:
REMARK  status: ('A' for Active; 'I' for Inactive)
REMARK    1  A    between atoms: N1_1  and  C1_2 
REMARK    2  A    between atoms: C2_4  and  N3_5 
REMARK    3  A    between atoms: N3_5  and  C3_6 
REMARK    4  A    between atoms: C7_10  and  C8_11 
REMARK    5  A    between atoms: C11_14  and  C12_15 
REMARK    6  A    between atoms: C12_15  and  C13_16 
REMARK    7  A    between atoms: C15_18  and  C16_19 
REMARK    8  A    between atoms: C16_19  and  C17_20 
REMARK    9  A    between atoms: C17_20  and  P1_21 
ROOT
HETATM    1  C1  UNL     1      24.265   6.399  50.889  1.00  0.00     0.127 C 
HETATM    2  N2  UNL     1      22.970   6.195  50.987  1.00  0.00    -0.215 NA
HETATM    3  C2  UNL     1      22.514   4.969  50.509  1.00  0.00     0.138 C 
HETATM    4  C9  UNL     1      23.628   4.429  50.176  1.00  0.00     0.020 C 
HETATM    5  C10 UNL     1      24.210   3.244  49.645  1.00  0.00     0.038 C 
HETATM    6  C11 UNL     1      25.368   2.952  50.387  1.00  0.00     0.006 C 
HETATM    7  N4  UNL     1      25.762   4.370  50.844  1.00  0.00    -0.378 N 
HETATM    8  C18 UNL     1      24.883   5.314  50.152  1.00  0.00     0.188 C 
HETATM    9  H17 UNL     1      26.245   5.150  51.320  1.00  0.00     0.160 HD
ENDROOT
BRANCH   6  10
HETATM   10  C12 UNL     1      26.583   2.380  50.941  1.00  0.00     0.057 C 
BRANCH  10  11
HETATM   11  C13 UNL     1      26.581   1.104  51.711  1.00  0.00     0.009 A 
HETATM   12  C14 UNL     1      26.469   0.006  52.409  1.00  0.00     0.005 A 
HETATM   13  C15 UNL     1      25.156   0.957  52.281  1.00  0.00    -0.008 A 
BRANCH  13  14
HETATM   14  C16 UNL     1      24.293   0.071  53.082  1.00  0.00     0.001 C 
BRANCH  14  15
HETATM   15  C17 UNL     1      22.851   0.332  53.406  1.00  0.00     0.071 C 
BRANCH  15  16
HETATM   16  P1  UNL     1      22.203  -1.039  54.510  1.00  0.00     0.064 P 
HETATM   17  F1  UNL     1      20.527  -1.419  54.134  1.00  0.00    -0.229 F 
HETATM   18  H16 UNL     1      22.252  -0.536  55.917  1.00  0.00     0.093 HD
ENDBRANCH  15  16
ENDBRANCH  14  15
ENDBRANCH  13  14
ENDBRANCH  10  11
ENDBRANCH   6  10
BRANCH   3  19
HETATM   19  N3  UNL     1      21.087   4.638  50.408  1.00  0.00    -0.343 N 
HETATM   20  H3  UNL     1      20.316   4.977  49.878  1.00  0.00     0.167 HD
BRANCH  19  21
HETATM   21  C3  UNL     1      20.599   3.552  51.242  1.00  0.00     0.019 A 
HETATM   22  C4  UNL     1      20.169   2.999  52.487  1.00  0.00     0.011 A 
HETATM   23  C5  UNL     1      19.836   1.643  52.063  1.00  0.00     0.004 A 
HETATM   24  C6  UNL     1      19.543   0.226  51.372  1.00  0.00     0.011 A 
HETATM   25  C8  UNL     1      20.338   2.339  50.690  1.00  0.00     0.034 A 
HETATM   26  C7  UNL     1      19.923   1.209  51.006  1.00  0.00     0.022 A 
ENDBRANCH  19  21
ENDBRANCH   3  19
BRANCH   1  27
HETATM   27  N1  UNL     1      24.223   7.680  51.562  1.00  0.00    -0.385 N 
HETATM   28  H1  UNL     1      24.161   8.543  52.086  1.00  0.00     0.157 HD
HETATM   29  H2  UNL     1      24.636   8.540  51.037  1.00  0.00     0.157 HD
ENDBRANCH   1  27
TORSDOF 9
ENDMDL
