MODEL 1
REMARK VINA RESULT:      -8.2      0.000      0.000
REMARK  3 active torsions:
REMARK  status: ('A' for Active; 'I' for Inactive)
REMARK    1  A    between atoms: O1_1  and  C1_2 
REMARK    2  A    between atoms: C10_14  and  N3_15 
REMARK    3  A    between atoms: N3_15  and  C11_16 
ROOT
HETATM    1  C1  UNL     1      21.739  -0.984  54.176  1.00  0.00     0.068 A 
HETATM    2  C2  UNL     1      23.018  -0.841  54.680  1.00  0.00     0.037 A 
HETATM    3  C3  UNL     1      23.896  -0.172  53.852  1.00  0.00     0.014 A 
HETATM    4  C4  UNL     1      23.587   0.343  52.602  1.00  0.00    -0.007 A 
HETATM    5  C5  UNL     1      22.298   0.177  52.141  1.00  0.00     0.080 A 
HETATM    6  C6  UNL     1      21.391  -0.488  52.941  1.00  0.00     0.073 A 
HETATM    7  O2  UNL     1      21.873   0.642  50.921  1.00  0.00    -0.334 OA
HETATM    8  C7  UNL     1      22.102   1.797  50.172  1.00  0.00     0.222 C 
HETATM    9  C8  UNL     1      20.800   2.503  50.055  1.00  0.00     0.129 C 
HETATM   10  N1  UNL     1      20.369   3.719  49.979  1.00  0.00    -0.255 NA
HETATM   11  C9  UNL     1      21.194   4.885  49.993  1.00  0.00     0.234 C 
HETATM   12  N2  UNL     1      22.435   4.974  50.333  1.00  0.00    -0.222 NA
HETATM   13  C10 UNL     1      23.335   3.970  50.784  1.00  0.00     0.154 C 
HETATM   14  C17 UNL     1      23.160   2.662  50.699  1.00  0.00     0.087 C 
HETATM   15  N4  UNL     1      24.384   2.236  51.309  1.00  0.00    -0.383 N 
HETATM   16  C18 UNL     1      24.777   1.010  51.973  1.00  0.00     0.161 C 
HETATM   17  H12 UNL     1      25.144   2.941  51.271  1.00  0.00     0.160 HD
ENDROOT
BRANCH  13  18
HETATM   18  N3  UNL     1      24.494   4.559  51.364  1.00  0.00    -0.339 N 
HETATM   19  H8  UNL     1      24.890   4.512  52.351  1.00  0.00     0.167 HD
BRANCH  18  20
HETATM   20  C11 UNL     1      25.263   5.364  50.465  1.00  0.00     0.035 A 
HETATM   21  C12 UNL     1      26.087   4.777  49.515  1.00  0.00     0.032 A 
HETATM   22  C13 UNL     1      26.862   5.497  48.611  1.00  0.00     0.046 A 
HETATM   23  C14 UNL     1      26.813   6.875  48.655  1.00  0.00     0.138 A 
HETATM   24  F1  UNL     1      27.521   7.654  47.827  1.00  0.00    -0.204 F 
HETATM   25  C15 UNL     1      26.006   7.498  49.585  1.00  0.00     0.074 A 
HETATM   26 CL1  UNL     1      25.846   9.249  49.753  1.00  0.00    -0.081 Cl
HETATM   27  C16 UNL     1      25.247   6.763  50.471  1.00  0.00     0.056 A 
ENDBRANCH  18  20
ENDBRANCH  13  18
BRANCH   1  28
HETATM   28  O1  UNL     1      20.793  -1.649  54.950  1.00  0.00    -0.361 OA
HETATM   29  H1  UNL     1      20.762  -2.670  54.950  1.00  0.00     0.217 HD
ENDBRANCH   1  28
TORSDOF 3
ENDMDL
MODEL 2
REMARK VINA RESULT:      -8.1      1.951      2.522
REMARK  3 active torsions:
REMARK  status: ('A' for Active; 'I' for Inactive)
REMARK    1  A    between atoms: O1_1  and  C1_2 
REMARK    2  A    between atoms: C10_14  and  N3_15 
REMARK    3  A    between atoms: N3_15  and  C11_16 
ROOT
HETATM    1  C1  UNL     1      25.211  -0.625  54.861  1.00  0.00     0.068 A 
HETATM    2  C2  UNL     1      26.388   0.089  54.985  1.00  0.00     0.037 A 
HETATM    3  C3  UNL     1      26.586   1.054  54.018  1.00  0.00     0.014 A 
HETATM    4  C4  UNL     1      25.714   1.338  52.978  1.00  0.00    -0.007 A 
HETATM    5  C5  UNL     1      24.552   0.600  52.894  1.00  0.00     0.080 A 
HETATM    6  C6  UNL     1      24.319  -0.375  53.843  1.00  0.00     0.073 A 
HETATM    7  O2  UNL     1      23.614   0.788  51.910  1.00  0.00    -0.334 OA
HETATM    8  C7  UNL     1      23.076   1.900  51.260  1.00  0.00     0.222 C 
HETATM    9  C8  UNL     1      21.632   1.947  51.606  1.00  0.00     0.129 C 
HETATM   10  N1  UNL     1      20.717   2.840  51.795  1.00  0.00    -0.255 NA
HETATM   11  C9  UNL     1      20.914   4.251  51.698  1.00  0.00     0.234 C 
HETATM   12  N2  UNL     1      22.032   4.895  51.671  1.00  0.00    -0.222 NA
HETATM   13  C10 UNL     1      23.369   4.413  51.727  1.00  0.00     0.154 C 
HETATM   14  C17 UNL     1      23.761   3.162  51.551  1.00  0.00     0.087 C 
HETATM   15  N4  UNL     1      25.170   3.346  51.728  1.00  0.00    -0.383 N 
HETATM   16  C18 UNL     1      26.238   2.445  52.109  1.00  0.00     0.161 C 
HETATM   17  H12 UNL     1      25.496   4.314  51.551  1.00  0.00     0.160 HD
ENDROOT
BRANCH  13  18
HETATM   18  N3  UNL     1      24.274   5.475  52.008  1.00  0.00    -0.339 N 
HETATM   19  H8  UNL     1      24.843   5.704  52.878  1.00  0.00     0.167 HD
BRANCH  18  20
HETATM   20  C11 UNL     1      24.448   6.405  50.935  1.00  0.00     0.035 A 
HETATM   21  C12 UNL     1      23.586   7.481  50.782  1.00  0.00     0.032 A 
HETATM   22  C13 UNL     1      23.695   8.423  49.764  1.00  0.00     0.046 A 
HETATM   23  C14 UNL     1      24.719   8.286  48.849  1.00  0.00     0.138 A 
HETATM   24  F1  UNL     1      24.908   9.140  47.835  1.00  0.00    -0.204 F 
HETATM   25  C15 UNL     1      25.599   7.229  48.967  1.00  0.00     0.074 A 
HETATM   26 CL1  UNL     1      26.953   6.932  47.870  1.00  0.00    -0.081 Cl
HETATM   27  C16 UNL     1      25.470   6.308  49.985  1.00  0.00     0.056 A 
ENDBRANCH  18  20
ENDBRANCH  13  18
BRANCH   1  28
HETATM   28  O1  UNL     1      24.937  -1.618  55.797  1.00  0.00    -0.361 OA
HETATM   29  H1  UNL     1      24.000  -2.020  55.853  1.00  0.00     0.217 HD
ENDBRANCH   1  28
TORSDOF 3
ENDMDL
MODEL 3
REMARK VINA RESULT:      -8.0      4.266      7.002
REMARK  3 active torsions:
REMARK  status: ('A' for Active; 'I' for Inactive)
REMARK    1  A    between atoms: O1_1  and  C1_2 
REMARK    2  A    between atoms: C10_14  and  N3_15 
REMARK    3  A    between atoms: N3_15  and  C11_16 
ROOT
HETATM    1  C1  UNL     1      22.066   6.912  47.730  1.00  0.00     0.068 A 
HETATM    2  C2  UNL     1      23.350   6.980  47.223  1.00  0.00     0.037 A 
HETATM    3  C3  UNL     1      24.341   6.585  48.098  1.00  0.00     0.014 A 
HETATM    4  C4  UNL     1      24.137   6.142  49.396  1.00  0.00    -0.007 A 
HETATM    5  C5  UNL     1      22.838   6.090  49.859  1.00  0.00     0.080 A 
HETATM    6  C6  UNL     1      21.820   6.478  49.013  1.00  0.00     0.073 A 
HETATM    7  O2  UNL     1      22.511   5.671  51.124  1.00  0.00    -0.334 OA
HETATM    8  C7  UNL     1      22.965   4.664  51.977  1.00  0.00     0.222 C 
HETATM    9  C8  UNL     1      21.830   3.725  52.182  1.00  0.00     0.129 C 
HETATM   10  N1  UNL     1      21.653   2.460  52.381  1.00  0.00    -0.255 NA
HETATM   11  C9  UNL     1      22.696   1.489  52.467  1.00  0.00     0.234 C 
HETATM   12  N2  UNL     1      23.931   1.618  52.118  1.00  0.00    -0.222 NA
HETATM   13  C10 UNL     1      24.613   2.734  51.558  1.00  0.00     0.154 C 
HETATM   14  C17 UNL     1      24.178   3.982  51.520  1.00  0.00     0.087 C 
HETATM   15  N4  UNL     1      25.293   4.583  50.853  1.00  0.00    -0.383 N 
HETATM   16  C18 UNL     1      25.433   5.793  50.068  1.00  0.00     0.161 C 
HETATM   17  H12 UNL     1      26.179   4.052  50.947  1.00  0.00     0.160 HD
ENDROOT
BRANCH  13  18
HETATM   18  N3  UNL     1      25.869   2.336  51.020  1.00  0.00    -0.339 N 
HETATM   19  H8  UNL     1      26.319   2.516  50.072  1.00  0.00     0.167 HD
BRANCH  18  20
HETATM   20  C11 UNL     1      26.671   1.548  51.906  1.00  0.00     0.035 A 
HETATM   21  C12 UNL     1      27.531   2.152  52.811  1.00  0.00     0.032 A 
HETATM   22  C13 UNL     1      28.339   1.449  53.700  1.00  0.00     0.046 A 
HETATM   23  C14 UNL     1      28.286   0.071  53.686  1.00  0.00     0.138 A 
HETATM   24  F1  UNL     1      29.024  -0.693  54.502  1.00  0.00    -0.204 F 
HETATM   25  C15 UNL     1      27.443  -0.569  52.802  1.00  0.00     0.074 A 
HETATM   26 CL1  UNL     1      27.274  -2.324  52.676  1.00  0.00    -0.081 Cl
HETATM   27  C16 UNL     1      26.651   0.149  51.930  1.00  0.00     0.056 A 
ENDBRANCH  18  20
ENDBRANCH  13  18
BRANCH   1  28
HETATM   28  O1  UNL     1      21.009   7.294  46.910  1.00  0.00    -0.361 OA
HETATM   29  H1  UNL     1      21.166   7.436  45.910  1.00  0.00     0.217 HD
ENDBRANCH   1  28
TORSDOF 3
ENDMDL
MODEL 4
REMARK VINA RESULT:      -8.0      4.772      6.952
REMARK  3 active torsions:
REMARK  status: ('A' for Active; 'I' for Inactive)
REMARK    1  A    between atoms: O1_1  and  C1_2 
REMARK    2  A    between atoms: C10_14  and  N3_15 
REMARK    3  A    between atoms: N3_15  and  C11_16 
ROOT
HETATM    1  C1  UNL     1      28.092   1.120  53.167  1.00  0.00     0.068 A 
HETATM    2  C2  UNL     1      27.740  -0.214  53.081  1.00  0.00     0.037 A 
HETATM    3  C3  UNL     1      26.385  -0.463  53.162  1.00  0.00     0.014 A 
HETATM    4  C4  UNL     1      25.400   0.500  53.316  1.00  0.00    -0.007 A 
HETATM    5  C5  UNL     1      25.798   1.819  53.396  1.00  0.00     0.080 A 
HETATM    6  C6  UNL     1      27.145   2.107  53.320  1.00  0.00     0.073 A 
HETATM    7  O2  UNL     1      24.916   2.859  53.550  1.00  0.00    -0.334 OA
HETATM    8  C7  UNL     1      23.653   3.164  53.041  1.00  0.00     0.222 C 
HETATM    9  C8  UNL     1      23.802   4.395  52.222  1.00  0.00     0.129 C 
HETATM   10  N1  UNL     1      23.276   4.914  51.161  1.00  0.00    -0.255 NA
HETATM   11  C9  UNL     1      22.237   4.317  50.384  1.00  0.00     0.234 C 
HETATM   12  N2  UNL     1      21.823   3.095  50.419  1.00  0.00    -0.222 NA
HETATM   13  C10 UNL     1      22.259   2.003  51.217  1.00  0.00     0.154 C 
HETATM   14  C17 UNL     1      23.018   2.073  52.298  1.00  0.00     0.087 C 
HETATM   15  N4  UNL     1      23.083   0.678  52.613  1.00  0.00    -0.383 N 
HETATM   16  C18 UNL     1      24.031  -0.116  53.367  1.00  0.00     0.161 C 
HETATM   17  H12 UNL     1      22.299   0.120  52.227  1.00  0.00     0.160 HD
ENDROOT
BRANCH  13  18
HETATM   18  N3  UNL     1      21.767   0.773  50.697  1.00  0.00    -0.339 N 
HETATM   19  H8  UNL     1      22.262  -0.039  50.218  1.00  0.00     0.167 HD
BRANCH  18  20
HETATM   20  C11 UNL     1      20.354   0.594  50.835  1.00  0.00     0.035 A 
HETATM   21  C12 UNL     1      19.476   1.139  49.909  1.00  0.00     0.032 A 
HETATM   22  C13 UNL     1      18.093   1.005  49.981  1.00  0.00     0.046 A 
HETATM   23  C14 UNL     1      17.555   0.290  51.031  1.00  0.00     0.138 A 
HETATM   24  F1  UNL     1      16.238   0.105  51.187  1.00  0.00    -0.204 F 
HETATM   25  C15 UNL     1      18.394  -0.269  51.974  1.00  0.00     0.074 A 
HETATM   26 CL1  UNL     1      17.845  -1.207  53.367  1.00  0.00    -0.081 Cl
HETATM   27  C16 UNL     1      19.763  -0.123  51.881  1.00  0.00     0.056 A 
ENDBRANCH  18  20
ENDBRANCH  13  18
BRANCH   1  28
HETATM   28  O1  UNL     1      29.440   1.455  53.095  1.00  0.00    -0.361 OA
HETATM   29  H1  UNL     1      29.865   1.665  52.189  1.00  0.00     0.217 HD
ENDBRANCH   1  28
TORSDOF 3
ENDMDL
MODEL 5
REMARK VINA RESULT:      -8.0      4.691      6.816
REMARK  3 active torsions:
REMARK  status: ('A' for Active; 'I' for Inactive)
REMARK    1  A    between atoms: O1_1  and  C1_2 
REMARK    2  A    between atoms: C10_14  and  N3_15 
REMARK    3  A    between atoms: N3_15  and  C11_16 
ROOT
HETATM    1  C1  UNL     1      27.925   1.112  54.140  1.00  0.00     0.068 A 
HETATM    2  C2  UNL     1      27.959   2.127  53.202  1.00  0.00     0.037 A 
HETATM    3  C3  UNL     1      26.905   2.129  52.311  1.00  0.00     0.014 A 
HETATM    4  C4  UNL     1      25.861   1.217  52.301  1.00  0.00    -0.007 A 
HETATM    5  C5  UNL     1      25.868   0.222  53.256  1.00  0.00     0.080 A 
HETATM    6  C6  UNL     1      26.906   0.187  54.164  1.00  0.00     0.073 A 
HETATM    7  O2  UNL     1      24.891  -0.737  53.346  1.00  0.00    -0.334 OA
HETATM    8  C7  UNL     1      23.503  -0.748  53.198  1.00  0.00     0.222 C 
HETATM    9  C8  UNL     1      22.929  -1.106  54.521  1.00  0.00     0.129 C 
HETATM   10  N1  UNL     1      21.871  -0.839  55.214  1.00  0.00    -0.255 NA
HETATM   11  C9  UNL     1      20.810   0.020  54.795  1.00  0.00     0.234 C 
HETATM   12  N2  UNL     1      20.812   0.865  53.820  1.00  0.00    -0.222 NA
HETATM   13  C10 UNL     1      21.840   1.190  52.892  1.00  0.00     0.154 C 
HETATM   14  C17 UNL     1      22.941   0.495  52.664  1.00  0.00     0.087 C 
HETATM   15  N4  UNL     1      23.523   1.330  51.657  1.00  0.00    -0.383 N 
HETATM   16  C18 UNL     1      24.885   1.511  51.198  1.00  0.00     0.161 C 
HETATM   17  H12 UNL     1      22.840   1.926  51.153  1.00  0.00     0.160 HD
ENDROOT
BRANCH  13  18
HETATM   18  N3  UNL     1      21.535   2.402  52.210  1.00  0.00    -0.339 N 
HETATM   19  H8  UNL     1      22.123   3.267  52.012  1.00  0.00     0.167 HD
BRANCH  18  20
HETATM   20  C11 UNL     1      20.198   2.478  51.705  1.00  0.00     0.035 A 
HETATM   21  C12 UNL     1      19.480   3.663  51.774  1.00  0.00     0.032 A 
HETATM   22  C13 UNL     1      18.178   3.809  51.304  1.00  0.00     0.046 A 
HETATM   23  C14 UNL     1      17.559   2.716  50.734  1.00  0.00     0.138 A 
HETATM   24  F1  UNL     1      16.311   2.756  50.252  1.00  0.00    -0.204 F 
HETATM   25  C15 UNL     1      18.239   1.519  50.645  1.00  0.00     0.074 A 
HETATM   26 CL1  UNL     1      17.572   0.042  49.940  1.00  0.00    -0.081 Cl
HETATM   27  C16 UNL     1      19.530   1.398  51.118  1.00  0.00     0.056 A 
ENDBRANCH  18  20
ENDBRANCH  13  18
BRANCH   1  28
HETATM   28  O1  UNL     1      28.953   1.040  55.075  1.00  0.00    -0.361 OA
HETATM   29  H1  UNL     1      29.761   0.439  54.897  1.00  0.00     0.217 HD
ENDBRANCH   1  28
TORSDOF 3
ENDMDL
MODEL 6
REMARK VINA RESULT:      -7.9      5.846      8.251
REMARK  3 active torsions:
REMARK  status: ('A' for Active; 'I' for Inactive)
REMARK    1  A    between atoms: O1_1  and  C1_2 
REMARK    2  A    between atoms: C10_14  and  N3_15 
REMARK    3  A    between atoms: N3_15  and  C11_16 
ROOT
HETATM    1  C1  UNL     1      23.920   7.055  50.456  1.00  0.00     0.068 A 
HETATM    2  C2  UNL     1      24.254   5.814  50.965  1.00  0.00     0.037 A 
HETATM    3  C3  UNL     1      25.328   5.204  50.349  1.00  0.00     0.014 A 
HETATM    4  C4  UNL     1      26.059   5.736  49.299  1.00  0.00    -0.007 A 
HETATM    5  C5  UNL     1      25.690   6.978  48.824  1.00  0.00     0.080 A 
HETATM    6  C6  UNL     1      24.621   7.619  49.414  1.00  0.00     0.073 A 
HETATM    7  O2  UNL     1      26.337   7.606  47.789  1.00  0.00    -0.334 OA
HETATM    8  C7  UNL     1      27.669   7.736  47.392  1.00  0.00     0.222 C 
HETATM    9  C8  UNL     1      28.012   9.179  47.493  1.00  0.00     0.129 C 
HETATM   10  N1  UNL     1      29.046   9.904  47.768  1.00  0.00    -0.255 NA
HETATM   11  C9  UNL     1      30.339   9.398  48.099  1.00  0.00     0.234 C 
HETATM   12  N2  UNL     1      30.657   8.194  48.437  1.00  0.00    -0.222 NA
HETATM   13  C10 UNL     1      29.842   7.037  48.578  1.00  0.00     0.154 C 
HETATM   14  C17 UNL     1      28.607   6.886  48.130  1.00  0.00     0.087 C 
HETATM   15  N4  UNL     1      28.370   5.549  48.582  1.00  0.00    -0.383 N 
HETATM   16  C18 UNL     1      27.159   4.808  48.869  1.00  0.00     0.161 C 
HETATM   17  H12 UNL     1      29.234   4.995  48.735  1.00  0.00     0.160 HD
ENDROOT
BRANCH  13  18
HETATM   18  N3  UNL     1      30.537   6.017  49.287  1.00  0.00    -0.339 N 
HETATM   19  H8  UNL     1      30.336   5.544  50.220  1.00  0.00     0.167 HD
BRANCH  18  20
HETATM   20  C11 UNL     1      31.721   5.545  48.638  1.00  0.00     0.035 A 
HETATM   21  C12 UNL     1      31.640   4.693  47.545  1.00  0.00     0.032 A 
HETATM   22  C13 UNL     1      32.748   4.195  46.867  1.00  0.00     0.046 A 
HETATM   23  C14 UNL     1      34.005   4.566  47.299  1.00  0.00     0.138 A 
HETATM   24  F1  UNL     1      35.131   4.141  46.713  1.00  0.00    -0.204 F 
HETATM   25  C15 UNL     1      34.129   5.412  48.382  1.00  0.00     0.074 A 
HETATM   26 CL1  UNL     1      35.671   5.968  49.042  1.00  0.00    -0.081 Cl
HETATM   27  C16 UNL     1      33.015   5.893  49.039  1.00  0.00     0.056 A 
ENDBRANCH  18  20
ENDBRANCH  13  18
BRANCH   1  28
HETATM   28  O1  UNL     1      22.847   7.736  51.022  1.00  0.00    -0.361 OA
HETATM   29  H1  UNL     1      22.477   8.573  50.566  1.00  0.00     0.217 HD
ENDBRANCH   1  28
TORSDOF 3
ENDMDL
MODEL 7
REMARK VINA RESULT:      -7.9      2.421      3.431
REMARK  3 active torsions:
REMARK  status: ('A' for Active; 'I' for Inactive)
REMARK    1  A    between atoms: O1_1  and  C1_2 
REMARK    2  A    between atoms: C10_14  and  N3_15 
REMARK    3  A    between atoms: N3_15  and  C11_16 
ROOT
HETATM    1  C1  UNL     1      24.724   0.740  52.716  1.00  0.00     0.068 A 
HETATM    2  C2  UNL     1      26.097   0.896  52.718  1.00  0.00     0.037 A 
HETATM    3  C3  UNL     1      26.573   1.848  51.839  1.00  0.00     0.014 A 
HETATM    4  C4  UNL     1      25.793   2.622  50.994  1.00  0.00    -0.007 A 
HETATM    5  C5  UNL     1      24.427   2.431  51.027  1.00  0.00     0.080 A 
HETATM    6  C6  UNL     1      23.914   1.488  51.892  1.00  0.00     0.073 A 
HETATM    7  O2  UNL     1      23.554   3.136  50.237  1.00  0.00    -0.334 OA
HETATM    8  C7  UNL     1      23.462   4.461  49.807  1.00  0.00     0.222 C 
HETATM    9  C8  UNL     1      22.214   5.020  50.390  1.00  0.00     0.129 C 
HETATM   10  N1  UNL     1      21.781   6.159  50.822  1.00  0.00    -0.255 NA
HETATM   11  C9  UNL     1      22.538   7.370  50.844  1.00  0.00     0.234 C 
HETATM   12  N2  UNL     1      23.812   7.512  50.700  1.00  0.00    -0.222 NA
HETATM   13  C10 UNL     1      24.823   6.536  50.482  1.00  0.00     0.154 C 
HETATM   14  C17 UNL     1      24.637   5.280  50.112  1.00  0.00     0.087 C 
HETATM   15  N4  UNL     1      26.004   4.857  50.072  1.00  0.00    -0.383 N 
HETATM   16  C18 UNL     1      26.634   3.556  50.172  1.00  0.00     0.161 C 
HETATM   17  H12 UNL     1      26.683   5.631  49.946  1.00  0.00     0.160 HD
ENDROOT
BRANCH  13  18
HETATM   18  N3  UNL     1      26.113   7.089  50.720  1.00  0.00    -0.339 N 
HETATM   19  H8  UNL     1      26.820   6.921  51.499  1.00  0.00     0.167 HD
BRANCH  18  20
HETATM   20  C11 UNL     1      26.537   8.045  49.744  1.00  0.00     0.035 A 
HETATM   21  C12 UNL     1      27.208   9.199  50.127  1.00  0.00     0.032 A 
HETATM   22  C13 UNL     1      27.649  10.170  49.233  1.00  0.00     0.046 A 
HETATM   23  C14 UNL     1      27.409   9.983  47.887  1.00  0.00     0.138 A 
HETATM   24  F1  UNL     1      27.794  10.860  46.952  1.00  0.00    -0.204 F 
HETATM   25  C15 UNL     1      26.745   8.849  47.466  1.00  0.00     0.074 A 
HETATM   26 CL1  UNL     1      26.372   8.481  45.779  1.00  0.00    -0.081 Cl
HETATM   27  C16 UNL     1      26.318   7.899  48.371  1.00  0.00     0.056 A 
ENDBRANCH  18  20
ENDBRANCH  13  18
BRANCH   1  28
HETATM   28  O1  UNL     1      24.164  -0.202  53.574  1.00  0.00    -0.361 OA
HETATM   29  H1  UNL     1      23.843  -1.099  53.206  1.00  0.00     0.217 HD
ENDBRANCH   1  28
TORSDOF 3
ENDMDL
MODEL 8
REMARK VINA RESULT:      -7.8      4.416      7.523
REMARK  3 active torsions:
REMARK  status: ('A' for Active; 'I' for Inactive)
REMARK    1  A    between atoms: O1_1  and  C1_2 
REMARK    2  A    between atoms: C10_14  and  N3_15 
REMARK    3  A    between atoms: N3_15  and  C11_16 
ROOT
HETATM    1  C1  UNL     1      27.028   6.065  48.641  1.00  0.00     0.068 A 
HETATM    2  C2  UNL     1      27.477   4.758  48.638  1.00  0.00     0.037 A 
HETATM    3  C3  UNL     1      26.778   3.903  49.466  1.00  0.00     0.014 A 
HETATM    4  C4  UNL     1      25.701   4.260  50.263  1.00  0.00    -0.007 A 
HETATM    5  C5  UNL     1      25.288   5.576  50.233  1.00  0.00     0.080 A 
HETATM    6  C6  UNL     1      25.963   6.460  49.418  1.00  0.00     0.073 A 
HETATM    7  O2  UNL     1      24.236   6.047  50.978  1.00  0.00    -0.334 OA
HETATM    8  C7  UNL     1      22.980   5.554  51.335  1.00  0.00     0.222 C 
HETATM    9  C8  UNL     1      21.970   6.451  50.715  1.00  0.00     0.129 C 
HETATM   10  N1  UNL     1      20.780   6.361  50.219  1.00  0.00    -0.255 NA
HETATM   11  C9  UNL     1      20.014   5.159  50.135  1.00  0.00     0.234 C 
HETATM   12  N2  UNL     1      20.426   3.945  50.278  1.00  0.00    -0.222 NA
HETATM   13  C10 UNL     1      21.729   3.446  50.554  1.00  0.00     0.154 C 
HETATM   14  C17 UNL     1      22.762   4.147  50.991  1.00  0.00     0.087 C 
HETATM   15  N4  UNL     1      23.729   3.093  51.063  1.00  0.00    -0.383 N 
HETATM   16  C18 UNL     1      25.177   3.084  51.038  1.00  0.00     0.161 C 
HETATM   17  H12 UNL     1      23.316   2.145  51.150  1.00  0.00     0.160 HD
ENDROOT
BRANCH  13  18
HETATM   18  N3  UNL     1      21.797   2.049  50.294  1.00  0.00    -0.339 N 
HETATM   19  H8  UNL     1      22.340   1.492  49.566  1.00  0.00     0.167 HD
BRANCH  18  20
HETATM   20  C11 UNL     1      20.989   1.244  51.158  1.00  0.00     0.035 A 
HETATM   21  C12 UNL     1      19.734   0.810  50.754  1.00  0.00     0.032 A 
HETATM   22  C13 UNL     1      18.895   0.027  51.542  1.00  0.00     0.046 A 
HETATM   23  C14 UNL     1      19.330  -0.344  52.797  1.00  0.00     0.138 A 
HETATM   24  F1  UNL     1      18.596  -1.096  53.628  1.00  0.00    -0.204 F 
HETATM   25  C15 UNL     1      20.572   0.067  53.236  1.00  0.00     0.074 A 
HETATM   26 CL1  UNL     1      21.254  -0.334  54.817  1.00  0.00    -0.081 Cl
HETATM   27  C16 UNL     1      21.386   0.843  52.438  1.00  0.00     0.056 A 
ENDBRANCH  18  20
ENDBRANCH  13  18
BRANCH   1  28
HETATM   28  O1  UNL     1      27.681   6.991  47.833  1.00  0.00    -0.361 OA
HETATM   29  H1  UNL     1      28.700   7.063  47.862  1.00  0.00     0.217 HD
ENDBRANCH   1  28
TORSDOF 3
ENDMDL
MODEL 9
REMARK VINA RESULT:      -7.7      4.730      6.726
REMARK  3 active torsions:
REMARK  status: ('A' for Active; 'I' for Inactive)
REMARK    1  A    between atoms: O1_1  and  C1_2 
REMARK    2  A    between atoms: C10_14  and  N3_15 
REMARK    3  A    between atoms: N3_15  and  C11_16 
ROOT
HETATM    1  C1  UNL     1      26.565   1.622  52.430  1.00  0.00     0.068 A 
HETATM    2  C2  UNL     1      26.026   1.930  53.665  1.00  0.00     0.037 A 
HETATM    3  C3  UNL     1      24.932   2.769  53.627  1.00  0.00     0.014 A 
HETATM    4  C4  UNL     1      24.365   3.297  52.477  1.00  0.00    -0.007 A 
HETATM    5  C5  UNL     1      24.936   2.962  51.268  1.00  0.00     0.080 A 
HETATM    6  C6  UNL     1      26.032   2.125  51.265  1.00  0.00     0.073 A 
HETATM    7  O2  UNL     1      24.465   3.422  50.064  1.00  0.00    -0.334 OA
HETATM    8  C7  UNL     1      23.198   3.647  49.521  1.00  0.00     0.222 C 
HETATM    9  C8  UNL     1      23.049   2.715  48.372  1.00  0.00     0.129 C 
HETATM   10  N1  UNL     1      22.105   2.051  47.790  1.00  0.00    -0.255 NA
HETATM   11  C9  UNL     1      20.732   2.058  48.184  1.00  0.00     0.234 C 
HETATM   12  N2  UNL     1      20.228   2.484  49.292  1.00  0.00    -0.222 NA
HETATM   13  C10 UNL     1      20.864   3.061  50.426  1.00  0.00     0.154 C 
HETATM   14  C17 UNL     1      22.098   3.531  50.481  1.00  0.00     0.087 C 
HETATM   15  N4  UNL     1      22.113   3.952  51.849  1.00  0.00    -0.383 N 
HETATM   16  C18 UNL     1      23.186   4.172  52.797  1.00  0.00     0.161 C 
HETATM   17  H12 UNL     1      21.173   4.138  52.245  1.00  0.00     0.160 HD
ENDROOT
BRANCH  13  18
HETATM   18  N3  UNL     1      19.982   3.072  51.544  1.00  0.00    -0.339 N 
HETATM   19  H8  UNL     1      19.472   3.869  52.031  1.00  0.00     0.167 HD
BRANCH  18  20
HETATM   20  C11 UNL     1      19.741   1.785  52.122  1.00  0.00     0.035 A 
HETATM   21  C12 UNL     1      18.653   1.021  51.723  1.00  0.00     0.032 A 
HETATM   22  C13 UNL     1      18.358  -0.236  52.242  1.00  0.00     0.046 A 
HETATM   23  C14 UNL     1      19.191  -0.760  53.210  1.00  0.00     0.138 A 
HETATM   24  F1  UNL     1      18.992  -1.960  53.769  1.00  0.00    -0.204 F 
HETATM   25  C15 UNL     1      20.284  -0.032  53.633  1.00  0.00     0.074 A 
HETATM   26 CL1  UNL     1      21.432  -0.578  54.861  1.00  0.00    -0.081 Cl
HETATM   27  C16 UNL     1      20.556   1.213  53.104  1.00  0.00     0.056 A 
ENDBRANCH  18  20
ENDBRANCH  13  18
BRANCH   1  28
HETATM   28  O1  UNL     1      27.673   0.781  52.383  1.00  0.00    -0.361 OA
HETATM   29  H1  UNL     1      27.568  -0.181  52.052  1.00  0.00     0.217 HD
ENDBRANCH   1  28
TORSDOF 3
ENDMDL
