MODEL 1
REMARK VINA RESULT:      -7.7      0.000      0.000
REMARK  3 active torsions:
REMARK  status: ('A' for Active; 'I' for Inactive)
REMARK    1  A    between atoms: O1_2  and  C2_3 
REMARK    2  A    between atoms: C7_10  and  O2_11 
REMARK    3  A    between atoms: C8_13  and  S1_14 
ROOT
HETATM    1  C2  UNL     1      26.570  -0.424  53.380  1.00  0.00     0.080 C 
HETATM    2  C3  UNL     1      26.329  -0.057  52.123  1.00  0.00     0.023 C 
HETATM    3  C4  UNL     1      25.429   0.882  52.057  1.00  0.00     0.004 C 
HETATM    4  C5  UNL     1      25.154   2.066  51.248  1.00  0.00     0.151 C 
HETATM    5  N1  UNL     1      25.325   3.282  50.798  1.00  0.00    -0.184 NA
HETATM    6  N2  UNL     1      24.369   3.691  49.812  1.00  0.00    -0.269 N 
HETATM    7  C6  UNL     1      23.558   4.395  50.813  1.00  0.00     0.170 C 
HETATM    8  C7  UNL     1      22.929   4.795  51.960  1.00  0.00     0.180 C 
HETATM    9  N3  UNL     1      23.654   3.672  52.345  1.00  0.00    -0.220 NA
HETATM   10  C8  UNL     1      23.098   2.565  52.650  1.00  0.00     0.083 C 
HETATM   11  C9  UNL     1      23.138   1.176  53.050  1.00  0.00     0.101 C 
HETATM   12  C10 UNL     1      22.355   0.307  52.099  1.00  0.00    -0.011 C 
HETATM   13  C11 UNL     1      21.743   0.248  50.924  1.00  0.00    -0.002 C 
HETATM   14  C12 UNL     1      21.365   0.916  49.698  1.00  0.00     0.007 C 
HETATM   15  C13 UNL     1      21.537   2.112  49.154  1.00  0.00     0.142 C 
HETATM   16  S2  UNL     1      21.933   3.819  48.671  1.00  0.00    -0.196 SA
HETATM   17  C14 UNL     1      23.759   3.863  48.489  1.00  0.00     0.210 C 
HETATM   18  C15 UNL     1      24.475   0.554  53.176  1.00  0.00    -0.029 C 
HETATM   19  C16 UNL     1      25.213  -0.226  53.934  1.00  0.00     0.046 C 
ENDROOT
BRANCH   1  20
HETATM   20  O1  UNL     1      27.624  -0.874  54.162  1.00  0.00    -0.355 OA
HETATM   21  C1  UNL     1      28.715  -0.089  54.528  1.00  0.00     0.210 C 
ENDBRANCH   1  20
BRANCH  10  22
HETATM   22  S1  UNL     1      21.372   3.057  52.413  1.00  0.00    -0.127 SA
HETATM   23  H7  UNL     1      21.406   4.375  51.903  1.00  0.00     0.108 HD
ENDBRANCH  10  22
BRANCH   8  24
HETATM   24  O2  UNL     1      22.119   5.562  52.790  1.00  0.00    -0.344 OA
HETATM   25  H6  UNL     1      22.340   6.566  52.845  1.00  0.00     0.219 HD
ENDBRANCH   8  24
TORSDOF 3
ENDMDL
MODEL 2
REMARK VINA RESULT:      -7.1      9.134     11.358
REMARK  3 active torsions:
REMARK  status: ('A' for Active; 'I' for Inactive)
REMARK    1  A    between atoms: O1_2  and  C2_3 
REMARK    2  A    between atoms: C7_10  and  O2_11 
REMARK    3  A    between atoms: C8_13  and  S1_14 
ROOT
HETATM    1  C2  UNL     1      28.200   7.484  48.526  1.00  0.00     0.080 C 
HETATM    2  C3  UNL     1      28.699   6.397  47.941  1.00  0.00     0.023 C 
HETATM    3  C4  UNL     1      30.000   6.425  47.895  1.00  0.00     0.004 C 
HETATM    4  C5  UNL     1      31.110   5.483  48.000  1.00  0.00     0.151 C 
HETATM    5  N1  UNL     1      31.930   4.650  48.587  1.00  0.00    -0.184 NA
HETATM    6  N2  UNL     1      32.920   4.079  47.721  1.00  0.00    -0.269 N 
HETATM    7  C6  UNL     1      33.931   5.055  48.146  1.00  0.00     0.170 C 
HETATM    8  C7  UNL     1      34.587   6.174  48.583  1.00  0.00     0.180 C 
HETATM    9  N3  UNL     1      33.247   6.548  48.575  1.00  0.00    -0.220 NA
HETATM   10  C8  UNL     1      32.771   7.383  47.737  1.00  0.00     0.083 C 
HETATM   11  C9  UNL     1      31.684   8.140  47.154  1.00  0.00     0.101 C 
HETATM   12  C10 UNL     1      31.600   7.923  45.665  1.00  0.00    -0.011 C 
HETATM   13  C11 UNL     1      32.023   7.194  44.641  1.00  0.00    -0.002 C 
HETATM   14  C12 UNL     1      32.835   6.097  44.163  1.00  0.00     0.007 C 
HETATM   15  C13 UNL     1      33.645   5.190  44.689  1.00  0.00     0.142 C 
HETATM   16  S2  UNL     1      34.685   4.083  45.688  1.00  0.00    -0.196 SA
HETATM   17  C14 UNL     1      33.521   3.151  46.757  1.00  0.00     0.210 C 
HETATM   18  C15 UNL     1      30.328   7.882  47.688  1.00  0.00    -0.029 C 
HETATM   19  C16 UNL     1      29.217   8.462  48.083  1.00  0.00     0.046 C 
ENDROOT
BRANCH   1  20
HETATM   20  O1  UNL     1      27.126   7.851  49.324  1.00  0.00    -0.355 OA
HETATM   21  C1  UNL     1      27.079   9.018  50.082  1.00  0.00     0.210 C 
ENDBRANCH   1  20
BRANCH  10  22
HETATM   22  S1  UNL     1      34.293   7.750  46.827  1.00  0.00    -0.127 SA
HETATM   23  H7  UNL     1      35.297   7.941  47.804  1.00  0.00     0.108 HD
ENDBRANCH  10  22
BRANCH   8  24
HETATM   24  O2  UNL     1      35.654   6.983  48.958  1.00  0.00    -0.344 OA
HETATM   25  H6  UNL     1      36.277   6.610  49.687  1.00  0.00     0.219 HD
ENDBRANCH   8  24
TORSDOF 3
ENDMDL
MODEL 3
REMARK VINA RESULT:      -7.1      2.471      2.889
REMARK  3 active torsions:
REMARK  status: ('A' for Active; 'I' for Inactive)
REMARK    1  A    between atoms: O1_2  and  C2_3 
REMARK    2  A    between atoms: C7_10  and  O2_11 
REMARK    3  A    between atoms: C8_13  and  S1_14 
ROOT
HETATM    1  C2  UNL     1      22.306  -0.935  54.469  1.00  0.00     0.080 C 
HETATM    2  C3  UNL     1      22.507  -0.872  53.155  1.00  0.00     0.023 C 
HETATM    3  C4  UNL     1      22.245   0.313  52.681  1.00  0.00     0.004 C 
HETATM    4  C5  UNL     1      22.762   1.208  51.650  1.00  0.00     0.151 C 
HETATM    5  N1  UNL     1      23.610   2.025  51.080  1.00  0.00    -0.184 NA
HETATM    6  N2  UNL     1      23.186   2.530  49.807  1.00  0.00    -0.269 N 
HETATM    7  C6  UNL     1      22.696   3.778  50.405  1.00  0.00     0.170 C 
HETATM    8  C7  UNL     1      22.179   4.729  51.242  1.00  0.00     0.180 C 
HETATM    9  N3  UNL     1      22.143   3.559  51.994  1.00  0.00    -0.220 NA
HETATM   10  C8  UNL     1      21.054   2.969  52.297  1.00  0.00     0.083 C 
HETATM   11  C9  UNL     1      20.303   1.894  52.909  1.00  0.00     0.101 C 
HETATM   12  C10 UNL     1      19.360   1.252  51.923  1.00  0.00    -0.011 C 
HETATM   13  C11 UNL     1      19.016   1.152  50.646  1.00  0.00    -0.002 C 
HETATM   14  C12 UNL     1      19.252   1.540  49.273  1.00  0.00     0.007 C 
HETATM   15  C13 UNL     1      20.105   2.314  48.619  1.00  0.00     0.142 C 
HETATM   16  S2  UNL     1      21.400   3.433  48.005  1.00  0.00    -0.196 SA
HETATM   17  C14 UNL     1      22.987   2.580  48.354  1.00  0.00     0.210 C 
HETATM   18  C15 UNL     1      21.084   0.792  53.514  1.00  0.00    -0.029 C 
HETATM   19  C16 UNL     1      21.173   0.011  54.567  1.00  0.00     0.046 C 
ENDROOT
BRANCH   1  20
HETATM   20  O1  UNL     1      22.826  -1.577  55.584  1.00  0.00    -0.355 OA
HETATM   21  C1  UNL     1      24.157  -1.489  55.985  1.00  0.00     0.210 C 
ENDBRANCH   1  20
BRANCH  10  22
HETATM   22  S1  UNL     1      19.898   4.108  51.496  1.00  0.00    -0.127 SA
HETATM   23  H7  UNL     1      18.615   3.775  51.989  1.00  0.00     0.108 HD
ENDBRANCH  10  22
BRANCH   8  24
HETATM   24  O2  UNL     1      21.753   5.982  51.668  1.00  0.00    -0.344 OA
HETATM   25  H6  UNL     1      21.576   6.680  50.933  1.00  0.00     0.219 HD
ENDBRANCH   8  24
TORSDOF 3
ENDMDL
MODEL 4
REMARK VINA RESULT:      -7.1      2.327      3.049
REMARK  3 active torsions:
REMARK  status: ('A' for Active; 'I' for Inactive)
REMARK    1  A    between atoms: O1_2  and  C2_3 
REMARK    2  A    between atoms: C7_10  and  O2_11 
REMARK    3  A    between atoms: C8_13  and  S1_14 
ROOT
HETATM    1  C2  UNL     1      24.109   0.116  53.456  1.00  0.00     0.080 C 
HETATM    2  C3  UNL     1      24.220   1.160  52.638  1.00  0.00     0.023 C 
HETATM    3  C4  UNL     1      23.056   1.623  52.282  1.00  0.00     0.004 C 
HETATM    4  C5  UNL     1      22.443   2.917  51.997  1.00  0.00     0.151 C 
HETATM    5  N1  UNL     1      21.961   4.104  52.260  1.00  0.00    -0.184 NA
HETATM    6  N2  UNL     1      21.466   4.812  51.116  1.00  0.00    -0.269 N 
HETATM    7  C6  UNL     1      20.082   4.411  51.400  1.00  0.00     0.170 C 
HETATM    8  C7  UNL     1      18.954   3.748  51.798  1.00  0.00     0.180 C 
HETATM    9  N3  UNL     1      19.993   2.897  52.162  1.00  0.00    -0.220 NA
HETATM   10  C8  UNL     1      20.211   1.787  51.574  1.00  0.00     0.083 C 
HETATM   11  C9  UNL     1      20.963   0.567  51.370  1.00  0.00     0.101 C 
HETATM   12  C10 UNL     1      21.384   0.416  49.931  1.00  0.00    -0.011 C 
HETATM   13  C11 UNL     1      21.489   1.017  48.753  1.00  0.00    -0.002 C 
HETATM   14  C12 UNL     1      21.306   2.213  47.961  1.00  0.00     0.007 C 
HETATM   15  C13 UNL     1      20.874   3.449  48.159  1.00  0.00     0.142 C 
HETATM   16  S2  UNL     1      20.239   5.054  48.731  1.00  0.00    -0.196 SA
HETATM   17  C14 UNL     1      21.484   5.673  49.928  1.00  0.00     0.210 C 
HETATM   18  C15 UNL     1      22.189   0.394  52.181  1.00  0.00    -0.029 C 
HETATM   19  C16 UNL     1      22.868  -0.469  52.902  1.00  0.00     0.046 C 
ENDROOT
BRANCH   1  20
HETATM   20  O1  UNL     1      24.776  -0.456  54.529  1.00  0.00    -0.355 OA
HETATM   21  C1  UNL     1      26.079  -0.134  54.900  1.00  0.00     0.210 C 
ENDBRANCH   1  20
BRANCH  10  22
HETATM   22  S1  UNL     1      18.857   1.846  50.374  1.00  0.00    -0.127 SA
HETATM   23  H7  UNL     1      18.433   3.194  50.327  1.00  0.00     0.108 HD
ENDBRANCH  10  22
BRANCH   8  24
HETATM   24  O2  UNL     1      17.599   3.507  51.999  1.00  0.00    -0.344 OA
HETATM   25  H6  UNL     1      17.137   4.070  52.726  1.00  0.00     0.219 HD
ENDBRANCH   8  24
TORSDOF 3
ENDMDL
MODEL 5
REMARK VINA RESULT:      -7.1      2.250      3.834
REMARK  3 active torsions:
REMARK  status: ('A' for Active; 'I' for Inactive)
REMARK    1  A    between atoms: O1_2  and  C2_3 
REMARK    2  A    between atoms: C7_10  and  O2_11 
REMARK    3  A    between atoms: C8_13  and  S1_14 
ROOT
HETATM    1  C2  UNL     1      27.035   1.709  53.218  1.00  0.00     0.080 C 
HETATM    2  C3  UNL     1      25.857   2.133  53.669  1.00  0.00     0.023 C 
HETATM    3  C4  UNL     1      24.957   2.159  52.728  1.00  0.00     0.004 C 
HETATM    4  C5  UNL     1      23.526   1.908  52.588  1.00  0.00     0.151 C 
HETATM    5  N1  UNL     1      22.427   1.200  52.538  1.00  0.00    -0.184 NA
HETATM    6  N2  UNL     1      21.237   1.963  52.304  1.00  0.00    -0.269 N 
HETATM    7  C6  UNL     1      21.259   1.655  50.868  1.00  0.00     0.170 C 
HETATM    8  C7  UNL     1      21.631   1.361  49.585  1.00  0.00     0.180 C 
HETATM    9  N3  UNL     1      22.836   1.443  50.277  1.00  0.00    -0.220 NA
HETATM   10  C8  UNL     1      23.667   2.394  50.101  1.00  0.00     0.083 C 
HETATM   11  C9  UNL     1      24.899   3.093  50.394  1.00  0.00     0.101 C 
HETATM   12  C10 UNL     1      24.645   4.541  50.727  1.00  0.00    -0.011 C 
HETATM   13  C11 UNL     1      23.724   5.450  51.020  1.00  0.00    -0.002 C 
HETATM   14  C12 UNL     1      22.330   5.762  51.246  1.00  0.00     0.007 C 
HETATM   15  C13 UNL     1      21.181   5.104  51.260  1.00  0.00     0.142 C 
HETATM   16  S2  UNL     1      19.779   3.946  51.212  1.00  0.00    -0.196 SA
HETATM   17  C14 UNL     1      20.058   2.783  52.603  1.00  0.00     0.210 C 
HETATM   18  C15 UNL     1      25.729   2.554  51.495  1.00  0.00    -0.029 C 
HETATM   19  C16 UNL     1      26.960   2.261  51.848  1.00  0.00     0.046 C 
ENDROOT
BRANCH   1  20
HETATM   20  O1  UNL     1      28.134   0.987  53.660  1.00  0.00    -0.355 OA
HETATM   21  C1  UNL     1      28.145   0.212  54.817  1.00  0.00     0.210 C 
ENDBRANCH   1  20
BRANCH  10  22
HETATM   22  S1  UNL     1      22.757   3.318  48.838  1.00  0.00    -0.127 SA
HETATM   23  H7  UNL     1      22.081   4.354  49.521  1.00  0.00     0.108 HD
ENDBRANCH  10  22
BRANCH   8  24
HETATM   24  O2  UNL     1      21.491   1.080  48.231  1.00  0.00    -0.344 OA
HETATM   25  H6  UNL     1      20.596   0.664  47.940  1.00  0.00     0.219 HD
ENDBRANCH   8  24
TORSDOF 3
ENDMDL
MODEL 6
REMARK VINA RESULT:      -7.1      7.578      9.475
REMARK  3 active torsions:
REMARK  status: ('A' for Active; 'I' for Inactive)
REMARK    1  A    between atoms: O1_2  and  C2_3 
REMARK    2  A    between atoms: C7_10  and  O2_11 
REMARK    3  A    between atoms: C8_13  and  S1_14 
ROOT
HETATM    1  C2  UNL     1      26.805   4.824  49.037  1.00  0.00     0.080 C 
HETATM    2  C3  UNL     1      27.981   4.827  48.413  1.00  0.00     0.023 C 
HETATM    3  C4  UNL     1      28.528   6.009  48.416  1.00  0.00     0.004 C 
HETATM    4  C5  UNL     1      29.867   6.584  48.510  1.00  0.00     0.151 C 
HETATM    5  N1  UNL     1      30.995   6.921  49.081  1.00  0.00    -0.184 NA
HETATM    6  N2  UNL     1      31.915   7.606  48.222  1.00  0.00    -0.269 N 
HETATM    7  C6  UNL     1      31.500   8.918  48.735  1.00  0.00     0.170 C 
HETATM    8  C7  UNL     1      30.800   9.973  49.254  1.00  0.00     0.180 C 
HETATM    9  N3  UNL     1      29.873   8.936  49.218  1.00  0.00    -0.220 NA
HETATM   10  C8  UNL     1      28.887   8.923  48.409  1.00  0.00     0.083 C 
HETATM   11  C9  UNL     1      27.710   8.313  47.829  1.00  0.00     0.101 C 
HETATM   12  C10 UNL     1      27.820   8.226  46.328  1.00  0.00    -0.011 C 
HETATM   13  C11 UNL     1      28.628   8.341  45.282  1.00  0.00    -0.002 C 
HETATM   14  C12 UNL     1      29.954   8.615  44.776  1.00  0.00     0.007 C 
HETATM   15  C13 UNL     1      31.142   8.913  45.282  1.00  0.00     0.142 C 
HETATM   16  S2  UNL     1      32.626   9.304  46.257  1.00  0.00    -0.196 SA
HETATM   17  C14 UNL     1      32.982   7.791  47.232  1.00  0.00     0.210 C 
HETATM   18  C15 UNL     1      27.360   6.954  48.299  1.00  0.00    -0.029 C 
HETATM   19  C16 UNL     1      26.362   6.191  48.683  1.00  0.00     0.046 C 
ENDROOT
BRANCH   1  20
HETATM   20  O1  UNL     1      26.027   3.978  49.814  1.00  0.00    -0.355 OA
HETATM   21  C1  UNL     1      26.542   2.964  50.619  1.00  0.00     0.210 C 
ENDBRANCH   1  20
BRANCH  10  22
HETATM   22  S1  UNL     1      29.200  10.499  47.575  1.00  0.00    -0.127 SA
HETATM   23  H7  UNL     1      28.305  11.431  48.149  1.00  0.00     0.108 HD
ENDBRANCH  10  22
BRANCH   8  24
HETATM   24  O2  UNL     1      30.557  11.264  49.709  1.00  0.00    -0.344 OA
HETATM   25  H6  UNL     1      30.040  11.347  50.595  1.00  0.00     0.219 HD
ENDBRANCH   8  24
TORSDOF 3
ENDMDL
MODEL 7
REMARK VINA RESULT:      -6.8      2.118      2.790
REMARK  3 active torsions:
REMARK  status: ('A' for Active; 'I' for Inactive)
REMARK    1  A    between atoms: O1_2  and  C2_3 
REMARK    2  A    between atoms: C7_10  and  O2_11 
REMARK    3  A    between atoms: C8_13  and  S1_14 
ROOT
HETATM    1  C2  UNL     1      26.606   1.805  51.982  1.00  0.00     0.080 C 
HETATM    2  C3  UNL     1      26.592   2.437  50.810  1.00  0.00     0.023 C 
HETATM    3  C4  UNL     1      25.598   3.273  50.721  1.00  0.00     0.004 C 
HETATM    4  C5  UNL     1      25.330   4.583  50.137  1.00  0.00     0.151 C 
HETATM    5  N1  UNL     1      25.411   5.883  50.007  1.00  0.00    -0.184 NA
HETATM    6  N2  UNL     1      24.643   6.422  48.924  1.00  0.00    -0.269 N 
HETATM    7  C6  UNL     1      23.536   6.784  49.819  1.00  0.00     0.170 C 
HETATM    8  C7  UNL     1      22.620   6.835  50.833  1.00  0.00     0.180 C 
HETATM    9  N3  UNL     1      23.404   5.728  51.141  1.00  0.00    -0.220 NA
HETATM   10  C8  UNL     1      22.967   4.533  51.060  1.00  0.00     0.083 C 
HETATM   11  C9  UNL     1      23.127   3.098  51.158  1.00  0.00     0.101 C 
HETATM   12  C10 UNL     1      22.711   2.410  49.883  1.00  0.00    -0.011 C 
HETATM   13  C11 UNL     1      22.386   2.576  48.607  1.00  0.00    -0.002 C 
HETATM   14  C12 UNL     1      22.188   3.477  47.494  1.00  0.00     0.007 C 
HETATM   15  C13 UNL     1      22.292   4.779  47.272  1.00  0.00     0.142 C 
HETATM   16  S2  UNL     1      22.524   6.583  47.271  1.00  0.00    -0.196 SA
HETATM   17  C14 UNL     1      24.317   6.845  47.558  1.00  0.00     0.210 C 
HETATM   18  C15 UNL     1      24.483   2.596  51.477  1.00  0.00    -0.029 C 
HETATM   19  C16 UNL     1      25.146   1.733  52.212  1.00  0.00     0.046 C 
ENDROOT
BRANCH   1  20
HETATM   20  O1  UNL     1      27.520   1.285  52.887  1.00  0.00    -0.355 OA
HETATM   21  C1  UNL     1      28.557   2.019  53.458  1.00  0.00     0.210 C 
ENDBRANCH   1  20
BRANCH  10  22
HETATM   22  S1  UNL     1      21.281   4.897  50.513  1.00  0.00    -0.127 SA
HETATM   23  H7  UNL     1      21.050   6.255  50.832  1.00  0.00     0.108 HD
ENDBRANCH  10  22
BRANCH   8  24
HETATM   24  O2  UNL     1      21.543   7.300  51.579  1.00  0.00    -0.344 OA
HETATM   25  H6  UNL     1      20.788   7.763  51.054  1.00  0.00     0.219 HD
ENDBRANCH   8  24
TORSDOF 3
ENDMDL
MODEL 8
REMARK VINA RESULT:      -6.8      1.090      1.298
REMARK  3 active torsions:
REMARK  status: ('A' for Active; 'I' for Inactive)
REMARK    1  A    between atoms: O1_2  and  C2_3 
REMARK    2  A    between atoms: C7_10  and  O2_11 
REMARK    3  A    between atoms: C8_13  and  S1_14 
ROOT
HETATM    1  C2  UNL     1      25.774   0.134  53.234  1.00  0.00     0.080 C 
HETATM    2  C3  UNL     1      25.950   0.699  52.042  1.00  0.00     0.023 C 
HETATM    3  C4  UNL     1      25.093   1.656  51.827  1.00  0.00     0.004 C 
HETATM    4  C5  UNL     1      25.063   2.958  51.168  1.00  0.00     0.151 C 
HETATM    5  N1  UNL     1      25.335   4.226  50.995  1.00  0.00    -0.184 NA
HETATM    6  N2  UNL     1      24.747   4.806  49.824  1.00  0.00    -0.269 N 
HETATM    7  C6  UNL     1      23.628   5.361  50.596  1.00  0.00     0.170 C 
HETATM    8  C7  UNL     1      22.643   5.590  51.517  1.00  0.00     0.180 C 
HETATM    9  N3  UNL     1      23.235   4.404  51.941  1.00  0.00    -0.220 NA
HETATM   10  C8  UNL     1      22.645   3.276  51.868  1.00  0.00     0.083 C 
HETATM   11  C9  UNL     1      22.594   1.840  52.038  1.00  0.00     0.101 C 
HETATM   12  C10 UNL     1      22.199   1.149  50.758  1.00  0.00    -0.011 C 
HETATM   13  C11 UNL     1      22.012   1.289  49.452  1.00  0.00    -0.002 C 
HETATM   14  C12 UNL     1      22.039   2.149  48.290  1.00  0.00     0.007 C 
HETATM   15  C13 UNL     1      22.343   3.412  48.027  1.00  0.00     0.142 C 
HETATM   16  S2  UNL     1      22.823   5.165  47.975  1.00  0.00    -0.196 SA
HETATM   17  C14 UNL     1      24.603   5.197  48.417  1.00  0.00     0.210 C 
HETATM   18  C15 UNL     1      23.834   1.177  52.502  1.00  0.00    -0.029 C 
HETATM   19  C16 UNL     1      24.304   0.272  53.330  1.00  0.00     0.046 C 
ENDROOT
BRANCH   1  20
HETATM   20  O1  UNL     1      26.524  -0.456  54.241  1.00  0.00    -0.355 OA
HETATM   21  C1  UNL     1      27.837  -0.105  54.545  1.00  0.00     0.210 C 
ENDBRANCH   1  20
BRANCH  10  22
HETATM   22  S1  UNL     1      21.079   3.836  51.152  1.00  0.00    -0.127 SA
HETATM   23  H7  UNL     1      21.286   3.891  49.754  1.00  0.00     0.108 HD
ENDBRANCH  10  22
BRANCH   8  24
HETATM   24  O2  UNL     1      21.580   6.234  52.140  1.00  0.00    -0.344 OA
HETATM   25  H6  UNL     1      20.870   5.630  52.576  1.00  0.00     0.219 HD
ENDBRANCH   8  24
TORSDOF 3
ENDMDL
MODEL 9
REMARK VINA RESULT:      -6.8      3.188      4.444
REMARK  3 active torsions:
REMARK  status: ('A' for Active; 'I' for Inactive)
REMARK    1  A    between atoms: O1_2  and  C2_3 
REMARK    2  A    between atoms: C7_10  and  O2_11 
REMARK    3  A    between atoms: C8_13  and  S1_14 
ROOT
HETATM    1  C2  UNL     1      22.048  -0.319  54.275  1.00  0.00     0.080 C 
HETATM    2  C3  UNL     1      21.049   0.444  53.835  1.00  0.00     0.023 C 
HETATM    3  C4  UNL     1      21.285   0.910  52.642  1.00  0.00     0.004 C 
HETATM    4  C5  UNL     1      20.534   1.215  51.428  1.00  0.00     0.151 C 
HETATM    5  N1  UNL     1      19.848   0.964  50.342  1.00  0.00    -0.184 NA
HETATM    6  N2  UNL     1      19.435   2.130  49.617  1.00  0.00    -0.269 N 
HETATM    7  C6  UNL     1      20.565   2.016  48.685  1.00  0.00     0.170 C 
HETATM    8  C7  UNL     1      21.778   1.769  48.103  1.00  0.00     0.180 C 
HETATM    9  N3  UNL     1      21.933   1.322  49.412  1.00  0.00    -0.220 NA
HETATM   10  C8  UNL     1      22.673   1.922  50.260  1.00  0.00     0.083 C 
HETATM   11  C9  UNL     1      23.240   2.084  51.581  1.00  0.00     0.101 C 
HETATM   12  C10 UNL     1      22.998   3.473  52.116  1.00  0.00    -0.011 C 
HETATM   13  C11 UNL     1      22.336   4.610  51.947  1.00  0.00    -0.002 C 
HETATM   14  C12 UNL     1      21.379   5.374  51.177  1.00  0.00     0.007 C 
HETATM   15  C13 UNL     1      20.619   5.181  50.110  1.00  0.00     0.142 C 
HETATM   16  S2  UNL     1      19.702   4.626  48.641  1.00  0.00    -0.196 SA
HETATM   17  C14 UNL     1      18.606   3.277  49.231  1.00  0.00     0.210 C 
HETATM   18  C15 UNL     1      22.773   1.149  52.629  1.00  0.00    -0.029 C 
HETATM   19  C16 UNL     1      23.172   0.389  53.624  1.00  0.00     0.046 C 
ENDROOT
BRANCH   1  20
HETATM   20  O1  UNL     1      22.245  -1.438  55.070  1.00  0.00    -0.355 OA
HETATM   21  C1  UNL     1      23.416  -1.695  55.780  1.00  0.00     0.210 C 
ENDBRANCH   1  20
BRANCH  10  22
HETATM   22  S1  UNL     1      23.270   3.261  49.198  1.00  0.00    -0.127 SA
HETATM   23  H7  UNL     1      24.678   3.145  49.176  1.00  0.00     0.108 HD
ENDBRANCH  10  22
BRANCH   8  24
HETATM   24  O2  UNL     1      22.751   1.727  47.111  1.00  0.00    -0.344 OA
HETATM   25  H6  UNL     1      23.267   2.601  46.939  1.00  0.00     0.219 HD
ENDBRANCH   8  24
TORSDOF 3
ENDMDL
