MODEL 1
REMARK VINA RESULT:      -9.1      0.000      0.000
REMARK  6 active torsions:
REMARK  status: ('A' for Active; 'I' for Inactive)
REMARK       I    between atoms: C1_2  and  N1_3 
REMARK    1  A    between atoms: C1_2  and  C15_21 
REMARK    2  A    between atoms: N1_3  and  C2_4 
REMARK    3  A    between atoms: C4_6  and  N2_7 
REMARK    4  A    between atoms: N2_7  and  C5_8 
REMARK    5  A    between atoms: C16_23  and  C17_24 
REMARK    6  A    between atoms: C17_24  and  N5_25 
ROOT
HETATM    1  C2  UNL     1      26.521  -1.020  53.111  1.00  0.00     0.032 A 
HETATM    2  C3  UNL     1      27.514  -0.206  53.489  1.00  0.00     0.061 A 
HETATM    3  C4  UNL     1      27.490   1.099  53.931  1.00  0.00     0.144 A 
HETATM    4  N3  UNL     1      28.627   1.744  54.279  1.00  0.00    -0.223 NA
HETATM    5  C11 UNL     1      29.770   1.059  54.176  1.00  0.00     0.236 A 
HETATM    6  N4  UNL     1      29.882  -0.233  53.749  1.00  0.00    -0.241 NA
HETATM    7  C12 UNL     1      28.718  -0.870  53.401  1.00  0.00     0.070 A 
HETATM    8  C13 UNL     1      28.551  -2.107  52.964  1.00  0.00     0.012 A 
HETATM    9  C14 UNL     1      27.092  -2.338  52.723  1.00  0.00     0.087 A 
ENDROOT
BRANCH   1  10
HETATM   10  N1  UNL     1      25.105  -0.727  53.067  1.00  0.00    -0.327 N 
HETATM   11  C1  UNL     1      24.298  -0.831  54.250  1.00  0.00     0.253 C 
HETATM   12  O1  UNL     1      24.873  -1.178  55.310  1.00  0.00    -0.270 OA
HETATM   13  H1  UNL     1      24.641  -0.434  52.180  1.00  0.00     0.168 HD
BRANCH  11  14
HETATM   14  C15 UNL     1      22.838  -0.510  54.108  1.00  0.00     0.244 A 
HETATM   15  O2  UNL     1      22.219  -1.791  53.585  1.00  0.00    -0.364 OA
HETATM   16  C16 UNL     1      22.156  -0.570  52.854  1.00  0.00     0.189 A 
BRANCH  16  17
HETATM   17  C17 UNL     1      20.723  -0.057  52.833  1.00  0.00     0.307 C 
BRANCH  17  18
HETATM   18  N5  UNL     1      20.382   0.346  51.508  1.00  0.00     0.091 N 
HETATM   19  C18 UNL     1      19.381   1.369  51.462  1.00  0.00     0.272 C 
HETATM   20  C19 UNL     1      18.919   1.474  50.015  1.00  0.00     0.030 C 
HETATM   21  C20 UNL     1      20.088   1.922  49.176  1.00  0.00     0.003 C 
HETATM   22  C21 UNL     1      21.204   0.907  49.295  1.00  0.00     0.030 C 
HETATM   23  C22 UNL     1      21.558   0.653  50.748  1.00  0.00     0.272 C 
ENDBRANCH  17  18
ENDBRANCH  16  17
ENDBRANCH  11  14
ENDBRANCH   1  10
BRANCH   3  24
HETATM   24  N2  UNL     1      26.302   1.873  54.042  1.00  0.00    -0.340 N 
HETATM   25  H2  UNL     1      25.747   2.090  54.915  1.00  0.00     0.167 HD
BRANCH  24  26
HETATM   26  C5  UNL     1      25.805   2.424  52.805  1.00  0.00     0.035 A 
HETATM   27  C6  UNL     1      26.614   2.425  51.683  1.00  0.00     0.029 A 
HETATM   28  C7  UNL     1      26.218   2.935  50.459  1.00  0.00     0.004 A 
HETATM   29  C8  UNL     1      24.933   3.466  50.386  1.00  0.00     0.019 A 
HETATM   30  C9  UNL     1      24.121   3.471  51.494  1.00  0.00     0.013 A 
HETATM   31 BR1  UNL     1      22.378   4.222  51.294  1.00  0.00    -0.051 Br
HETATM   32  C10 UNL     1      24.530   2.957  52.714  1.00  0.00     0.048 A 
ENDBRANCH  24  26
ENDBRANCH   3  24
TORSDOF 6
ENDMDL
MODEL 2
REMARK VINA RESULT:      -8.5      3.061      6.352
REMARK  6 active torsions:
REMARK  status: ('A' for Active; 'I' for Inactive)
REMARK       I    between atoms: C1_2  and  N1_3 
REMARK    1  A    between atoms: C1_2  and  C15_21 
REMARK    2  A    between atoms: N1_3  and  C2_4 
REMARK    3  A    between atoms: C4_6  and  N2_7 
REMARK    4  A    between atoms: N2_7  and  C5_8 
REMARK    5  A    between atoms: C16_23  and  C17_24 
REMARK    6  A    between atoms: C17_24  and  N5_25 
ROOT
HETATM    1  C2  UNL     1      20.940   0.632  52.407  1.00  0.00     0.032 A 
HETATM    2  C3  UNL     1      21.625  -0.060  53.326  1.00  0.00     0.061 A 
HETATM    3  C4  UNL     1      22.932   0.052  53.748  1.00  0.00     0.144 A 
HETATM    4  N3  UNL     1      23.429  -0.753  54.716  1.00  0.00    -0.223 NA
HETATM    5  C11 UNL     1      22.597  -1.659  55.239  1.00  0.00     0.236 A 
HETATM    6  N4  UNL     1      21.291  -1.836  54.880  1.00  0.00    -0.241 NA
HETATM    7  C12 UNL     1      20.806  -1.009  53.898  1.00  0.00     0.070 A 
HETATM    8  C13 UNL     1      19.592  -0.971  53.374  1.00  0.00     0.012 A 
HETATM    9  C14 UNL     1      19.550   0.107  52.338  1.00  0.00     0.087 A 
ENDROOT
BRANCH   1  10
HETATM   10  N1  UNL     1      21.416   1.723  51.585  1.00  0.00    -0.327 N 
HETATM   11  C1  UNL     1      21.059   3.080  51.890  1.00  0.00     0.253 C 
HETATM   12  O1  UNL     1      20.329   3.271  52.893  1.00  0.00    -0.270 OA
HETATM   13  H1  UNL     1      22.028   1.550  50.758  1.00  0.00     0.168 HD
BRANCH  11  14
HETATM   14  C15 UNL     1      21.598   4.146  50.980  1.00  0.00     0.244 A 
HETATM   15  O2  UNL     1      21.400   3.586  49.585  1.00  0.00    -0.364 OA
HETATM   16  C16 UNL     1      22.691   3.917  50.089  1.00  0.00     0.189 A 
BRANCH  16  17
HETATM   17  C17 UNL     1      23.235   5.132  49.352  1.00  0.00     0.307 C 
BRANCH  17  18
HETATM   18  N5  UNL     1      24.660   5.132  49.422  1.00  0.00     0.091 N 
HETATM   19  C18 UNL     1      25.237   3.828  49.289  1.00  0.00     0.272 C 
HETATM   20  C19 UNL     1      26.704   3.950  49.677  1.00  0.00     0.030 C 
HETATM   21  C20 UNL     1      27.380   4.868  48.692  1.00  0.00     0.003 C 
HETATM   22  C21 UNL     1      26.714   6.226  48.736  1.00  0.00     0.030 C 
HETATM   23  C22 UNL     1      25.216   6.105  48.529  1.00  0.00     0.272 C 
ENDBRANCH  17  18
ENDBRANCH  16  17
ENDBRANCH  11  14
ENDBRANCH   1  10
BRANCH   3  24
HETATM   24  N2  UNL     1      23.858   0.987  53.211  1.00  0.00    -0.340 N 
HETATM   25  H2  UNL     1      23.661   1.959  52.841  1.00  0.00     0.167 HD
BRANCH  24  26
HETATM   26  C5  UNL     1      25.230   0.545  53.170  1.00  0.00     0.035 A 
HETATM   27  C6  UNL     1      25.526  -0.721  52.698  1.00  0.00     0.029 A 
HETATM   28  C7  UNL     1      26.813  -1.225  52.626  1.00  0.00     0.004 A 
HETATM   29  C8  UNL     1      27.840  -0.390  53.057  1.00  0.00     0.019 A 
HETATM   30  C9  UNL     1      27.557   0.870  53.528  1.00  0.00     0.013 A 
HETATM   31 BR1  UNL     1      29.032   1.939  54.097  1.00  0.00    -0.051 Br
HETATM   32  C10 UNL     1      26.265   1.363  53.594  1.00  0.00     0.048 A 
ENDBRANCH  24  26
ENDBRANCH   3  24
TORSDOF 6
ENDMDL
MODEL 3
REMARK VINA RESULT:      -8.5      2.196      4.138
REMARK  6 active torsions:
REMARK  status: ('A' for Active; 'I' for Inactive)
REMARK       I    between atoms: C1_2  and  N1_3 
REMARK    1  A    between atoms: C1_2  and  C15_21 
REMARK    2  A    between atoms: N1_3  and  C2_4 
REMARK    3  A    between atoms: C4_6  and  N2_7 
REMARK    4  A    between atoms: N2_7  and  C5_8 
REMARK    5  A    between atoms: C16_23  and  C17_24 
REMARK    6  A    between atoms: C17_24  and  N5_25 
ROOT
HETATM    1  C2  UNL     1      27.599   1.762  53.321  1.00  0.00     0.032 A 
HETATM    2  C3  UNL     1      27.799   0.441  53.242  1.00  0.00     0.061 A 
HETATM    3  C4  UNL     1      26.962  -0.574  52.830  1.00  0.00     0.144 A 
HETATM    4  N3  UNL     1      27.375  -1.862  52.817  1.00  0.00    -0.223 NA
HETATM    5  C11 UNL     1      28.625  -2.105  53.221  1.00  0.00     0.236 A 
HETATM    6  N4  UNL     1      29.518  -1.161  53.643  1.00  0.00    -0.241 NA
HETATM    7  C12 UNL     1      29.081   0.140  53.648  1.00  0.00     0.070 A 
HETATM    8  C13 UNL     1      29.738   1.231  54.004  1.00  0.00     0.012 A 
HETATM    9  C14 UNL     1      28.837   2.412  53.832  1.00  0.00     0.087 A 
ENDROOT
BRANCH   1  10
HETATM   10  N1  UNL     1      26.401   2.497  52.979  1.00  0.00    -0.327 N 
HETATM   11  C1  UNL     1      26.053   2.732  51.606  1.00  0.00     0.253 C 
HETATM   12  O1  UNL     1      26.824   2.271  50.730  1.00  0.00    -0.270 OA
HETATM   13  H1  UNL     1      25.766   2.870  53.718  1.00  0.00     0.168 HD
BRANCH  11  14
HETATM   14  C15 UNL     1      24.793   3.508  51.347  1.00  0.00     0.244 A 
HETATM   15  O2  UNL     1      23.787   2.929  52.321  1.00  0.00    -0.364 OA
HETATM   16  C16 UNL     1      23.583   2.886  50.912  1.00  0.00     0.189 A 
BRANCH  16  17
HETATM   17  C17 UNL     1      22.440   3.815  50.530  1.00  0.00     0.307 C 
BRANCH  17  18
HETATM   18  N5  UNL     1      21.240   3.057  50.384  1.00  0.00     0.091 N 
HETATM   19  C18 UNL     1      21.470   1.682  50.052  1.00  0.00     0.272 C 
HETATM   20  C19 UNL     1      20.127   1.094  49.644  1.00  0.00     0.030 C 
HETATM   21  C20 UNL     1      19.207   1.142  50.835  1.00  0.00     0.003 C 
HETATM   22  C21 UNL     1      19.033   2.580  51.274  1.00  0.00     0.030 C 
HETATM   23  C22 UNL     1      20.377   3.242  51.514  1.00  0.00     0.272 C 
ENDBRANCH  17  18
ENDBRANCH  16  17
ENDBRANCH  11  14
ENDBRANCH   1  10
BRANCH   3  24
HETATM   24  N2  UNL     1      25.620  -0.368  52.409  1.00  0.00    -0.340 N 
HETATM   25  H2  UNL     1      25.278  -0.050  51.460  1.00  0.00     0.167 HD
BRANCH  24  26
HETATM   26  C5  UNL     1      24.611  -0.629  53.406  1.00  0.00     0.035 A 
HETATM   27  C6  UNL     1      24.993  -0.954  54.696  1.00  0.00     0.029 A 
HETATM   28  C7  UNL     1      24.092  -1.220  55.712  1.00  0.00     0.004 A 
HETATM   29  C8  UNL     1      22.740  -1.149  55.388  1.00  0.00     0.019 A 
HETATM   30  C9  UNL     1      22.350  -0.827  54.111  1.00  0.00     0.013 A 
HETATM   31 BR1  UNL     1      20.474  -0.754  53.764  1.00  0.00    -0.051 Br
HETATM   32  C10 UNL     1      23.262  -0.561  53.102  1.00  0.00     0.048 A 
ENDBRANCH  24  26
ENDBRANCH   3  24
TORSDOF 6
ENDMDL
MODEL 4
REMARK VINA RESULT:      -8.5      2.889      5.122
REMARK  6 active torsions:
REMARK  status: ('A' for Active; 'I' for Inactive)
REMARK       I    between atoms: C1_2  and  N1_3 
REMARK    1  A    between atoms: C1_2  and  C15_21 
REMARK    2  A    between atoms: N1_3  and  C2_4 
REMARK    3  A    between atoms: C4_6  and  N2_7 
REMARK    4  A    between atoms: N2_7  and  C5_8 
REMARK    5  A    between atoms: C16_23  and  C17_24 
REMARK    6  A    between atoms: C17_24  and  N5_25 
ROOT
HETATM    1  C2  UNL     1      27.493   1.624  53.240  1.00  0.00     0.032 A 
HETATM    2  C3  UNL     1      27.572   0.290  53.167  1.00  0.00     0.061 A 
HETATM    3  C4  UNL     1      26.651  -0.645  52.746  1.00  0.00     0.144 A 
HETATM    4  N3  UNL     1      26.943  -1.966  52.741  1.00  0.00    -0.223 NA
HETATM    5  C11 UNL     1      28.161  -2.321  53.161  1.00  0.00     0.236 A 
HETATM    6  N4  UNL     1      29.131  -1.462  53.593  1.00  0.00    -0.241 NA
HETATM    7  C12 UNL     1      28.815  -0.126  53.590  1.00  0.00     0.070 A 
HETATM    8  C13 UNL     1      29.565   0.901  53.952  1.00  0.00     0.012 A 
HETATM    9  C14 UNL     1      28.778   2.160  53.765  1.00  0.00     0.087 A 
ENDROOT
BRANCH   1  10
HETATM   10  N1  UNL     1      26.372   2.465  52.881  1.00  0.00    -0.327 N 
HETATM   11  C1  UNL     1      26.089   2.759  51.504  1.00  0.00     0.253 C 
HETATM   12  O1  UNL     1      26.847   2.255  50.640  1.00  0.00    -0.270 OA
HETATM   13  H1  UNL     1      25.747   2.873  53.609  1.00  0.00     0.168 HD
BRANCH  11  14
HETATM   14  C15 UNL     1      24.907   3.643  51.227  1.00  0.00     0.244 A 
HETATM   15  O2  UNL     1      23.717   2.850  51.728  1.00  0.00    -0.364 OA
HETATM   16  C16 UNL     1      23.837   3.250  50.367  1.00  0.00     0.189 A 
BRANCH  16  17
HETATM   17  C17 UNL     1      22.794   4.312  50.048  1.00  0.00     0.307 C 
BRANCH  17  18
HETATM   18  N5  UNL     1      23.438   5.573  49.872  1.00  0.00     0.091 N 
HETATM   19  C18 UNL     1      23.680   5.903  48.499  1.00  0.00     0.272 C 
HETATM   20  C19 UNL     1      24.618   7.101  48.489  1.00  0.00     0.030 C 
HETATM   21  C20 UNL     1      23.908   8.263  49.135  1.00  0.00     0.003 C 
HETATM   22  C21 UNL     1      23.545   7.898  50.557  1.00  0.00     0.030 C 
HETATM   23  C22 UNL     1      22.758   6.602  50.603  1.00  0.00     0.272 C 
ENDBRANCH  17  18
ENDBRANCH  16  17
ENDBRANCH  11  14
ENDBRANCH   1  10
BRANCH   3  24
HETATM   24  N2  UNL     1      25.339  -0.319  52.307  1.00  0.00    -0.340 N 
HETATM   25  H2  UNL     1      25.045   0.073  51.369  1.00  0.00     0.167 HD
BRANCH  24  26
HETATM   26  C5  UNL     1      24.288  -0.554  53.266  1.00  0.00     0.035 A 
HETATM   27  C6  UNL     1      24.613  -0.950  54.552  1.00  0.00     0.029 A 
HETATM   28  C7  UNL     1      23.669  -1.199  55.532  1.00  0.00     0.004 A 
HETATM   29  C8  UNL     1      22.334  -1.032  55.177  1.00  0.00     0.019 A 
HETATM   30  C9  UNL     1      22.000  -0.639  53.903  1.00  0.00     0.013 A 
HETATM   31 BR1  UNL     1      20.142  -0.438  53.511  1.00  0.00    -0.051 Br
HETATM   32  C10 UNL     1      22.954  -0.393  52.930  1.00  0.00     0.048 A 
ENDBRANCH  24  26
ENDBRANCH   3  24
TORSDOF 6
ENDMDL
MODEL 5
REMARK VINA RESULT:      -8.4      3.402      6.205
REMARK  6 active torsions:
REMARK  status: ('A' for Active; 'I' for Inactive)
REMARK       I    between atoms: C1_2  and  N1_3 
REMARK    1  A    between atoms: C1_2  and  C15_21 
REMARK    2  A    between atoms: N1_3  and  C2_4 
REMARK    3  A    between atoms: C4_6  and  N2_7 
REMARK    4  A    between atoms: N2_7  and  C5_8 
REMARK    5  A    between atoms: C16_23  and  C17_24 
REMARK    6  A    between atoms: C17_24  and  N5_25 
ROOT
HETATM    1  C2  UNL     1      21.980   0.249  52.459  1.00  0.00     0.032 A 
HETATM    2  C3  UNL     1      22.812  -0.252  53.379  1.00  0.00     0.061 A 
HETATM    3  C4  UNL     1      24.186  -0.201  53.474  1.00  0.00     0.144 A 
HETATM    4  N3  UNL     1      24.840  -0.773  54.511  1.00  0.00    -0.223 NA
HETATM    5  C11 UNL     1      24.095  -1.386  55.435  1.00  0.00     0.236 A 
HETATM    6  N4  UNL     1      22.733  -1.482  55.418  1.00  0.00    -0.241 NA
HETATM    7  C12 UNL     1      22.088  -0.896  54.358  1.00  0.00     0.070 A 
HETATM    8  C13 UNL     1      20.791  -0.843  54.107  1.00  0.00     0.012 A 
HETATM    9  C14 UNL     1      20.580  -0.090  52.832  1.00  0.00     0.087 A 
ENDROOT
BRANCH   1  10
HETATM   10  N1  UNL     1      22.323   1.006  51.274  1.00  0.00    -0.327 N 
HETATM   11  C1  UNL     1      22.378   2.440  51.312  1.00  0.00     0.253 C 
HETATM   12  O1  UNL     1      22.124   2.997  52.407  1.00  0.00    -0.270 OA
HETATM   13  H1  UNL     1      22.538   0.530  50.371  1.00  0.00     0.168 HD
BRANCH  11  14
HETATM   14  C15 UNL     1      22.740   3.141  50.034  1.00  0.00     0.244 A 
HETATM   15  O2  UNL     1      24.238   2.951  49.910  1.00  0.00    -0.364 OA
HETATM   16  C16 UNL     1      23.646   4.244  49.990  1.00  0.00     0.189 A 
BRANCH  16  17
HETATM   17  C17 UNL     1      23.786   4.958  48.654  1.00  0.00     0.307 C 
BRANCH  17  18
HETATM   18  N5  UNL     1      24.535   6.159  48.833  1.00  0.00     0.091 N 
HETATM   19  C18 UNL     1      24.136   6.914  49.984  1.00  0.00     0.272 C 
HETATM   20  C19 UNL     1      24.802   8.278  49.872  1.00  0.00     0.030 C 
HETATM   21  C20 UNL     1      26.295   8.083  49.932  1.00  0.00     0.003 C 
HETATM   22  C21 UNL     1      26.728   7.196  48.785  1.00  0.00     0.030 C 
HETATM   23  C22 UNL     1      25.943   5.898  48.773  1.00  0.00     0.272 C 
ENDBRANCH  17  18
ENDBRANCH  16  17
ENDBRANCH  11  14
ENDBRANCH   1  10
BRANCH   3  24
HETATM   24  N2  UNL     1      25.021   0.425  52.509  1.00  0.00    -0.340 N 
HETATM   25  H2  UNL     1      24.767   0.730  51.528  1.00  0.00     0.167 HD
BRANCH  24  26
HETATM   26  C5  UNL     1      26.379   0.670  52.930  1.00  0.00     0.035 A 
HETATM   27  C6  UNL     1      26.778   1.959  53.235  1.00  0.00     0.029 A 
HETATM   28  C7  UNL     1      28.060   2.282  53.645  1.00  0.00     0.004 A 
HETATM   29  C8  UNL     1      28.970   1.234  53.747  1.00  0.00     0.019 A 
HETATM   30  C9  UNL     1      28.584  -0.051  53.447  1.00  0.00     0.013 A 
HETATM   31 BR1  UNL     1      29.904  -1.419  53.615  1.00  0.00    -0.051 Br
HETATM   32  C10 UNL     1      27.298  -0.361  53.037  1.00  0.00     0.048 A 
ENDBRANCH  24  26
ENDBRANCH   3  24
TORSDOF 6
ENDMDL
MODEL 6
REMARK VINA RESULT:      -7.9      2.467      4.017
REMARK  6 active torsions:
REMARK  status: ('A' for Active; 'I' for Inactive)
REMARK       I    between atoms: C1_2  and  N1_3 
REMARK    1  A    between atoms: C1_2  and  C15_21 
REMARK    2  A    between atoms: N1_3  and  C2_4 
REMARK    3  A    between atoms: C4_6  and  N2_7 
REMARK    4  A    between atoms: N2_7  and  C5_8 
REMARK    5  A    between atoms: C16_23  and  C17_24 
REMARK    6  A    between atoms: C17_24  and  N5_25 
ROOT
HETATM    1  C2  UNL     1      22.863  -0.787  53.778  1.00  0.00     0.032 A 
HETATM    2  C3  UNL     1      24.124  -0.342  53.845  1.00  0.00     0.061 A 
HETATM    3  C4  UNL     1      24.853   0.433  52.969  1.00  0.00     0.144 A 
HETATM    4  N3  UNL     1      26.132   0.784  53.239  1.00  0.00    -0.223 NA
HETATM    5  C11 UNL     1      26.652   0.347  54.390  1.00  0.00     0.236 A 
HETATM    6  N4  UNL     1      26.000  -0.422  55.311  1.00  0.00    -0.241 NA
HETATM    7  C12 UNL     1      24.705  -0.768  55.019  1.00  0.00     0.070 A 
HETATM    8  C13 UNL     1      23.861  -1.494  55.734  1.00  0.00     0.012 A 
HETATM    9  C14 UNL     1      22.564  -1.588  54.996  1.00  0.00     0.087 A 
ENDROOT
BRANCH   1  10
HETATM   10  N1  UNL     1      21.899  -0.559  52.723  1.00  0.00    -0.327 N 
HETATM   11  C1  UNL     1      20.792   0.334  52.923  1.00  0.00     0.253 C 
HETATM   12  O1  UNL     1      20.705   0.902  54.039  1.00  0.00    -0.270 OA
HETATM   13  H1  UNL     1      21.987  -1.033  51.799  1.00  0.00     0.168 HD
BRANCH  11  14
HETATM   14  C15 UNL     1      19.842   0.506  51.774  1.00  0.00     0.244 A 
HETATM   15  O2  UNL     1      20.589   1.389  50.794  1.00  0.00    -0.364 OA
HETATM   16  C16 UNL     1      19.347   1.783  51.369  1.00  0.00     0.189 A 
BRANCH  16  17
HETATM   17  C17 UNL     1      18.264   1.786  50.300  1.00  0.00     0.307 C 
BRANCH  17  18
HETATM   18  N5  UNL     1      17.087   2.406  50.817  1.00  0.00     0.091 N 
HETATM   19  C18 UNL     1      16.223   1.500  51.512  1.00  0.00     0.272 C 
HETATM   20  C19 UNL     1      14.905   2.227  51.736  1.00  0.00     0.030 C 
HETATM   21  C20 UNL     1      15.163   3.411  52.631  1.00  0.00     0.003 C 
HETATM   22  C21 UNL     1      16.160   4.333  51.964  1.00  0.00     0.030 C 
HETATM   23  C22 UNL     1      17.417   3.582  51.569  1.00  0.00     0.272 C 
ENDBRANCH  17  18
ENDBRANCH  16  17
ENDBRANCH  11  14
ENDBRANCH   1  10
BRANCH   3  24
HETATM   24  N2  UNL     1      24.350   0.907  51.727  1.00  0.00    -0.340 N 
HETATM   25  H2  UNL     1      24.066   0.339  50.881  1.00  0.00     0.167 HD
BRANCH  24  26
HETATM   26  C5  UNL     1      24.214   2.339  51.620  1.00  0.00     0.035 A 
HETATM   27  C6  UNL     1      23.377   3.013  52.492  1.00  0.00     0.029 A 
HETATM   28  C7  UNL     1      23.187   4.383  52.458  1.00  0.00     0.004 A 
HETATM   29  C8  UNL     1      23.889   5.091  51.487  1.00  0.00     0.019 A 
HETATM   30  C9  UNL     1      24.723   4.432  50.616  1.00  0.00     0.013 A 
HETATM   31 BR1  UNL     1      25.641   5.490  49.319  1.00  0.00    -0.051 Br
HETATM   32  C10 UNL     1      24.905   3.060  50.660  1.00  0.00     0.048 A 
ENDBRANCH  24  26
ENDBRANCH   3  24
TORSDOF 6
ENDMDL
MODEL 7
REMARK VINA RESULT:      -7.9      3.604      7.275
REMARK  6 active torsions:
REMARK  status: ('A' for Active; 'I' for Inactive)
REMARK       I    between atoms: C1_2  and  N1_3 
REMARK    1  A    between atoms: C1_2  and  C15_21 
REMARK    2  A    between atoms: N1_3  and  C2_4 
REMARK    3  A    between atoms: C4_6  and  N2_7 
REMARK    4  A    between atoms: N2_7  and  C5_8 
REMARK    5  A    between atoms: C16_23  and  C17_24 
REMARK    6  A    between atoms: C17_24  and  N5_25 
ROOT
HETATM    1  C2  UNL     1      21.432   4.354  51.022  1.00  0.00     0.032 A 
HETATM    2  C3  UNL     1      21.833   5.580  50.667  1.00  0.00     0.061 A 
HETATM    3  C4  UNL     1      23.061   6.194  50.782  1.00  0.00     0.144 A 
HETATM    4  N3  UNL     1      23.259   7.458  50.340  1.00  0.00    -0.223 NA
HETATM    5  C11 UNL     1      22.212   8.080  49.790  1.00  0.00     0.236 A 
HETATM    6  N4  UNL     1      20.965   7.546  49.637  1.00  0.00    -0.241 NA
HETATM    7  C12 UNL     1      20.785   6.263  50.091  1.00  0.00     0.070 A 
HETATM    8  C13 UNL     1      19.690   5.522  50.062  1.00  0.00     0.012 A 
HETATM    9  C14 UNL     1      19.995   4.191  50.673  1.00  0.00     0.087 A 
ENDROOT
BRANCH   1  10
HETATM   10  N1  UNL     1      22.218   3.311  51.646  1.00  0.00    -0.327 N 
HETATM   11  C1  UNL     1      22.743   2.225  50.867  1.00  0.00     0.253 C 
HETATM   12  O1  UNL     1      22.495   2.226  49.637  1.00  0.00    -0.270 OA
HETATM   13  H1  UNL     1      22.422   3.326  52.668  1.00  0.00     0.168 HD
BRANCH  11  14
HETATM   14  C15 UNL     1      23.545   1.189  51.600  1.00  0.00     0.244 A 
HETATM   15  O2  UNL     1      22.591   0.642  52.644  1.00  0.00    -0.364 OA
HETATM   16  C16 UNL     1      23.817   1.274  53.000  1.00  0.00     0.189 A 
BRANCH  16  17
HETATM   17  C17 UNL     1      24.780   0.243  53.571  1.00  0.00     0.307 C 
BRANCH  17  18
HETATM   18  N5  UNL     1      26.121   0.634  53.279  1.00  0.00     0.091 N 
HETATM   19  C18 UNL     1      26.432   1.967  53.703  1.00  0.00     0.272 C 
HETATM   20  C19 UNL     1      27.766   2.334  53.069  1.00  0.00     0.030 C 
HETATM   21  C20 UNL     1      28.822   1.408  53.615  1.00  0.00     0.003 C 
HETATM   22  C21 UNL     1      28.458  -0.020  53.273  1.00  0.00     0.030 C 
HETATM   23  C22 UNL     1      27.053  -0.352  53.741  1.00  0.00     0.272 C 
ENDBRANCH  17  18
ENDBRANCH  16  17
ENDBRANCH  11  14
ENDBRANCH   1  10
BRANCH   3  24
HETATM   24  N2  UNL     1      24.199   5.580  51.374  1.00  0.00    -0.340 N 
HETATM   25  H2  UNL     1      24.346   5.328  52.390  1.00  0.00     0.167 HD
BRANCH  24  26
HETATM   26  C5  UNL     1      25.277   5.269  50.467  1.00  0.00     0.035 A 
HETATM   27  C6  UNL     1      25.706   3.960  50.340  1.00  0.00     0.029 A 
HETATM   28  C7  UNL     1      26.733   3.574  49.496  1.00  0.00     0.004 A 
HETATM   29  C8  UNL     1      27.344   4.578  48.750  1.00  0.00     0.019 A 
HETATM   30  C9  UNL     1      26.925   5.882  48.868  1.00  0.00     0.013 A 
HETATM   31 BR1  UNL     1      27.825   7.186  47.805  1.00  0.00    -0.051 Br
HETATM   32  C10 UNL     1      25.896   6.255  49.717  1.00  0.00     0.048 A 
ENDBRANCH  24  26
ENDBRANCH   3  24
TORSDOF 6
ENDMDL
MODEL 8
REMARK VINA RESULT:      -7.7      2.164      3.403
REMARK  6 active torsions:
REMARK  status: ('A' for Active; 'I' for Inactive)
REMARK       I    between atoms: C1_2  and  N1_3 
REMARK    1  A    between atoms: C1_2  and  C15_21 
REMARK    2  A    between atoms: N1_3  and  C2_4 
REMARK    3  A    between atoms: C4_6  and  N2_7 
REMARK    4  A    between atoms: N2_7  and  C5_8 
REMARK    5  A    between atoms: C16_23  and  C17_24 
REMARK    6  A    between atoms: C17_24  and  N5_25 
ROOT
HETATM    1  C2  UNL     1      22.923  -0.508  53.824  1.00  0.00     0.032 A 
HETATM    2  C3  UNL     1      24.222  -0.204  53.711  1.00  0.00     0.061 A 
HETATM    3  C4  UNL     1      24.898   0.514  52.749  1.00  0.00     0.144 A 
HETATM    4  N3  UNL     1      26.234   0.717  52.834  1.00  0.00    -0.223 NA
HETATM    5  C11 UNL     1      26.863   0.191  53.888  1.00  0.00     0.236 A 
HETATM    6  N4  UNL     1      26.270  -0.532  54.884  1.00  0.00    -0.241 NA
HETATM    7  C12 UNL     1      24.915  -0.726  54.781  1.00  0.00     0.070 A 
HETATM    8  C13 UNL     1      24.109  -1.379  55.601  1.00  0.00     0.012 A 
HETATM    9  C14 UNL     1      22.716  -1.309  55.060  1.00  0.00     0.087 A 
ENDROOT
BRANCH   1  10
HETATM   10  N1  UNL     1      21.848  -0.144  52.926  1.00  0.00    -0.327 N 
HETATM   11  C1  UNL     1      20.691   0.552  53.413  1.00  0.00     0.253 C 
HETATM   12  O1  UNL     1      20.660   0.831  54.637  1.00  0.00    -0.270 OA
HETATM   13  H1  UNL     1      21.890  -0.377  51.910  1.00  0.00     0.168 HD
BRANCH  11  14
HETATM   14  C15 UNL     1      19.625   0.885  52.409  1.00  0.00     0.244 A 
HETATM   15  O2  UNL     1      19.067  -0.460  51.991  1.00  0.00    -0.364 OA
HETATM   16  C16 UNL     1      19.672   0.427  51.057  1.00  0.00     0.189 A 
BRANCH  16  17
HETATM   17  C17 UNL     1      18.614   0.981  50.113  1.00  0.00     0.307 C 
BRANCH  17  18
HETATM   18  N5  UNL     1      19.217   1.918  49.221  1.00  0.00     0.091 N 
HETATM   19  C18 UNL     1      18.996   3.284  49.593  1.00  0.00     0.272 C 
HETATM   20  C19 UNL     1      19.430   4.141  48.413  1.00  0.00     0.030 C 
HETATM   21  C20 UNL     1      20.908   3.943  48.202  1.00  0.00     0.003 C 
HETATM   22  C21 UNL     1      21.181   2.483  47.914  1.00  0.00     0.030 C 
HETATM   23  C22 UNL     1      20.595   1.596  48.996  1.00  0.00     0.272 C 
ENDBRANCH  17  18
ENDBRANCH  16  17
ENDBRANCH  11  14
ENDBRANCH   1  10
BRANCH   3  24
HETATM   24  N2  UNL     1      24.277   1.078  51.602  1.00  0.00    -0.340 N 
HETATM   25  H2  UNL     1      23.873   0.572  50.766  1.00  0.00     0.167 HD
BRANCH  24  26
HETATM   26  C5  UNL     1      24.193   2.518  51.588  1.00  0.00     0.035 A 
HETATM   27  C6  UNL     1      23.538   3.174  52.615  1.00  0.00     0.029 A 
HETATM   28  C7  UNL     1      23.409   4.550  52.680  1.00  0.00     0.004 A 
HETATM   29  C8  UNL     1      23.980   5.284  51.644  1.00  0.00     0.019 A 
HETATM   30  C9  UNL     1      24.633   4.643  50.618  1.00  0.00     0.013 A 
HETATM   31 BR1  UNL     1      25.381   5.735  49.243  1.00  0.00    -0.051 Br
HETATM   32  C10 UNL     1      24.755   3.264  50.566  1.00  0.00     0.048 A 
ENDBRANCH  24  26
ENDBRANCH   3  24
TORSDOF 6
ENDMDL
MODEL 9
REMARK VINA RESULT:      -7.7      3.079      6.086
REMARK  6 active torsions:
REMARK  status: ('A' for Active; 'I' for Inactive)
REMARK       I    between atoms: C1_2  and  N1_3 
REMARK    1  A    between atoms: C1_2  and  C15_21 
REMARK    2  A    between atoms: N1_3  and  C2_4 
REMARK    3  A    between atoms: C4_6  and  N2_7 
REMARK    4  A    between atoms: N2_7  and  C5_8 
REMARK    5  A    between atoms: C16_23  and  C17_24 
REMARK    6  A    between atoms: C17_24  and  N5_25 
ROOT
HETATM    1  C2  UNL     1      24.696   0.048  53.192  1.00  0.00     0.032 A 
HETATM    2  C3  UNL     1      23.497  -0.432  53.545  1.00  0.00     0.061 A 
HETATM    3  C4  UNL     1      22.289  -0.413  52.882  1.00  0.00     0.144 A 
HETATM    4  N3  UNL     1      21.183  -0.975  53.421  1.00  0.00    -0.223 NA
HETATM    5  C11 UNL     1      21.316  -1.548  54.621  1.00  0.00     0.236 A 
HETATM    6  N4  UNL     1      22.472  -1.611  55.344  1.00  0.00    -0.241 NA
HETATM    7  C12 UNL     1      23.583  -1.035  54.780  1.00  0.00     0.070 A 
HETATM    8  C13 UNL     1      24.812  -0.962  55.264  1.00  0.00     0.012 A 
HETATM    9  C14 UNL     1      25.674  -0.240  54.277  1.00  0.00     0.087 A 
ENDROOT
BRANCH   1  10
HETATM   10  N1  UNL     1      25.048   0.740  51.972  1.00  0.00    -0.327 N 
HETATM   11  C1  UNL     1      25.008   2.174  51.905  1.00  0.00     0.253 C 
HETATM   12  O1  UNL     1      24.662   2.789  52.943  1.00  0.00    -0.270 OA
HETATM   13  H1  UNL     1      25.339   0.216  51.118  1.00  0.00     0.168 HD
BRANCH  11  14
HETATM   14  C15 UNL     1      25.387   2.804  50.596  1.00  0.00     0.244 A 
HETATM   15  O2  UNL     1      26.881   3.036  50.708  1.00  0.00    -0.364 OA
HETATM   16  C16 UNL     1      25.965   4.108  50.509  1.00  0.00     0.189 A 
BRANCH  16  17
HETATM   17  C17 UNL     1      26.141   4.682  49.110  1.00  0.00     0.307 C 
BRANCH  17  18
HETATM   18  N5  UNL     1      25.377   5.882  48.990  1.00  0.00     0.091 N 
HETATM   19  C18 UNL     1      24.030   5.660  48.557  1.00  0.00     0.272 C 
HETATM   20  C19 UNL     1      23.450   7.020  48.195  1.00  0.00     0.030 C 
HETATM   21  C20 UNL     1      23.411   7.865  49.442  1.00  0.00     0.003 C 
HETATM   22  C21 UNL     1      24.816   8.025  49.981  1.00  0.00     0.030 C 
HETATM   23  C22 UNL     1      25.479   6.675  50.180  1.00  0.00     0.272 C 
ENDBRANCH  17  18
ENDBRANCH  16  17
ENDBRANCH  11  14
ENDBRANCH   1  10
BRANCH   3  24
HETATM   24  N2  UNL     1      22.095   0.198  51.612  1.00  0.00    -0.340 N 
HETATM   25  H2  UNL     1      22.601  -0.009  50.707  1.00  0.00     0.167 HD
BRANCH  24  26
HETATM   26  C5  UNL     1      21.081   1.222  51.567  1.00  0.00     0.035 A 
HETATM   27  C6  UNL     1      21.277   2.409  52.251  1.00  0.00     0.029 A 
HETATM   28  C7  UNL     1      20.356   3.441  52.263  1.00  0.00     0.004 A 
HETATM   29  C8  UNL     1      19.183   3.247  51.539  1.00  0.00     0.019 A 
HETATM   30  C9  UNL     1      18.978   2.072  50.855  1.00  0.00     0.013 A 
HETATM   31 BR1  UNL     1      17.339   1.898  49.893  1.00  0.00    -0.051 Br
HETATM   32  C10 UNL     1      19.908   1.045  50.851  1.00  0.00     0.048 A 
ENDBRANCH  24  26
ENDBRANCH   3  24
TORSDOF 6
ENDMDL
