MODEL 1
REMARK VINA RESULT:      -8.5      0.000      0.000
REMARK  6 active torsions:
REMARK  status: ('A' for Active; 'I' for Inactive)
REMARK       I    between atoms: C2_2  and  N1_4 
REMARK    1  A    between atoms: N1_4  and  C3_5 
REMARK    2  A    between atoms: C6_8  and  N2_9 
REMARK    3  A    between atoms: N2_9  and  C7_10 
REMARK    4  A    between atoms: N3_11  and  N4_12 
REMARK    5  A    between atoms: C15_21  and  N6_22 
REMARK    6  A    between atoms: C18_25  and  N7_26 
ROOT
HETATM    1  N4  UNL     1      27.920  -0.826  53.725  1.00  0.00    -0.234 N 
HETATM    2  C8  UNL     1      28.406  -2.042  53.365  1.00  0.00     0.119 A 
HETATM    3  C9  UNL     1      29.768  -1.967  53.181  1.00  0.00     0.022 A 
HETATM    4  C10 UNL     1      30.141  -0.665  53.435  1.00  0.00     0.044 A 
HETATM    5  C11 UNL     1      28.977   0.001  53.765  1.00  0.00     0.137 A 
HETATM    6  C12 UNL     1      28.904   1.392  54.107  1.00  0.00     0.119 C 
HETATM    7  N5  UNL     1      28.854   2.522  54.374  1.00  0.00    -0.190 NA
ENDROOT
BRANCH   1   8
HETATM    8  N3  UNL     1      26.565  -0.588  53.982  1.00  0.00    -0.162 NA
HETATM    9  C7  UNL     1      25.697  -0.862  53.053  1.00  0.00     0.230 C 
BRANCH   9  10
HETATM   10  N2  UNL     1      24.353  -0.603  53.366  1.00  0.00    -0.353 N 
HETATM   11  H8  UNL     1      23.794  -1.247  53.971  1.00  0.00     0.166 HD
BRANCH  10  12
HETATM   12  C6  UNL     1      23.575   0.505  52.945  1.00  0.00     0.013 C 
HETATM   13  C5  UNL     1      22.237   0.641  53.569  1.00  0.00     0.086 C 
HETATM   14  C4  UNL     1      21.199   1.139  52.661  1.00  0.00     0.011 C 
HETATM   15  C3  UNL     1      21.202   2.066  51.687  1.00  0.00     0.058 C 
HETATM   16  C15 UNL     1      22.334   2.868  51.247  1.00  0.00     0.058 C 
HETATM   17  C14 UNL     1      23.610   2.484  51.418  1.00  0.00     0.034 C 
HETATM   18  C13 UNL     1      24.170   1.282  52.029  1.00  0.00     0.027 C 
BRANCH  15  19
HETATM   19  N1  UNL     1      19.973   2.270  51.015  1.00  0.00    -0.326 N 
HETATM   20  C2  UNL     1      18.707   2.912  51.028  1.00  0.00     0.218 C 
HETATM   21  C1  UNL     1      17.724   2.736  49.935  1.00  0.00     0.117 C 
HETATM   22  O1  UNL     1      18.459   3.634  52.004  1.00  0.00    -0.274 OA
HETATM   23  H4  UNL     1      20.118   1.671  50.144  1.00  0.00     0.169 HD
ENDBRANCH  15  19
BRANCH  16  24
HETATM   24  N6  UNL     1      22.143   4.151  50.589  1.00  0.00    -0.358 N 
HETATM   25  C16 UNL     1      22.181   4.121  49.152  1.00  0.00     0.127 C 
HETATM   26  C17 UNL     1      23.155   4.892  48.383  1.00  0.00     0.055 C 
HETATM   27  C18 UNL     1      22.965   6.308  48.039  1.00  0.00     0.223 C 
HETATM   28  C21 UNL     1      22.701   7.394  48.953  1.00  0.00     0.038 C 
HETATM   29  C22 UNL     1      23.634   7.669  50.117  1.00  0.00     0.028 C 
HETATM   30  C23 UNL     1      23.561   6.424  51.008  1.00  0.00     0.170 C 
HETATM   31  O2  UNL     1      22.173   6.354  51.294  1.00  0.00    -0.372 OA
HETATM   32  C24 UNL     1      21.898   5.048  51.736  1.00  0.00     0.293 C 
BRANCH  27  33
HETATM   33  N7  UNL     1      21.806   6.314  47.077  1.00  0.00     0.084 N 
HETATM   34  C19 UNL     1      21.067   7.551  47.194  1.00  0.00     0.309 C 
HETATM   35  C20 UNL     1      22.313   6.297  45.721  1.00  0.00     0.309 C 
ENDBRANCH  27  33
ENDBRANCH  16  24
ENDBRANCH  10  12
ENDBRANCH   9  10
ENDBRANCH   1   8
TORSDOF 6
ENDMDL
MODEL 2
REMARK VINA RESULT:      -8.3      2.062      2.482
REMARK  6 active torsions:
REMARK  status: ('A' for Active; 'I' for Inactive)
REMARK       I    between atoms: C2_2  and  N1_4 
REMARK    1  A    between atoms: N1_4  and  C3_5 
REMARK    2  A    between atoms: C6_8  and  N2_9 
REMARK    3  A    between atoms: N2_9  and  C7_10 
REMARK    4  A    between atoms: N3_11  and  N4_12 
REMARK    5  A    between atoms: C15_21  and  N6_22 
REMARK    6  A    between atoms: C18_25  and  N7_26 
ROOT
HETATM    1  N4  UNL     1      27.556  -0.779  53.175  1.00  0.00    -0.234 N 
HETATM    2  C8  UNL     1      28.057  -2.034  53.030  1.00  0.00     0.119 A 
HETATM    3  C9  UNL     1      29.406  -2.034  53.302  1.00  0.00     0.022 A 
HETATM    4  C10 UNL     1      29.755  -0.742  53.629  1.00  0.00     0.044 A 
HETATM    5  C11 UNL     1      28.591  -0.005  53.538  1.00  0.00     0.137 A 
HETATM    6  C12 UNL     1      28.496   1.403  53.797  1.00  0.00     0.119 C 
HETATM    7  N5  UNL     1      28.432   2.546  54.001  1.00  0.00    -0.190 NA
ENDROOT
BRANCH   1   8
HETATM    8  N3  UNL     1      26.209  -0.463  52.965  1.00  0.00    -0.162 NA
HETATM    9  C7  UNL     1      25.431  -0.335  53.999  1.00  0.00     0.230 C 
BRANCH   9  10
HETATM   10  N2  UNL     1      24.090  -0.019  53.729  1.00  0.00    -0.353 N 
HETATM   11  H8  UNL     1      23.300  -0.557  54.154  1.00  0.00     0.166 HD
BRANCH  10  12
HETATM   12  C6  UNL     1      23.608   1.018  52.890  1.00  0.00     0.013 C 
HETATM   13  C5  UNL     1      22.423   0.691  52.059  1.00  0.00     0.086 C 
HETATM   14  C4  UNL     1      22.440   1.298  50.726  1.00  0.00     0.011 C 
HETATM   15  C3  UNL     1      22.837   2.500  50.271  1.00  0.00     0.058 C 
HETATM   16  C15 UNL     1      23.408   3.586  51.054  1.00  0.00     0.058 C 
HETATM   17  C14 UNL     1      24.037   3.388  52.224  1.00  0.00     0.034 C 
HETATM   18  C13 UNL     1      24.303   2.161  52.968  1.00  0.00     0.027 C 
BRANCH  15  19
HETATM   19  N1  UNL     1      22.693   2.721  48.880  1.00  0.00    -0.326 N 
HETATM   20  C2  UNL     1      21.821   2.701  47.760  1.00  0.00     0.218 C 
HETATM   21  C1  UNL     1      22.276   3.073  46.402  1.00  0.00     0.117 C 
HETATM   22  O1  UNL     1      20.650   2.354  47.973  1.00  0.00    -0.274 OA
HETATM   23  H4  UNL     1      23.681   3.033  48.622  1.00  0.00     0.169 HD
ENDBRANCH  15  19
BRANCH  16  24
HETATM   24  N6  UNL     1      23.324   4.967  50.607  1.00  0.00    -0.358 N 
HETATM   25  C16 UNL     1      21.993   5.492  50.463  1.00  0.00     0.127 C 
HETATM   26  C17 UNL     1      21.488   5.996  49.188  1.00  0.00     0.055 C 
HETATM   27  C18 UNL     1      21.744   7.362  48.710  1.00  0.00     0.223 C 
HETATM   28  C21 UNL     1      23.030   7.998  48.549  1.00  0.00     0.038 C 
HETATM   29  C22 UNL     1      24.106   7.359  47.693  1.00  0.00     0.028 C 
HETATM   30  C23 UNL     1      24.446   6.031  48.380  1.00  0.00     0.170 C 
HETATM   31  O2  UNL     1      24.822   6.464  49.676  1.00  0.00    -0.372 OA
HETATM   32  C24 UNL     1      24.747   5.350  50.532  1.00  0.00     0.293 C 
BRANCH  27  33
HETATM   33  N7  UNL     1      20.984   8.248  49.662  1.00  0.00     0.084 N 
HETATM   34  C19 UNL     1      21.182   9.637  49.317  1.00  0.00     0.309 C 
HETATM   35  C20 UNL     1      19.565   8.011  49.503  1.00  0.00     0.309 C 
ENDBRANCH  27  33
ENDBRANCH  16  24
ENDBRANCH  10  12
ENDBRANCH   9  10
ENDBRANCH   1   8
TORSDOF 6
ENDMDL
MODEL 3
REMARK VINA RESULT:      -8.3      4.222      8.453
REMARK  6 active torsions:
REMARK  status: ('A' for Active; 'I' for Inactive)
REMARK       I    between atoms: C2_2  and  N1_4 
REMARK    1  A    between atoms: N1_4  and  C3_5 
REMARK    2  A    between atoms: C6_8  and  N2_9 
REMARK    3  A    between atoms: N2_9  and  C7_10 
REMARK    4  A    between atoms: N3_11  and  N4_12 
REMARK    5  A    between atoms: C15_21  and  N6_22 
REMARK    6  A    between atoms: C18_25  and  N7_26 
ROOT
HETATM    1  N4  UNL     1      28.509  10.388  49.282  1.00  0.00    -0.234 N 
HETATM    2  C8  UNL     1      29.579   9.551  49.264  1.00  0.00     0.119 A 
HETATM    3  C9  UNL     1      30.727  10.263  48.998  1.00  0.00     0.022 A 
HETATM    4  C10 UNL     1      30.361  11.583  48.847  1.00  0.00     0.044 A 
HETATM    5  C11 UNL     1      28.992  11.615  49.029  1.00  0.00     0.137 A 
HETATM    6  C12 UNL     1      28.189  12.802  48.959  1.00  0.00     0.119 C 
HETATM    7  N5  UNL     1      27.546  13.768  48.891  1.00  0.00    -0.190 NA
ENDROOT
BRANCH   1   8
HETATM    8  N3  UNL     1      27.202   9.954  49.527  1.00  0.00    -0.162 NA
HETATM    9  C7  UNL     1      27.023   8.760  50.011  1.00  0.00     0.230 C 
BRANCH   9  10
HETATM   10  N2  UNL     1      25.690   8.378  50.237  1.00  0.00    -0.353 N 
HETATM   11  H8  UNL     1      24.909   9.074  50.233  1.00  0.00     0.166 HD
BRANCH  10  12
HETATM   12  C6  UNL     1      25.207   7.069  50.490  1.00  0.00     0.013 C 
HETATM   13  C5  UNL     1      25.838   5.976  49.711  1.00  0.00     0.086 C 
HETATM   14  C4  UNL     1      24.912   4.911  49.315  1.00  0.00     0.011 C 
HETATM   15  C3  UNL     1      23.879   4.316  49.938  1.00  0.00     0.058 C 
HETATM   16  C15 UNL     1      23.374   4.612  51.270  1.00  0.00     0.058 C 
HETATM   17  C14 UNL     1      23.555   5.801  51.870  1.00  0.00     0.034 C 
HETATM   18  C13 UNL     1      24.236   7.007  51.411  1.00  0.00     0.027 C 
BRANCH  15  19
HETATM   19  N1  UNL     1      23.211   3.302  49.211  1.00  0.00    -0.326 N 
HETATM   20  C2  UNL     1      22.482   2.967  48.039  1.00  0.00     0.218 C 
HETATM   21  C1  UNL     1      21.980   1.597  47.790  1.00  0.00     0.117 C 
HETATM   22  O1  UNL     1      22.284   3.882  47.227  1.00  0.00    -0.274 OA
HETATM   23  H4  UNL     1      23.347   2.465  49.860  1.00  0.00     0.169 HD
ENDBRANCH  15  19
BRANCH  16  24
HETATM   24  N6  UNL     1      22.636   3.622  52.038  1.00  0.00    -0.358 N 
HETATM   25  C16 UNL     1      23.383   2.456  52.425  1.00  0.00     0.127 C 
HETATM   26  C17 UNL     1      22.992   1.109  52.017  1.00  0.00     0.055 C 
HETATM   27  C18 UNL     1      21.981   0.318  52.731  1.00  0.00     0.223 C 
HETATM   28  C21 UNL     1      20.626   0.711  53.033  1.00  0.00     0.038 C 
HETATM   29  C22 UNL     1      19.685   1.152  51.929  1.00  0.00     0.028 C 
HETATM   30  C23 UNL     1      20.306   2.425  51.341  1.00  0.00     0.170 C 
HETATM   31  O2  UNL     1      20.395   3.257  52.485  1.00  0.00    -0.372 OA
HETATM   32  C24 UNL     1      21.322   4.275  52.194  1.00  0.00     0.293 C 
BRANCH  27  33
HETATM   33  N7  UNL     1      22.609   0.015  54.067  1.00  0.00     0.084 N 
HETATM   34  C19 UNL     1      21.702  -0.763  54.879  1.00  0.00     0.309 C 
HETATM   35  C20 UNL     1      23.768  -0.830  53.868  1.00  0.00     0.309 C 
ENDBRANCH  27  33
ENDBRANCH  16  24
ENDBRANCH  10  12
ENDBRANCH   9  10
ENDBRANCH   1   8
TORSDOF 6
ENDMDL
MODEL 4
REMARK VINA RESULT:      -8.2      5.410      7.341
REMARK  6 active torsions:
REMARK  status: ('A' for Active; 'I' for Inactive)
REMARK       I    between atoms: C2_2  and  N1_4 
REMARK    1  A    between atoms: N1_4  and  C3_5 
REMARK    2  A    between atoms: C6_8  and  N2_9 
REMARK    3  A    between atoms: N2_9  and  C7_10 
REMARK    4  A    between atoms: N3_11  and  N4_12 
REMARK    5  A    between atoms: C15_21  and  N6_22 
REMARK    6  A    between atoms: C18_25  and  N7_26 
ROOT
HETATM    1  N4  UNL     1      26.881   1.161  52.503  1.00  0.00    -0.234 N 
HETATM    2  C8  UNL     1      26.274   0.039  52.035  1.00  0.00     0.119 A 
HETATM    3  C9  UNL     1      26.877  -1.077  52.570  1.00  0.00     0.022 A 
HETATM    4  C10 UNL     1      27.888  -0.637  53.396  1.00  0.00     0.044 A 
HETATM    5  C11 UNL     1      27.856   0.742  53.326  1.00  0.00     0.137 A 
HETATM    6  C12 UNL     1      28.745   1.615  54.037  1.00  0.00     0.119 C 
HETATM    7  N5  UNL     1      29.476   2.313  54.611  1.00  0.00    -0.190 NA
ENDROOT
BRANCH   1   8
HETATM    8  N3  UNL     1      26.488   2.453  52.137  1.00  0.00    -0.162 NA
HETATM    9  C7  UNL     1      25.499   2.591  51.304  1.00  0.00     0.230 C 
BRANCH   9  10
HETATM   10  N2  UNL     1      25.148   3.909  50.972  1.00  0.00    -0.353 N 
HETATM   11  H8  UNL     1      24.351   4.401  51.438  1.00  0.00     0.166 HD
BRANCH  10  12
HETATM   12  C6  UNL     1      25.774   4.745  50.014  1.00  0.00     0.013 C 
HETATM   13  C5  UNL     1      26.589   4.061  48.980  1.00  0.00     0.086 C 
HETATM   14  C4  UNL     1      27.799   4.790  48.590  1.00  0.00     0.011 C 
HETATM   15  C3  UNL     1      28.062   6.096  48.403  1.00  0.00     0.058 C 
HETATM   16  C15 UNL     1      27.135   7.206  48.564  1.00  0.00     0.058 C 
HETATM   17  C14 UNL     1      26.048   7.139  49.351  1.00  0.00     0.034 C 
HETATM   18  C13 UNL     1      25.537   6.053  50.182  1.00  0.00     0.027 C 
BRANCH  15  19
HETATM   19  N1  UNL     1      29.386   6.418  48.021  1.00  0.00    -0.326 N 
HETATM   20  C2  UNL     1      30.769   6.295  48.316  1.00  0.00     0.218 C 
HETATM   21  C1  UNL     1      31.813   6.910  47.465  1.00  0.00     0.117 C 
HETATM   22  O1  UNL     1      31.067   5.643  49.327  1.00  0.00    -0.274 OA
HETATM   23  H4  UNL     1      29.207   6.987  47.135  1.00  0.00     0.169 HD
ENDBRANCH  15  19
BRANCH  16  24
HETATM   24  N6  UNL     1      27.336   8.467  47.870  1.00  0.00    -0.358 N 
HETATM   25  C16 UNL     1      27.112   8.435  46.450  1.00  0.00     0.127 C 
HETATM   26  C17 UNL     1      28.158   8.776  45.488  1.00  0.00     0.055 C 
HETATM   27  C18 UNL     1      28.464  10.158  45.095  1.00  0.00     0.223 C 
HETATM   28  C21 UNL     1      28.794  11.257  45.972  1.00  0.00     0.038 C 
HETATM   29  C22 UNL     1      29.946  11.144  46.951  1.00  0.00     0.028 C 
HETATM   30  C23 UNL     1      29.560  10.018  47.917  1.00  0.00     0.170 C 
HETATM   31  O2  UNL     1      28.322  10.485  48.426  1.00  0.00    -0.372 OA
HETATM   32  C24 UNL     1      27.652   9.382  48.984  1.00  0.00     0.293 C 
BRANCH  27  33
HETATM   33  N7  UNL     1      27.248  10.616  44.333  1.00  0.00     0.084 N 
HETATM   34  C19 UNL     1      26.791  11.890  44.842  1.00  0.00     0.309 C 
HETATM   35  C20 UNL     1      27.614  10.862  42.955  1.00  0.00     0.309 C 
ENDBRANCH  27  33
ENDBRANCH  16  24
ENDBRANCH  10  12
ENDBRANCH   9  10
ENDBRANCH   1   8
TORSDOF 6
ENDMDL
MODEL 5
REMARK VINA RESULT:      -8.1      7.036      9.256
REMARK  6 active torsions:
REMARK  status: ('A' for Active; 'I' for Inactive)
REMARK       I    between atoms: C2_2  and  N1_4 
REMARK    1  A    between atoms: N1_4  and  C3_5 
REMARK    2  A    between atoms: C6_8  and  N2_9 
REMARK    3  A    between atoms: N2_9  and  C7_10 
REMARK    4  A    between atoms: N3_11  and  N4_12 
REMARK    5  A    between atoms: C15_21  and  N6_22 
REMARK    6  A    between atoms: C18_25  and  N7_26 
ROOT
HETATM    1  N4  UNL     1      25.601   2.039  51.707  1.00  0.00    -0.234 N 
HETATM    2  C8  UNL     1      24.389   1.449  51.878  1.00  0.00     0.119 A 
HETATM    3  C9  UNL     1      24.361   0.776  53.078  1.00  0.00     0.022 A 
HETATM    4  C10 UNL     1      25.591   0.953  53.672  1.00  0.00     0.044 A 
HETATM    5  C11 UNL     1      26.321   1.733  52.798  1.00  0.00     0.137 A 
HETATM    6  C12 UNL     1      27.671   2.163  53.022  1.00  0.00     0.119 C 
HETATM    7  N5  UNL     1      28.768   2.499  53.209  1.00  0.00    -0.190 NA
ENDROOT
BRANCH   1   8
HETATM    8  N3  UNL     1      25.930   2.797  50.578  1.00  0.00    -0.162 NA
HETATM    9  C7  UNL     1      25.204   3.837  50.292  1.00  0.00     0.230 C 
BRANCH   9  10
HETATM   10  N2  UNL     1      25.581   4.559  49.148  1.00  0.00    -0.353 N 
HETATM   11  H8  UNL     1      25.074   4.455  48.239  1.00  0.00     0.166 HD
BRANCH  10  12
HETATM   12  C6  UNL     1      26.642   5.493  49.037  1.00  0.00     0.013 C 
HETATM   13  C5  UNL     1      26.362   6.864  49.528  1.00  0.00     0.086 C 
HETATM   14  C4  UNL     1      26.986   7.925  48.732  1.00  0.00     0.011 C 
HETATM   15  C3  UNL     1      28.181   8.032  48.124  1.00  0.00     0.058 C 
HETATM   16  C15 UNL     1      29.239   7.033  48.093  1.00  0.00     0.058 C 
HETATM   17  C14 UNL     1      29.007   5.721  48.260  1.00  0.00     0.034 C 
HETATM   18  C13 UNL     1      27.762   4.995  48.496  1.00  0.00     0.027 C 
BRANCH  15  19
HETATM   19  N1  UNL     1      28.423   9.244  47.433  1.00  0.00    -0.326 N 
HETATM   20  C2  UNL     1      28.731  10.625  47.534  1.00  0.00     0.218 C 
HETATM   21  C1  UNL     1      28.881  11.488  46.340  1.00  0.00     0.117 C 
HETATM   22  O1  UNL     1      28.870  11.082  48.677  1.00  0.00    -0.274 OA
HETATM   23  H4  UNL     1      28.323   8.921  46.420  1.00  0.00     0.169 HD
ENDBRANCH  15  19
BRANCH  16  24
HETATM   24  N6  UNL     1      30.627   7.407  47.879  1.00  0.00    -0.358 N 
HETATM   25  C16 UNL     1      31.067   7.399  46.509  1.00  0.00     0.127 C 
HETATM   26  C17 UNL     1      32.166   6.553  46.049  1.00  0.00     0.055 C 
HETATM   27  C18 UNL     1      33.579   6.937  46.176  1.00  0.00     0.223 C 
HETATM   28  C21 UNL     1      34.268   7.321  47.384  1.00  0.00     0.038 C 
HETATM   29  C22 UNL     1      34.276   6.407  48.594  1.00  0.00     0.028 C 
HETATM   30  C23 UNL     1      32.812   6.294  49.036  1.00  0.00     0.170 C 
HETATM   31  O2  UNL     1      32.471   7.653  49.255  1.00  0.00    -0.372 OA
HETATM   32  C24 UNL     1      31.067   7.742  49.247  1.00  0.00     0.293 C 
BRANCH  27  33
HETATM   33  N7  UNL     1      33.740   8.108  45.242  1.00  0.00     0.084 N 
HETATM   34  C19 UNL     1      34.696   9.049  45.782  1.00  0.00     0.309 C 
HETATM   35  C20 UNL     1      34.316   7.648  43.996  1.00  0.00     0.309 C 
ENDBRANCH  27  33
ENDBRANCH  16  24
ENDBRANCH  10  12
ENDBRANCH   9  10
ENDBRANCH   1   8
TORSDOF 6
ENDMDL
MODEL 6
REMARK VINA RESULT:      -8.0      4.231      6.226
REMARK  6 active torsions:
REMARK  status: ('A' for Active; 'I' for Inactive)
REMARK       I    between atoms: C2_2  and  N1_4 
REMARK    1  A    between atoms: N1_4  and  C3_5 
REMARK    2  A    between atoms: C6_8  and  N2_9 
REMARK    3  A    between atoms: N2_9  and  C7_10 
REMARK    4  A    between atoms: N3_11  and  N4_12 
REMARK    5  A    between atoms: C15_21  and  N6_22 
REMARK    6  A    between atoms: C18_25  and  N7_26 
ROOT
HETATM    1  N4  UNL     1      27.762   0.891  52.931  1.00  0.00    -0.234 N 
HETATM    2  C8  UNL     1      28.526   1.648  53.761  1.00  0.00     0.119 A 
HETATM    3  C9  UNL     1      29.231   0.835  54.621  1.00  0.00     0.022 A 
HETATM    4  C10 UNL     1      28.896  -0.466  54.316  1.00  0.00     0.044 A 
HETATM    5  C11 UNL     1      27.993  -0.386  53.274  1.00  0.00     0.137 A 
HETATM    6  C12 UNL     1      27.380  -1.518  52.640  1.00  0.00     0.119 C 
HETATM    7  N5  UNL     1      26.882  -2.441  52.138  1.00  0.00    -0.190 NA
ENDROOT
BRANCH   1   8
HETATM    8  N3  UNL     1      26.933   1.436  51.945  1.00  0.00    -0.162 NA
HETATM    9  C7  UNL     1      25.836   2.031  52.313  1.00  0.00     0.230 C 
BRANCH   9  10
HETATM   10  N2  UNL     1      25.043   2.558  51.281  1.00  0.00    -0.353 N 
HETATM   11  H8  UNL     1      24.100   2.164  51.054  1.00  0.00     0.166 HD
BRANCH  10  12
HETATM   12  C6  UNL     1      25.361   3.644  50.427  1.00  0.00     0.013 C 
HETATM   13  C5  UNL     1      26.262   3.340  49.288  1.00  0.00     0.086 C 
HETATM   14  C4  UNL     1      27.206   4.414  48.968  1.00  0.00     0.011 C 
HETATM   15  C3  UNL     1      27.098   5.755  48.951  1.00  0.00     0.058 C 
HETATM   16  C15 UNL     1      25.920   6.541  49.286  1.00  0.00     0.058 C 
HETATM   17  C14 UNL     1      24.943   6.084  50.086  1.00  0.00     0.034 C 
HETATM   18  C13 UNL     1      24.794   4.807  50.776  1.00  0.00     0.027 C 
BRANCH  15  19
HETATM   19  N1  UNL     1      28.262   6.470  48.579  1.00  0.00    -0.326 N 
HETATM   20  C2  UNL     1      29.674   6.447  48.438  1.00  0.00     0.218 C 
HETATM   21  C1  UNL     1      30.435   7.618  47.948  1.00  0.00     0.117 C 
HETATM   22  O1  UNL     1      30.247   5.392  48.746  1.00  0.00    -0.274 OA
HETATM   23  H4  UNL     1      27.838   7.407  48.291  1.00  0.00     0.169 HD
ENDBRANCH  15  19
BRANCH  16  24
HETATM   24  N6  UNL     1      25.733   7.884  48.762  1.00  0.00    -0.358 N 
HETATM   25  C16 UNL     1      25.461   7.967  47.352  1.00  0.00     0.127 C 
HETATM   26  C17 UNL     1      26.326   8.704  46.434  1.00  0.00     0.055 C 
HETATM   27  C18 UNL     1      26.220  10.154  46.224  1.00  0.00     0.223 C 
HETATM   28  C21 UNL     1      26.275  11.183  47.236  1.00  0.00     0.038 C 
HETATM   29  C22 UNL     1      27.458  11.277  48.180  1.00  0.00     0.028 C 
HETATM   30  C23 UNL     1      27.443   9.976  48.991  1.00  0.00     0.170 C 
HETATM   31  O2  UNL     1      26.149  10.012  49.570  1.00  0.00    -0.372 OA
HETATM   32  C24 UNL     1      25.835   8.705  49.984  1.00  0.00     0.293 C 
BRANCH  27  33
HETATM   33  N7  UNL     1      24.891  10.345  45.542  1.00  0.00     0.084 N 
HETATM   34  C19 UNL     1      24.092  11.307  46.266  1.00  0.00     0.309 C 
HETATM   35  C20 UNL     1      25.106  10.929  44.235  1.00  0.00     0.309 C 
ENDBRANCH  27  33
ENDBRANCH  16  24
ENDBRANCH  10  12
ENDBRANCH   9  10
ENDBRANCH   1   8
TORSDOF 6
ENDMDL
MODEL 7
REMARK VINA RESULT:      -7.8      2.590      3.791
REMARK  6 active torsions:
REMARK  status: ('A' for Active; 'I' for Inactive)
REMARK       I    between atoms: C2_2  and  N1_4 
REMARK    1  A    between atoms: N1_4  and  C3_5 
REMARK    2  A    between atoms: C6_8  and  N2_9 
REMARK    3  A    between atoms: N2_9  and  C7_10 
REMARK    4  A    between atoms: N3_11  and  N4_12 
REMARK    5  A    between atoms: C15_21  and  N6_22 
REMARK    6  A    between atoms: C18_25  and  N7_26 
ROOT
HETATM    1  N4  UNL     1      27.580  -0.515  52.819  1.00  0.00    -0.234 N 
HETATM    2  C8  UNL     1      27.695  -1.851  52.601  1.00  0.00     0.119 A 
HETATM    3  C9  UNL     1      28.853  -2.322  53.175  1.00  0.00     0.022 A 
HETATM    4  C10 UNL     1      29.478  -1.248  53.770  1.00  0.00     0.044 A 
HETATM    5  C11 UNL     1      28.664  -0.159  53.527  1.00  0.00     0.137 A 
HETATM    6  C12 UNL     1      28.938   1.177  53.972  1.00  0.00     0.119 C 
HETATM    7  N5  UNL     1      29.172   2.258  54.330  1.00  0.00    -0.190 NA
ENDROOT
BRANCH   1   8
HETATM    8  N3  UNL     1      26.504   0.248  52.354  1.00  0.00    -0.162 NA
HETATM    9  C7  UNL     1      25.430   0.319  53.084  1.00  0.00     0.230 C 
BRANCH   9  10
HETATM   10  N2  UNL     1      24.381   1.097  52.568  1.00  0.00    -0.353 N 
HETATM   11  H8  UNL     1      23.409   0.721  52.475  1.00  0.00     0.166 HD
BRANCH  10  12
HETATM   12  C6  UNL     1      24.454   2.439  52.115  1.00  0.00     0.013 C 
HETATM   13  C5  UNL     1      24.067   3.483  53.094  1.00  0.00     0.086 C 
HETATM   14  C4  UNL     1      23.354   4.621  52.507  1.00  0.00     0.011 C 
HETATM   15  C3  UNL     1      23.497   5.293  51.350  1.00  0.00     0.058 C 
HETATM   16  C15 UNL     1      24.469   5.030  50.300  1.00  0.00     0.058 C 
HETATM   17  C14 UNL     1      25.040   3.827  50.121  1.00  0.00     0.034 C 
HETATM   18  C13 UNL     1      24.870   2.573  50.848  1.00  0.00     0.027 C 
BRANCH  15  19
HETATM   19  N1  UNL     1      22.594   6.362  51.134  1.00  0.00    -0.326 N 
HETATM   20  C2  UNL     1      21.298   6.751  50.703  1.00  0.00     0.218 C 
HETATM   21  C1  UNL     1      20.864   8.166  50.695  1.00  0.00     0.117 C 
HETATM   22  O1  UNL     1      20.539   5.845  50.332  1.00  0.00    -0.274 OA
HETATM   23  H4  UNL     1      23.188   7.193  51.443  1.00  0.00     0.169 HD
ENDBRANCH  15  19
BRANCH  16  24
HETATM   24  N6  UNL     1      24.884   6.071  49.374  1.00  0.00    -0.358 N 
HETATM   25  C16 UNL     1      25.912   6.954  49.855  1.00  0.00     0.127 C 
HETATM   26  C17 UNL     1      25.708   8.396  49.972  1.00  0.00     0.055 C 
HETATM   27  C18 UNL     1      25.873   9.322  48.843  1.00  0.00     0.223 C 
HETATM   28  C21 UNL     1      25.220   9.248  47.558  1.00  0.00     0.038 C 
HETATM   29  C22 UNL     1      23.708   9.198  47.461  1.00  0.00     0.028 C 
HETATM   30  C23 UNL     1      23.292   7.893  48.150  1.00  0.00     0.170 C 
HETATM   31  O2  UNL     1      24.020   6.930  47.407  1.00  0.00    -0.372 OA
HETATM   32  C24 UNL     1      24.077   5.756  48.179  1.00  0.00     0.293 C 
BRANCH  27  33
HETATM   33  N7  UNL     1      27.348   9.289  48.536  1.00  0.00     0.084 N 
HETATM   34  C19 UNL     1      27.635  10.108  47.381  1.00  0.00     0.309 C 
HETATM   35  C20 UNL     1      28.075   9.899  49.630  1.00  0.00     0.309 C 
ENDBRANCH  27  33
ENDBRANCH  16  24
ENDBRANCH  10  12
ENDBRANCH   9  10
ENDBRANCH   1   8
TORSDOF 6
ENDMDL
MODEL 8
REMARK VINA RESULT:      -7.7      2.511      3.321
REMARK  6 active torsions:
REMARK  status: ('A' for Active; 'I' for Inactive)
REMARK       I    between atoms: C2_2  and  N1_4 
REMARK    1  A    between atoms: N1_4  and  C3_5 
REMARK    2  A    between atoms: C6_8  and  N2_9 
REMARK    3  A    between atoms: N2_9  and  C7_10 
REMARK    4  A    between atoms: N3_11  and  N4_12 
REMARK    5  A    between atoms: C15_21  and  N6_22 
REMARK    6  A    between atoms: C18_25  and  N7_26 
ROOT
HETATM    1  N4  UNL     1      27.058   0.838  54.044  1.00  0.00    -0.234 N 
HETATM    2  C8  UNL     1      28.061   0.448  54.873  1.00  0.00     0.119 A 
HETATM    3  C9  UNL     1      29.255   0.987  54.451  1.00  0.00     0.022 A 
HETATM    4  C10 UNL     1      28.988   1.736  53.327  1.00  0.00     0.044 A 
HETATM    5  C11 UNL     1      27.629   1.618  53.112  1.00  0.00     0.137 A 
HETATM    6  C12 UNL     1      26.917   2.244  52.035  1.00  0.00     0.119 C 
HETATM    7  N5  UNL     1      26.351   2.750  51.155  1.00  0.00    -0.190 NA
ENDROOT
BRANCH   1   8
HETATM    8  N3  UNL     1      25.726   0.449  54.218  1.00  0.00    -0.162 NA
HETATM    9  C7  UNL     1      25.411  -0.798  54.026  1.00  0.00     0.230 C 
BRANCH   9  10
HETATM   10  N2  UNL     1      24.060  -1.132  54.214  1.00  0.00    -0.353 N 
HETATM   11  H8  UNL     1      23.772  -1.991  54.736  1.00  0.00     0.166 HD
BRANCH  10  12
HETATM   12  C6  UNL     1      22.930  -0.407  53.760  1.00  0.00     0.013 C 
HETATM   13  C5  UNL     1      21.740  -0.426  54.647  1.00  0.00     0.086 C 
HETATM   14  C4  UNL     1      20.461  -0.467  53.933  1.00  0.00     0.011 C 
HETATM   15  C3  UNL     1      20.021   0.122  52.806  1.00  0.00     0.058 C 
HETATM   16  C15 UNL     1      20.771   1.014  51.935  1.00  0.00     0.058 C 
HETATM   17  C14 UNL     1      22.113   1.011  51.871  1.00  0.00     0.034 C 
HETATM   18  C13 UNL     1      23.100   0.200  52.578  1.00  0.00     0.027 C 
BRANCH  15  19
HETATM   19  N1  UNL     1      18.689  -0.172  52.428  1.00  0.00    -0.326 N 
HETATM   20  C2  UNL     1      17.572  -1.033  52.590  1.00  0.00     0.218 C 
HETATM   21  C1  UNL     1      16.305  -0.826  51.853  1.00  0.00     0.117 C 
HETATM   22  O1  UNL     1      17.706  -1.975  53.385  1.00  0.00    -0.274 OA
HETATM   23  H4  UNL     1      18.498   0.617  51.734  1.00  0.00     0.169 HD
ENDBRANCH  15  19
BRANCH  16  24
HETATM   24  N6  UNL     1      20.099   1.975  51.076  1.00  0.00    -0.358 N 
HETATM   25  C16 UNL     1      19.975   1.591  49.696  1.00  0.00     0.127 C 
HETATM   26  C17 UNL     1      20.549   2.384  48.611  1.00  0.00     0.055 C 
HETATM   27  C18 UNL     1      19.872   3.549  48.026  1.00  0.00     0.223 C 
HETATM   28  C21 UNL     1      19.380   4.710  48.729  1.00  0.00     0.038 C 
HETATM   29  C22 UNL     1      20.305   5.529  49.609  1.00  0.00     0.028 C 
HETATM   30  C23 UNL     1      20.744   4.587  50.736  1.00  0.00     0.170 C 
HETATM   31  O2  UNL     1      19.498   4.199  51.290  1.00  0.00    -0.372 OA
HETATM   32  C24 UNL     1      19.715   3.027  52.037  1.00  0.00     0.293 C 
BRANCH  27  33
HETATM   33  N7  UNL     1      18.668   2.977  47.324  1.00  0.00     0.084 N 
HETATM   34  C19 UNL     1      17.460   3.600  47.817  1.00  0.00     0.309 C 
HETATM   35  C20 UNL     1      18.730   3.318  45.918  1.00  0.00     0.309 C 
ENDBRANCH  27  33
ENDBRANCH  16  24
ENDBRANCH  10  12
ENDBRANCH   9  10
ENDBRANCH   1   8
TORSDOF 6
ENDMDL
MODEL 9
REMARK VINA RESULT:      -7.6      4.337      8.388
REMARK  6 active torsions:
REMARK  status: ('A' for Active; 'I' for Inactive)
REMARK       I    between atoms: C2_2  and  N1_4 
REMARK    1  A    between atoms: N1_4  and  C3_5 
REMARK    2  A    between atoms: C6_8  and  N2_9 
REMARK    3  A    between atoms: N2_9  and  C7_10 
REMARK    4  A    between atoms: N3_11  and  N4_12 
REMARK    5  A    between atoms: C15_21  and  N6_22 
REMARK    6  A    between atoms: C18_25  and  N7_26 
ROOT
HETATM    1  N4  UNL     1      28.415  10.695  49.263  1.00  0.00    -0.234 N 
HETATM    2  C8  UNL     1      29.544   9.941  49.284  1.00  0.00     0.119 A 
HETATM    3  C9  UNL     1      30.618  10.692  48.863  1.00  0.00     0.022 A 
HETATM    4  C10 UNL     1      30.143  11.952  48.573  1.00  0.00     0.044 A 
HETATM    5  C11 UNL     1      28.787  11.911  48.832  1.00  0.00     0.137 A 
HETATM    6  C12 UNL     1      27.892  13.019  48.663  1.00  0.00     0.119 C 
HETATM    7  N5  UNL     1      27.173  13.921  48.516  1.00  0.00    -0.190 NA
ENDROOT
BRANCH   1   8
HETATM    8  N3  UNL     1      27.159  10.205  49.638  1.00  0.00    -0.162 NA
HETATM    9  C7  UNL     1      27.076   8.990  50.094  1.00  0.00     0.230 C 
BRANCH   9  10
HETATM   10  N2  UNL     1      25.792   8.551  50.455  1.00  0.00    -0.353 N 
HETATM   11  H8  UNL     1      25.132   9.160  50.991  1.00  0.00     0.166 HD
BRANCH  10  12
HETATM   12  C6  UNL     1      25.208   7.291  50.171  1.00  0.00     0.013 C 
HETATM   13  C5  UNL     1      25.456   6.744  48.815  1.00  0.00     0.086 C 
HETATM   14  C4  UNL     1      24.317   6.020  48.243  1.00  0.00     0.011 C 
HETATM   15  C3  UNL     1      23.404   5.185  48.771  1.00  0.00     0.058 C 
HETATM   16  C15 UNL     1      23.303   4.765  50.161  1.00  0.00     0.058 C 
HETATM   17  C14 UNL     1      23.799   5.489  51.178  1.00  0.00     0.034 C 
HETATM   18  C13 UNL     1      24.505   6.767  51.185  1.00  0.00     0.027 C 
BRANCH  15  19
HETATM   19  N1  UNL     1      22.434   4.673  47.876  1.00  0.00    -0.326 N 
HETATM   20  C2  UNL     1      21.968   3.546  47.150  1.00  0.00     0.218 C 
HETATM   21  C1  UNL     1      20.771   3.610  46.280  1.00  0.00     0.117 C 
HETATM   22  O1  UNL     1      22.613   2.496  47.278  1.00  0.00    -0.274 OA
HETATM   23  H4  UNL     1      21.827   5.538  47.721  1.00  0.00     0.169 HD
ENDBRANCH  15  19
BRANCH  16  24
HETATM   24  N6  UNL     1      22.652   3.519  50.531  1.00  0.00    -0.358 N 
HETATM   25  C16 UNL     1      21.229   3.595  50.717  1.00  0.00     0.127 C 
HETATM   26  C17 UNL     1      20.590   3.255  51.987  1.00  0.00     0.055 C 
HETATM   27  C18 UNL     1      20.254   1.877  52.370  1.00  0.00     0.223 C 
HETATM   28  C21 UNL     1      21.152   0.748  52.422  1.00  0.00     0.038 C 
HETATM   29  C22 UNL     1      22.420   0.806  53.253  1.00  0.00     0.028 C 
HETATM   30  C23 UNL     1      23.273   1.915  52.627  1.00  0.00     0.170 C 
HETATM   31  O2  UNL     1      23.397   1.464  51.289  1.00  0.00    -0.372 OA
HETATM   32  C24 UNL     1      23.780   2.567  50.505  1.00  0.00     0.293 C 
BRANCH  27  33
HETATM   33  N7  UNL     1      19.166   1.469  51.411  1.00  0.00     0.084 N 
HETATM   34  C19 UNL     1      18.687   0.144  51.735  1.00  0.00     0.309 C 
HETATM   35  C20 UNL     1      18.026   2.344  51.585  1.00  0.00     0.309 C 
ENDBRANCH  27  33
ENDBRANCH  16  24
ENDBRANCH  10  12
ENDBRANCH   9  10
ENDBRANCH   1   8
TORSDOF 6
ENDMDL
