MODEL 1
REMARK VINA RESULT:      -8.1      0.000      0.000
REMARK  6 active torsions:
REMARK  status: ('A' for Active; 'I' for Inactive)
REMARK    1  A    between atoms: C6_6  and  N1_7 
REMARK    2  A    between atoms: C9_11  and  C10_12 
REMARK    3  A    between atoms: C10_12  and  C11_13 
REMARK    4  A    between atoms: C11_13  and  C12_14 
REMARK    5  A    between atoms: C12_14  and  C13_15 
REMARK    6  A    between atoms: C15_18  and  O2_19 
ROOT
HETATM    1  N1  UNL     1      25.759   1.038  52.598  1.00  0.00    -0.268 N 
HETATM    2  C7  UNL     1      26.351   2.319  52.412  1.00  0.00     0.221 C 
HETATM    3  N2  UNL     1      26.166   2.144  51.144  1.00  0.00    -0.279 NA
HETATM    4  C8  UNL     1      26.618   3.246  50.277  1.00  0.00     0.184 C 
HETATM    5  C9  UNL     1      25.453   4.193  50.083  1.00  0.00    -0.055 C 
HETATM    6  C16 UNL     1      24.907   3.306  50.845  1.00  0.00     0.066 C 
HETATM    7  C17 UNL     1      23.575   3.236  51.363  1.00  0.00     0.115 C 
HETATM    8  P1  UNL     1      23.230   1.953  52.303  1.00  0.00    -0.047 P 
HETATM    9  N3  UNL     1      24.422   0.712  52.673  1.00  0.00    -0.213 NA
HETATM   10  H19 UNL     1      24.262   0.330  53.637  1.00  0.00     0.151 HD
ENDROOT
BRANCH   5  11
HETATM   11  C10 UNL     1      25.857   5.272  49.251  1.00  0.00     0.005 C 
BRANCH  11  12
HETATM   12  C11 UNL     1      26.378   6.247  48.619  1.00  0.00     0.003 C 
BRANCH  12  13
HETATM   13  C12 UNL     1      27.587   6.978  48.773  1.00  0.00     0.035 C 
BRANCH  13  14
HETATM   14  C13 UNL     1      27.122   8.138  49.150  1.00  0.00     0.077 C 
HETATM   15  O1  UNL     1      25.865   8.686  49.140  1.00  0.00    -0.350 OA
HETATM   16  C14 UNL     1      26.474   9.985  49.038  1.00  0.00     0.214 C 
HETATM   17  C15 UNL     1      27.646   9.384  49.742  1.00  0.00     0.199 C 
BRANCH  17  18
HETATM   18  O2  UNL     1      27.534   9.341  51.126  1.00  0.00    -0.387 OA
HETATM   19  H16 UNL     1      26.892  10.059  51.388  1.00  0.00     0.210 HD
ENDBRANCH  17  18
ENDBRANCH  13  14
ENDBRANCH  12  13
ENDBRANCH  11  12
ENDBRANCH   5  11
BRANCH   1  20
HETATM   20  C6  UNL     1      26.673  -0.022  52.719  1.00  0.00     0.053 A 
HETATM   21  C5  UNL     1      26.335  -1.312  52.385  1.00  0.00     0.031 A 
HETATM   22  C4  UNL     1      27.215  -2.383  52.493  1.00  0.00     0.003 A 
HETATM   23  C3  UNL     1      28.498  -2.179  52.953  1.00  0.00     0.007 A 
HETATM   24  C2  UNL     1      28.893  -0.905  53.302  1.00  0.00    -0.060 A 
HETATM   25  C1  UNL     1      30.260  -0.621  53.803  1.00  0.00     0.048 C 
HETATM   26  C18 UNL     1      27.973   0.117  53.173  1.00  0.00     0.038 A 
ENDBRANCH   1  20
TORSDOF 6
ENDMDL
MODEL 2
REMARK VINA RESULT:      -8.0      3.238      7.500
REMARK  6 active torsions:
REMARK  status: ('A' for Active; 'I' for Inactive)
REMARK    1  A    between atoms: C6_6  and  N1_7 
REMARK    2  A    between atoms: C9_11  and  C10_12 
REMARK    3  A    between atoms: C10_12  and  C11_13 
REMARK    4  A    between atoms: C11_13  and  C12_14 
REMARK    5  A    between atoms: C12_14  and  C13_15 
REMARK    6  A    between atoms: C15_18  and  O2_19 
ROOT
HETATM    1  N1  UNL     1      25.518   4.288  49.138  1.00  0.00    -0.268 N 
HETATM    2  C7  UNL     1      26.076   3.054  49.578  1.00  0.00     0.221 C 
HETATM    3  N2  UNL     1      25.879   3.475  50.784  1.00  0.00    -0.279 NA
HETATM    4  C8  UNL     1      26.292   2.552  51.856  1.00  0.00     0.184 C 
HETATM    5  C9  UNL     1      25.101   1.686  52.209  1.00  0.00    -0.055 C 
HETATM    6  C16 UNL     1      24.588   2.420  51.280  1.00  0.00     0.066 C 
HETATM    7  C17 UNL     1      23.264   2.418  50.736  1.00  0.00     0.115 C 
HETATM    8  P1  UNL     1      22.964   3.502  49.560  1.00  0.00    -0.047 P 
HETATM    9  N3  UNL     1      24.190   4.622  48.978  1.00  0.00    -0.213 NA
HETATM   10  H19 UNL     1      24.052   4.813  47.956  1.00  0.00     0.151 HD
ENDROOT
BRANCH   5  11
HETATM   11  C10 UNL     1      25.468   0.779  53.240  1.00  0.00     0.005 C 
BRANCH  11  12
HETATM   12  C11 UNL     1      25.965  -0.050  54.068  1.00  0.00     0.003 C 
BRANCH  12  13
HETATM   13  C12 UNL     1      26.985   0.044  55.053  1.00  0.00     0.035 C 
BRANCH  13  14
HETATM   14  C13 UNL     1      28.051  -0.087  54.312  1.00  0.00     0.077 C 
HETATM   15  O1  UNL     1      28.393  -0.968  53.318  1.00  0.00    -0.350 OA
HETATM   16  C14 UNL     1      29.773  -0.770  53.671  1.00  0.00     0.214 C 
HETATM   17  C15 UNL     1      29.357   0.581  54.151  1.00  0.00     0.199 C 
BRANCH  17  18
HETATM   18  O2  UNL     1      29.280   1.551  53.160  1.00  0.00    -0.387 OA
HETATM   19  H16 UNL     1      28.713   1.177  52.429  1.00  0.00     0.210 HD
ENDBRANCH  17  18
ENDBRANCH  13  14
ENDBRANCH  12  13
ENDBRANCH  11  12
ENDBRANCH   5  11
BRANCH   1  20
HETATM   20  C6  UNL     1      26.459   5.284  48.830  1.00  0.00     0.053 A 
HETATM   21  C5  UNL     1      26.119   6.615  48.789  1.00  0.00     0.031 A 
HETATM   22  C4  UNL     1      27.025   7.626  48.489  1.00  0.00     0.003 A 
HETATM   23  C3  UNL     1      28.339   7.315  48.214  1.00  0.00     0.007 A 
HETATM   24  C2  UNL     1      28.739   5.995  48.241  1.00  0.00    -0.060 A 
HETATM   25  C1  UNL     1      30.138   5.597  47.954  1.00  0.00     0.048 C 
HETATM   26  C18 UNL     1      27.791   5.038  48.545  1.00  0.00     0.038 A 
ENDBRANCH   1  20
TORSDOF 6
ENDMDL
MODEL 3
REMARK VINA RESULT:      -8.0      3.057      4.067
REMARK  6 active torsions:
REMARK  status: ('A' for Active; 'I' for Inactive)
REMARK    1  A    between atoms: C6_6  and  N1_7 
REMARK    2  A    between atoms: C9_11  and  C10_12 
REMARK    3  A    between atoms: C10_12  and  C11_13 
REMARK    4  A    between atoms: C11_13  and  C12_14 
REMARK    5  A    between atoms: C12_14  and  C13_15 
REMARK    6  A    between atoms: C15_18  and  O2_19 
ROOT
HETATM    1  N1  UNL     1      23.352   3.030  51.178  1.00  0.00    -0.268 N 
HETATM    2  C7  UNL     1      24.552   3.766  51.394  1.00  0.00     0.221 C 
HETATM    3  N2  UNL     1      24.990   3.240  50.297  1.00  0.00    -0.279 NA
HETATM    4  C8  UNL     1      26.351   3.641  49.898  1.00  0.00     0.184 C 
HETATM    5  C9  UNL     1      26.235   4.855  49.001  1.00  0.00    -0.055 C 
HETATM    6  C16 UNL     1      24.989   4.634  49.256  1.00  0.00     0.066 C 
HETATM    7  C17 UNL     1      23.824   5.339  48.816  1.00  0.00     0.115 C 
HETATM    8  P1  UNL     1      22.393   4.769  49.341  1.00  0.00    -0.047 P 
HETATM    9  N3  UNL     1      22.269   3.365  50.395  1.00  0.00    -0.213 NA
HETATM   10  H19 UNL     1      21.452   3.469  51.044  1.00  0.00     0.151 HD
ENDROOT
BRANCH   5  11
HETATM   11  C10 UNL     1      27.533   5.270  48.600  1.00  0.00     0.005 C 
BRANCH  11  12
HETATM   12  C11 UNL     1      28.640   5.820  48.296  1.00  0.00     0.003 C 
BRANCH  12  13
HETATM   13  C12 UNL     1      29.916   5.313  47.926  1.00  0.00     0.035 C 
BRANCH  13  14
HETATM   14  C13 UNL     1      30.692   6.026  48.696  1.00  0.00     0.077 C 
HETATM   15  O1  UNL     1      30.686   7.349  49.057  1.00  0.00    -0.350 OA
HETATM   16  C14 UNL     1      32.111   7.267  49.233  1.00  0.00     0.214 C 
HETATM   17  C15 UNL     1      31.895   5.819  49.525  1.00  0.00     0.199 C 
BRANCH  17  18
HETATM   18  O2  UNL     1      31.531   5.538  50.835  1.00  0.00    -0.387 OA
HETATM   19  H16 UNL     1      31.466   6.411  51.313  1.00  0.00     0.210 HD
ENDBRANCH  17  18
ENDBRANCH  13  14
ENDBRANCH  12  13
ENDBRANCH  11  12
ENDBRANCH   5  11
BRANCH   1  20
HETATM   20  C6  UNL     1      23.281   1.805  51.861  1.00  0.00     0.053 A 
HETATM   21  C5  UNL     1      22.183   0.984  51.764  1.00  0.00     0.031 A 
HETATM   22  C4  UNL     1      22.080  -0.234  52.425  1.00  0.00     0.003 A 
HETATM   23  C3  UNL     1      23.111  -0.673  53.228  1.00  0.00     0.007 A 
HETATM   24  C2  UNL     1      24.238   0.109  53.363  1.00  0.00    -0.060 A 
HETATM   25  C1  UNL     1      25.381  -0.307  54.211  1.00  0.00     0.048 C 
HETATM   26  C18 UNL     1      24.280   1.309  52.680  1.00  0.00     0.038 A 
ENDBRANCH   1  20
TORSDOF 6
ENDMDL
MODEL 4
REMARK VINA RESULT:      -7.6      3.808      7.896
REMARK  6 active torsions:
REMARK  status: ('A' for Active; 'I' for Inactive)
REMARK    1  A    between atoms: C6_6  and  N1_7 
REMARK    2  A    between atoms: C9_11  and  C10_12 
REMARK    3  A    between atoms: C10_12  and  C11_13 
REMARK    4  A    between atoms: C11_13  and  C12_14 
REMARK    5  A    between atoms: C12_14  and  C13_15 
REMARK    6  A    between atoms: C15_18  and  O2_19 
ROOT
HETATM    1  N1  UNL     1      25.228   5.106  49.401  1.00  0.00    -0.268 N 
HETATM    2  C7  UNL     1      25.073   3.691  49.400  1.00  0.00     0.221 C 
HETATM    3  N2  UNL     1      25.471   3.715  50.630  1.00  0.00    -0.279 NA
HETATM    4  C8  UNL     1      25.542   2.406  51.302  1.00  0.00     0.184 C 
HETATM    5  C9  UNL     1      24.211   2.156  51.978  1.00  0.00    -0.055 C 
HETATM    6  C16 UNL     1      23.990   3.312  51.449  1.00  0.00     0.066 C 
HETATM    7  C17 UNL     1      22.817   4.131  51.490  1.00  0.00     0.115 C 
HETATM    8  P1  UNL     1      22.897   5.551  50.701  1.00  0.00    -0.047 P 
HETATM    9  N3  UNL     1      24.343   6.068  49.838  1.00  0.00    -0.213 NA
HETATM   10  H19 UNL     1      24.080   6.636  48.997  1.00  0.00     0.151 HD
ENDROOT
BRANCH   5  11
HETATM   11  C10 UNL     1      24.246   0.897  52.635  1.00  0.00     0.005 C 
BRANCH  11  12
HETATM   12  C11 UNL     1      24.468  -0.230  53.185  1.00  0.00     0.003 C 
BRANCH  12  13
HETATM   13  C12 UNL     1      25.116  -0.620  54.388  1.00  0.00     0.035 C 
BRANCH  13  14
HETATM   14  C13 UNL     1      26.340  -0.776  53.965  1.00  0.00     0.077 C 
HETATM   15  O1  UNL     1      27.561  -0.489  54.520  1.00  0.00    -0.350 OA
HETATM   16  C14 UNL     1      28.087  -0.341  53.190  1.00  0.00     0.214 C 
HETATM   17  C15 UNL     1      27.023  -1.298  52.766  1.00  0.00     0.199 C 
BRANCH  17  18
HETATM   18  O2  UNL     1      27.342  -2.638  52.942  1.00  0.00    -0.387 OA
HETATM   19  H16 UNL     1      28.301  -2.745  52.686  1.00  0.00     0.210 HD
ENDBRANCH  17  18
ENDBRANCH  13  14
ENDBRANCH  12  13
ENDBRANCH  11  12
ENDBRANCH   5  11
BRANCH   1  20
HETATM   20  C6  UNL     1      26.451   5.565  48.885  1.00  0.00     0.053 A 
HETATM   21  C5  UNL     1      27.541   4.738  48.758  1.00  0.00     0.031 A 
HETATM   22  C4  UNL     1      28.764   5.159  48.251  1.00  0.00     0.003 A 
HETATM   23  C3  UNL     1      28.930   6.467  47.846  1.00  0.00     0.007 A 
HETATM   24  C2  UNL     1      27.871   7.343  47.950  1.00  0.00    -0.060 A 
HETATM   25  C1  UNL     1      27.986   8.761  47.531  1.00  0.00     0.048 C 
HETATM   26  C18 UNL     1      26.681   6.863  48.462  1.00  0.00     0.038 A 
ENDBRANCH   1  20
TORSDOF 6
ENDMDL
MODEL 5
REMARK VINA RESULT:      -7.5      2.895      4.196
REMARK  6 active torsions:
REMARK  status: ('A' for Active; 'I' for Inactive)
REMARK    1  A    between atoms: C6_6  and  N1_7 
REMARK    2  A    between atoms: C9_11  and  C10_12 
REMARK    3  A    between atoms: C10_12  and  C11_13 
REMARK    4  A    between atoms: C11_13  and  C12_14 
REMARK    5  A    between atoms: C12_14  and  C13_15 
REMARK    6  A    between atoms: C15_18  and  O2_19 
ROOT
HETATM    1  N1  UNL     1      25.199   0.036  53.430  1.00  0.00    -0.268 N 
HETATM    2  C7  UNL     1      25.397   0.274  52.040  1.00  0.00     0.221 C 
HETATM    3  N2  UNL     1      25.197   1.525  52.297  1.00  0.00    -0.279 NA
HETATM    4  C8  UNL     1      25.272   2.433  51.139  1.00  0.00     0.184 C 
HETATM    5  C9  UNL     1      26.701   2.921  51.023  1.00  0.00    -0.055 C 
HETATM    6  C16 UNL     1      26.799   2.157  52.058  1.00  0.00     0.066 C 
HETATM    7  C17 UNL     1      27.939   1.855  52.870  1.00  0.00     0.115 C 
HETATM    8  P1  UNL     1      27.691   0.838  54.115  1.00  0.00    -0.047 P 
HETATM    9  N3  UNL     1      26.112   0.138  54.458  1.00  0.00    -0.213 NA
HETATM   10  H19 UNL     1      26.222  -0.826  54.857  1.00  0.00     0.151 HD
ENDROOT
BRANCH   5  11
HETATM   11  C10 UNL     1      26.809   3.798  49.910  1.00  0.00     0.005 C 
BRANCH  11  12
HETATM   12  C11 UNL     1      27.061   4.478  48.864  1.00  0.00     0.003 C 
BRANCH  12  13
HETATM   13  C12 UNL     1      27.302   5.859  48.628  1.00  0.00     0.035 C 
BRANCH  13  14
HETATM   14  C13 UNL     1      26.140   6.364  48.942  1.00  0.00     0.077 C 
HETATM   15  O1  UNL     1      24.880   6.194  48.427  1.00  0.00    -0.350 OA
HETATM   16  C14 UNL     1      24.559   7.522  48.876  1.00  0.00     0.214 C 
HETATM   17  C15 UNL     1      25.592   7.310  49.933  1.00  0.00     0.199 C 
BRANCH  17  18
HETATM   18  O2  UNL     1      25.144   6.623  51.054  1.00  0.00    -0.387 OA
HETATM   19  H16 UNL     1      24.625   7.273  51.605  1.00  0.00     0.210 HD
ENDBRANCH  17  18
ENDBRANCH  13  14
ENDBRANCH  12  13
ENDBRANCH  11  12
ENDBRANCH   5  11
BRANCH   1  20
HETATM   20  C6  UNL     1      23.897  -0.354  53.782  1.00  0.00     0.053 A 
HETATM   21  C5  UNL     1      23.645  -1.120  54.896  1.00  0.00     0.031 A 
HETATM   22  C4  UNL     1      22.370  -1.522  55.273  1.00  0.00     0.003 A 
HETATM   23  C3  UNL     1      21.278  -1.154  54.516  1.00  0.00     0.007 A 
HETATM   24  C2  UNL     1      21.469  -0.385  53.388  1.00  0.00    -0.060 A 
HETATM   25  C1  UNL     1      20.336   0.043  52.533  1.00  0.00     0.048 C 
HETATM   26  C18 UNL     1      22.761  -0.018  53.066  1.00  0.00     0.038 A 
ENDBRANCH   1  20
TORSDOF 6
ENDMDL
MODEL 6
REMARK VINA RESULT:      -7.4      1.387      2.091
REMARK  6 active torsions:
REMARK  status: ('A' for Active; 'I' for Inactive)
REMARK    1  A    between atoms: C6_6  and  N1_7 
REMARK    2  A    between atoms: C9_11  and  C10_12 
REMARK    3  A    between atoms: C10_12  and  C11_13 
REMARK    4  A    between atoms: C11_13  and  C12_14 
REMARK    5  A    between atoms: C12_14  and  C13_15 
REMARK    6  A    between atoms: C15_18  and  O2_19 
ROOT
HETATM    1  N1  UNL     1      25.605   1.036  53.195  1.00  0.00    -0.268 N 
HETATM    2  C7  UNL     1      25.469   2.439  52.996  1.00  0.00     0.221 C 
HETATM    3  N2  UNL     1      25.460   2.188  51.728  1.00  0.00    -0.279 NA
HETATM    4  C8  UNL     1      25.327   3.362  50.848  1.00  0.00     0.184 C 
HETATM    5  C9  UNL     1      23.853   3.580  50.581  1.00  0.00    -0.055 C 
HETATM    6  C16 UNL     1      23.801   2.542  51.347  1.00  0.00     0.066 C 
HETATM    7  C17 UNL     1      22.668   1.803  51.814  1.00  0.00     0.115 C 
HETATM    8  P1  UNL     1      22.981   0.529  52.776  1.00  0.00    -0.047 P 
HETATM    9  N3  UNL     1      24.620   0.073  53.228  1.00  0.00    -0.213 NA
HETATM   10  H19 UNL     1      24.630  -0.333  54.195  1.00  0.00     0.151 HD
ENDROOT
BRANCH   5  11
HETATM   11  C10 UNL     1      23.689   4.710  49.736  1.00  0.00     0.005 C 
BRANCH  11  12
HETATM   12  C11 UNL     1      23.555   5.828  49.142  1.00  0.00     0.003 C 
BRANCH  12  13
HETATM   13  C12 UNL     1      24.342   6.530  48.189  1.00  0.00     0.035 C 
BRANCH  13  14
HETATM   14  C13 UNL     1      24.835   7.480  48.936  1.00  0.00     0.077 C 
HETATM   15  O1  UNL     1      24.300   8.635  49.449  1.00  0.00    -0.350 OA
HETATM   16  C14 UNL     1      25.621   9.204  49.438  1.00  0.00     0.214 C 
HETATM   17  C15 UNL     1      26.121   7.805  49.581  1.00  0.00     0.199 C 
BRANCH  17  18
HETATM   18  O2  UNL     1      26.139   7.325  50.884  1.00  0.00    -0.387 OA
HETATM   19  H16 UNL     1      25.469   7.854  51.399  1.00  0.00     0.210 HD
ENDBRANCH  17  18
ENDBRANCH  13  14
ENDBRANCH  12  13
ENDBRANCH  11  12
ENDBRANCH   5  11
BRANCH   1  20
HETATM   20  C6  UNL     1      26.925   0.593  53.382  1.00  0.00     0.053 A 
HETATM   21  C5  UNL     1      27.924   1.442  53.793  1.00  0.00     0.031 A 
HETATM   22  C4  UNL     1      29.239   1.037  53.988  1.00  0.00     0.003 A 
HETATM   23  C3  UNL     1      29.596  -0.277  53.768  1.00  0.00     0.007 A 
HETATM   24  C2  UNL     1      28.635  -1.175  53.355  1.00  0.00    -0.060 A 
HETATM   25  C1  UNL     1      28.956  -2.601  53.102  1.00  0.00     0.048 C 
HETATM   26  C18 UNL     1      27.347  -0.710  53.178  1.00  0.00     0.038 A 
ENDBRANCH   1  20
TORSDOF 6
ENDMDL
MODEL 7
REMARK VINA RESULT:      -7.1      5.960      9.253
REMARK  6 active torsions:
REMARK  status: ('A' for Active; 'I' for Inactive)
REMARK    1  A    between atoms: C6_6  and  N1_7 
REMARK    2  A    between atoms: C9_11  and  C10_12 
REMARK    3  A    between atoms: C10_12  and  C11_13 
REMARK    4  A    between atoms: C11_13  and  C12_14 
REMARK    5  A    between atoms: C12_14  and  C13_15 
REMARK    6  A    between atoms: C15_18  and  O2_19 
ROOT
HETATM    1  N1  UNL     1      24.848   2.270  51.992  1.00  0.00    -0.268 N 
HETATM    2  C7  UNL     1      23.531   2.491  52.484  1.00  0.00     0.221 C 
HETATM    3  N2  UNL     1      23.134   1.625  51.610  1.00  0.00    -0.279 NA
HETATM    4  C8  UNL     1      21.685   1.357  51.592  1.00  0.00     0.184 C 
HETATM    5  C9  UNL     1      21.415   0.196  52.525  1.00  0.00    -0.055 C 
HETATM    6  C16 UNL     1      22.695   0.302  52.650  1.00  0.00     0.066 C 
HETATM    7  C17 UNL     1      23.605  -0.462  53.448  1.00  0.00     0.115 C 
HETATM    8  P1  UNL     1      25.175  -0.044  53.355  1.00  0.00    -0.047 P 
HETATM    9  N3  UNL     1      25.738   1.275  52.334  1.00  0.00    -0.213 NA
HETATM   10  H19 UNL     1      26.562   1.750  52.777  1.00  0.00     0.151 HD
ENDROOT
BRANCH   5  11
HETATM   11  C10 UNL     1      20.023  -0.087  52.533  1.00  0.00     0.005 C 
BRANCH  11  12
HETATM   12  C11 UNL     1      18.810  -0.433  52.709  1.00  0.00     0.003 C 
BRANCH  12  13
HETATM   13  C12 UNL     1      18.192  -1.549  53.336  1.00  0.00     0.035 C 
BRANCH  13  14
HETATM   14  C13 UNL     1      16.985  -1.463  52.848  1.00  0.00     0.077 C 
HETATM   15  O1  UNL     1      16.051  -2.406  52.500  1.00  0.00    -0.350 OA
HETATM   16  C14 UNL     1      15.525  -1.473  51.541  1.00  0.00     0.214 C 
HETATM   17  C15 UNL     1      16.045  -0.402  52.441  1.00  0.00     0.199 C 
BRANCH  17  18
HETATM   18  O2  UNL     1      15.206  -0.072  53.498  1.00  0.00    -0.387 OA
HETATM   19  H16 UNL     1      14.936   0.880  53.369  1.00  0.00     0.210 HD
ENDBRANCH  17  18
ENDBRANCH  13  14
ENDBRANCH  12  13
ENDBRANCH  11  12
ENDBRANCH   5  11
BRANCH   1  20
HETATM   20  C6  UNL     1      25.282   3.199  51.032  1.00  0.00     0.053 A 
HETATM   21  C5  UNL     1      26.395   2.975  50.257  1.00  0.00     0.031 A 
HETATM   22  C4  UNL     1      26.851   3.873  49.299  1.00  0.00     0.003 A 
HETATM   23  C3  UNL     1      26.179   5.058  49.088  1.00  0.00     0.007 A 
HETATM   24  C2  UNL     1      25.055   5.336  49.836  1.00  0.00    -0.060 A 
HETATM   25  C1  UNL     1      24.288   6.593  49.655  1.00  0.00     0.048 C 
HETATM   26  C18 UNL     1      24.653   4.405  50.773  1.00  0.00     0.038 A 
ENDBRANCH   1  20
TORSDOF 6
ENDMDL
MODEL 8
REMARK VINA RESULT:      -7.1      2.644      4.483
REMARK  6 active torsions:
REMARK  status: ('A' for Active; 'I' for Inactive)
REMARK    1  A    between atoms: C6_6  and  N1_7 
REMARK    2  A    between atoms: C9_11  and  C10_12 
REMARK    3  A    between atoms: C10_12  and  C11_13 
REMARK    4  A    between atoms: C11_13  and  C12_14 
REMARK    5  A    between atoms: C12_14  and  C13_15 
REMARK    6  A    between atoms: C15_18  and  O2_19 
ROOT
HETATM    1  N1  UNL     1      23.761   0.899  51.886  1.00  0.00    -0.268 N 
HETATM    2  C7  UNL     1      23.771   1.700  50.708  1.00  0.00     0.221 C 
HETATM    3  N2  UNL     1      23.973   2.715  51.483  1.00  0.00    -0.279 NA
HETATM    4  C8  UNL     1      24.093   4.018  50.806  1.00  0.00     0.184 C 
HETATM    5  C9  UNL     1      25.557   4.251  50.501  1.00  0.00    -0.055 C 
HETATM    6  C16 UNL     1      25.620   3.099  51.078  1.00  0.00     0.066 C 
HETATM    7  C17 UNL     1      26.755   2.271  51.353  1.00  0.00     0.115 C 
HETATM    8  P1  UNL     1      26.457   0.862  52.111  1.00  0.00    -0.047 P 
HETATM    9  N3  UNL     1      24.832   0.368  52.572  1.00  0.00    -0.213 NA
HETATM   10  H19 UNL     1      24.739  -0.675  52.510  1.00  0.00     0.151 HD
ENDROOT
BRANCH   5  11
HETATM   11  C10 UNL     1      25.708   5.502  49.844  1.00  0.00     0.005 C 
BRANCH  11  12
HETATM   12  C11 UNL     1      25.942   6.522  49.120  1.00  0.00     0.003 C 
BRANCH  12  13
HETATM   13  C12 UNL     1      27.135   7.159  48.682  1.00  0.00     0.035 C 
BRANCH  13  14
HETATM   14  C13 UNL     1      26.924   8.379  49.096  1.00  0.00     0.077 C 
HETATM   15  O1  UNL     1      25.821   9.193  49.072  1.00  0.00    -0.350 OA
HETATM   16  C14 UNL     1      26.707  10.326  49.045  1.00  0.00     0.214 C 
HETATM   17  C15 UNL     1      27.688   9.455  49.756  1.00  0.00     0.199 C 
BRANCH  17  18
HETATM   18  O2  UNL     1      27.516   9.389  51.133  1.00  0.00    -0.387 OA
HETATM   19  H16 UNL     1      27.726  10.294  51.496  1.00  0.00     0.210 HD
ENDBRANCH  17  18
ENDBRANCH  13  14
ENDBRANCH  12  13
ENDBRANCH  11  12
ENDBRANCH   5  11
BRANCH   1  20
HETATM   20  C6  UNL     1      22.485   0.625  52.402  1.00  0.00     0.053 A 
HETATM   21  C5  UNL     1      22.276   0.403  53.742  1.00  0.00     0.031 A 
HETATM   22  C4  UNL     1      21.027   0.130  54.285  1.00  0.00     0.003 A 
HETATM   23  C3  UNL     1      19.917   0.069  53.469  1.00  0.00     0.007 A 
HETATM   24  C2  UNL     1      20.065   0.284  52.115  1.00  0.00    -0.060 A 
HETATM   25  C1  UNL     1      18.911   0.232  51.185  1.00  0.00     0.048 C 
HETATM   26  C18 UNL     1      21.333   0.550  51.636  1.00  0.00     0.038 A 
ENDBRANCH   1  20
TORSDOF 6
ENDMDL
MODEL 9
REMARK VINA RESULT:      -7.1      1.851      2.671
REMARK  6 active torsions:
REMARK  status: ('A' for Active; 'I' for Inactive)
REMARK    1  A    between atoms: C6_6  and  N1_7 
REMARK    2  A    between atoms: C9_11  and  C10_12 
REMARK    3  A    between atoms: C10_12  and  C11_13 
REMARK    4  A    between atoms: C11_13  and  C12_14 
REMARK    5  A    between atoms: C12_14  and  C13_15 
REMARK    6  A    between atoms: C15_18  and  O2_19 
ROOT
HETATM    1  N1  UNL     1      24.030   2.225  51.224  1.00  0.00    -0.268 N 
HETATM    2  C7  UNL     1      24.411   3.581  51.435  1.00  0.00     0.221 C 
HETATM    3  N2  UNL     1      25.137   3.470  50.370  1.00  0.00    -0.279 NA
HETATM    4  C8  UNL     1      25.889   4.677  49.985  1.00  0.00     0.184 C 
HETATM    5  C9  UNL     1      25.026   5.480  49.035  1.00  0.00    -0.055 C 
HETATM    6  C16 UNL     1      24.244   4.482  49.273  1.00  0.00     0.066 C 
HETATM    7  C17 UNL     1      22.929   4.208  48.778  1.00  0.00     0.115 C 
HETATM    8  P1  UNL     1      22.233   2.832  49.295  1.00  0.00    -0.047 P 
HETATM    9  N3  UNL     1      23.040   1.728  50.404  1.00  0.00    -0.213 NA
HETATM   10  H19 UNL     1      22.338   1.265  51.031  1.00  0.00     0.151 HD
ENDROOT
BRANCH   5  11
HETATM   11  C10 UNL     1      25.722   6.655  48.645  1.00  0.00     0.005 C 
BRANCH  11  12
HETATM   12  C11 UNL     1      26.181   7.803  48.337  1.00  0.00     0.003 C 
BRANCH  12  13
HETATM   13  C12 UNL     1      25.658   9.121  48.427  1.00  0.00     0.035 C 
BRANCH  13  14
HETATM   14  C13 UNL     1      26.672   9.748  48.960  1.00  0.00     0.077 C 
HETATM   15  O1  UNL     1      27.071  11.060  48.941  1.00  0.00    -0.350 OA
HETATM   16  C14 UNL     1      28.425  10.609  49.116  1.00  0.00     0.214 C 
HETATM   17  C15 UNL     1      27.840   9.419  49.799  1.00  0.00     0.199 C 
BRANCH  17  18
HETATM   18  O2  UNL     1      27.535   9.610  51.141  1.00  0.00    -0.387 OA
HETATM   19  H16 UNL     1      28.154  10.314  51.483  1.00  0.00     0.210 HD
ENDBRANCH  17  18
ENDBRANCH  13  14
ENDBRANCH  12  13
ENDBRANCH  11  12
ENDBRANCH   5  11
BRANCH   1  20
HETATM   20  C6  UNL     1      24.772   1.284  51.956  1.00  0.00     0.053 A 
HETATM   21  C5  UNL     1      26.060   0.948  51.612  1.00  0.00     0.031 A 
HETATM   22  C4  UNL     1      26.821   0.022  52.314  1.00  0.00     0.003 A 
HETATM   23  C3  UNL     1      26.291  -0.612  53.417  1.00  0.00     0.007 A 
HETATM   24  C2  UNL     1      25.004  -0.315  53.811  1.00  0.00    -0.060 A 
HETATM   25  C1  UNL     1      24.378  -0.963  54.989  1.00  0.00     0.048 C 
HETATM   26  C18 UNL     1      24.298   0.614  53.071  1.00  0.00     0.038 A 
ENDBRANCH   1  20
TORSDOF 6
ENDMDL
