MODEL 1
REMARK VINA RESULT:      -8.0      0.000      0.000
REMARK  7 active torsions:
REMARK  status: ('A' for Active; 'I' for Inactive)
REMARK    1  A    between atoms: C2_2  and  N1_3 
REMARK    2  A    between atoms: C2_2  and  C15_22 
REMARK    3  A    between atoms: N1_3  and  C3_4 
REMARK    4  A    between atoms: N4_15  and  C11_16 
REMARK    5  A    between atoms: C11_16  and  C12_17 
REMARK    6  A    between atoms: C11_16  and  C13_19 
REMARK    7  A    between atoms: C13_19  and  S2_20 
ROOT
HETATM    1  C3  UNL     1      23.023   0.164  52.969  1.00  0.00     0.139 A 
HETATM    2  N2  UNL     1      21.950  -0.507  53.387  1.00  0.00    -0.224 NA
HETATM    3  C4  UNL     1      20.695  -0.132  53.426  1.00  0.00     0.236 A 
HETATM    4  N3  UNL     1      20.480   1.112  52.975  1.00  0.00    -0.234 NA
HETATM    5  C5  UNL     1      21.520   1.813  52.549  1.00  0.00     0.114 A 
HETATM    6  S1  UNL     1      21.553   3.516  51.889  1.00  0.00    -0.072 SA
HETATM    7  C6  UNL     1      23.295   3.585  51.607  1.00  0.00     0.010 A 
HETATM    8  C7  UNL     1      23.783   2.314  52.024  1.00  0.00    -0.025 A 
HETATM    9  C8  UNL     1      22.853   1.439  52.499  1.00  0.00     0.053 A 
HETATM   10  C9  UNL     1      25.229   2.400  51.776  1.00  0.00     0.060 C 
HETATM   11  C10 UNL     1      25.403   2.881  50.313  1.00  0.00     0.128 C 
HETATM   12  N4  UNL     1      25.173   4.285  50.205  1.00  0.00    -0.375 N 
HETATM   13  C14 UNL     1      24.103   4.706  51.056  1.00  0.00     0.169 C 
ENDROOT
BRANCH   1  14
HETATM   14  N1  UNL     1      24.268  -0.509  53.071  1.00  0.00    -0.366 N 
HETATM   15  H5  UNL     1      24.815  -1.171  52.508  1.00  0.00     0.161 HD
BRANCH  14  16
HETATM   16  C2  UNL     1      25.122  -0.306  54.228  1.00  0.00     0.112 C 
HETATM   17  C1  UNL     1      24.655  -1.141  55.429  1.00  0.00     0.037 C 
BRANCH  16  18
HETATM   18  C15 UNL     1      26.564  -0.480  53.967  1.00  0.00    -0.036 A 
HETATM   19  C16 UNL     1      27.233  -1.259  53.052  1.00  0.00     0.009 A 
HETATM   20  C17 UNL     1      28.611  -1.242  53.012  1.00  0.00     0.001 A 
HETATM   21  C18 UNL     1      29.377  -0.470  53.859  1.00  0.00     0.000 A 
HETATM   22  C19 UNL     1      28.713   0.314  54.780  1.00  0.00     0.001 A 
HETATM   23  C20 UNL     1      27.315   0.316  54.840  1.00  0.00     0.009 A 
ENDBRANCH  16  18
ENDBRANCH  14  16
ENDBRANCH   1  14
BRANCH  12  24
HETATM   24  C11 UNL     1      25.848   5.218  49.402  1.00  0.00     0.071 C 
BRANCH  24  25
HETATM   25  C12 UNL     1      27.015   4.837  48.959  1.00  0.00     0.246 C 
HETATM   26  O1  UNL     1      28.199   4.684  48.595  1.00  0.00    -0.282 OA
ENDBRANCH  24  25
BRANCH  24  27
HETATM   27  C13 UNL     1      25.264   6.544  49.088  1.00  0.00     0.132 C 
BRANCH  27  28
HETATM   28  S2  UNL     1      26.364   7.823  49.713  1.00  0.00    -0.176 SA
HETATM   29  H13 UNL     1      27.726   7.524  49.449  1.00  0.00     0.102 HD
ENDBRANCH  27  28
ENDBRANCH  24  27
ENDBRANCH  12  24
TORSDOF 7
ENDMDL
MODEL 2
REMARK VINA RESULT:      -8.0      3.059      6.810
REMARK  7 active torsions:
REMARK  status: ('A' for Active; 'I' for Inactive)
REMARK    1  A    between atoms: C2_2  and  N1_3 
REMARK    2  A    between atoms: C2_2  and  C15_22 
REMARK    3  A    between atoms: N1_3  and  C3_4 
REMARK    4  A    between atoms: N4_15  and  C11_16 
REMARK    5  A    between atoms: C11_16  and  C12_17 
REMARK    6  A    between atoms: C11_16  and  C13_19 
REMARK    7  A    between atoms: C13_19  and  S2_20 
ROOT
HETATM    1  C3  UNL     1      24.013   5.116  51.021  1.00  0.00     0.139 A 
HETATM    2  N2  UNL     1      22.938   5.903  51.063  1.00  0.00    -0.224 NA
HETATM    3  C4  UNL     1      21.735   5.649  51.518  1.00  0.00     0.236 A 
HETATM    4  N3  UNL     1      21.585   4.410  52.008  1.00  0.00    -0.234 NA
HETATM    5  C5  UNL     1      22.629   3.596  51.985  1.00  0.00     0.114 A 
HETATM    6  S1  UNL     1      22.739   1.868  52.567  1.00  0.00    -0.072 SA
HETATM    7  C6  UNL     1      24.435   1.623  52.142  1.00  0.00     0.010 A 
HETATM    8  C7  UNL     1      24.852   2.861  51.577  1.00  0.00    -0.025 A 
HETATM    9  C8  UNL     1      23.907   3.842  51.512  1.00  0.00     0.053 A 
HETATM   10  C9  UNL     1      26.262   2.629  51.236  1.00  0.00     0.060 C 
HETATM   11  C10 UNL     1      26.942   2.065  52.509  1.00  0.00     0.128 C 
HETATM   12  N4  UNL     1      26.627   0.685  52.688  1.00  0.00    -0.375 N 
HETATM   13  C14 UNL     1      25.272   0.406  52.323  1.00  0.00     0.169 C 
ENDROOT
BRANCH   1  14
HETATM   14  N1  UNL     1      25.183   5.674  50.444  1.00  0.00    -0.366 N 
HETATM   15  H5  UNL     1      26.018   6.175  50.768  1.00  0.00     0.161 HD
BRANCH  14  16
HETATM   16  C2  UNL     1      25.408   5.589  49.011  1.00  0.00     0.112 C 
HETATM   17  C1  UNL     1      24.470   6.524  48.234  1.00  0.00     0.037 C 
BRANCH  16  18
HETATM   18  C15 UNL     1      26.815   5.759  48.599  1.00  0.00    -0.036 A 
HETATM   19  C16 UNL     1      27.883   4.894  48.642  1.00  0.00     0.009 A 
HETATM   20  C17 UNL     1      29.118   5.304  48.187  1.00  0.00     0.001 A 
HETATM   21  C18 UNL     1      29.351   6.564  47.679  1.00  0.00     0.000 A 
HETATM   22  C19 UNL     1      28.284   7.437  47.632  1.00  0.00     0.001 A 
HETATM   23  C20 UNL     1      27.019   7.045  48.087  1.00  0.00     0.009 A 
ENDBRANCH  16  18
ENDBRANCH  14  16
ENDBRANCH   1  14
BRANCH  12  24
HETATM   24  C11 UNL     1      27.460  -0.344  53.155  1.00  0.00     0.071 C 
BRANCH  24  25
HETATM   25  C12 UNL     1      27.255  -1.517  52.622  1.00  0.00     0.246 C 
HETATM   26  O1  UNL     1      27.180  -2.718  52.291  1.00  0.00    -0.282 OA
ENDBRANCH  24  25
BRANCH  24  27
HETATM   27  C13 UNL     1      28.499  -0.100  54.185  1.00  0.00     0.132 C 
BRANCH  27  28
HETATM   28  S2  UNL     1      30.026  -0.900  53.666  1.00  0.00    -0.176 SA
HETATM   29  H13 UNL     1      30.015  -1.210  52.281  1.00  0.00     0.102 HD
ENDBRANCH  27  28
ENDBRANCH  24  27
ENDBRANCH  12  24
TORSDOF 7
ENDMDL
MODEL 3
REMARK VINA RESULT:      -7.9      3.322      7.191
REMARK  7 active torsions:
REMARK  status: ('A' for Active; 'I' for Inactive)
REMARK    1  A    between atoms: C2_2  and  N1_3 
REMARK    2  A    between atoms: C2_2  and  C15_22 
REMARK    3  A    between atoms: N1_3  and  C3_4 
REMARK    4  A    between atoms: N4_15  and  C11_16 
REMARK    5  A    between atoms: C11_16  and  C12_17 
REMARK    6  A    between atoms: C11_16  and  C13_19 
REMARK    7  A    between atoms: C13_19  and  S2_20 
ROOT
HETATM    1  C3  UNL     1      26.213   2.388  52.120  1.00  0.00     0.139 A 
HETATM    2  N2  UNL     1      27.526   2.214  52.274  1.00  0.00    -0.224 NA
HETATM    3  C4  UNL     1      28.172   1.286  52.936  1.00  0.00     0.236 A 
HETATM    4  N3  UNL     1      27.378   0.390  53.540  1.00  0.00    -0.234 NA
HETATM    5  C5  UNL     1      26.067   0.527  53.412  1.00  0.00     0.114 A 
HETATM    6  S1  UNL     1      24.739  -0.516  54.110  1.00  0.00    -0.072 SA
HETATM    7  C6  UNL     1      23.391   0.405  53.437  1.00  0.00     0.010 A 
HETATM    8  C7  UNL     1      24.000   1.465  52.709  1.00  0.00    -0.025 A 
HETATM    9  C8  UNL     1      25.363   1.497  52.719  1.00  0.00     0.053 A 
HETATM   10  C9  UNL     1      22.858   2.209  52.160  1.00  0.00     0.060 C 
HETATM   11  C10 UNL     1      21.950   1.173  51.451  1.00  0.00     0.128 C 
HETATM   12  N4  UNL     1      21.177   0.437  52.397  1.00  0.00    -0.375 N 
HETATM   13  C14 UNL     1      21.931   0.153  53.580  1.00  0.00     0.169 C 
ENDROOT
BRANCH   1  14
HETATM   14  N1  UNL     1      25.810   3.512  51.354  1.00  0.00    -0.366 N 
HETATM   15  H5  UNL     1      25.462   4.461  51.534  1.00  0.00     0.161 HD
BRANCH  14  16
HETATM   16  C2  UNL     1      25.848   3.465  49.903  1.00  0.00     0.112 C 
HETATM   17  C1  UNL     1      24.446   3.274  49.306  1.00  0.00     0.037 C 
BRANCH  16  18
HETATM   18  C15 UNL     1      26.565   4.589  49.269  1.00  0.00    -0.036 A 
HETATM   19  C16 UNL     1      27.824   4.669  48.722  1.00  0.00     0.009 A 
HETATM   20  C17 UNL     1      28.266   5.859  48.184  1.00  0.00     0.001 A 
HETATM   21  C18 UNL     1      27.499   7.004  48.164  1.00  0.00     0.000 A 
HETATM   22  C19 UNL     1      26.235   6.932  48.712  1.00  0.00     0.001 A 
HETATM   23  C20 UNL     1      25.762   5.735  49.263  1.00  0.00     0.009 A 
ENDBRANCH  16  18
ENDBRANCH  14  16
ENDBRANCH   1  14
BRANCH  12  24
HETATM   24  C11 UNL     1      19.848   0.001  52.284  1.00  0.00     0.071 C 
BRANCH  24  25
HETATM   25  C12 UNL     1      19.235   0.345  51.184  1.00  0.00     0.246 C 
HETATM   26  O1  UNL     1      18.824   0.821  50.107  1.00  0.00    -0.282 OA
ENDBRANCH  24  25
BRANCH  24  27
HETATM   27  C13 UNL     1      19.195  -0.798  53.350  1.00  0.00     0.132 C 
BRANCH  27  28
HETATM   28  S2  UNL     1      17.501  -1.147  52.855  1.00  0.00    -0.176 SA
HETATM   29  H13 UNL     1      17.442  -2.109  51.814  1.00  0.00     0.102 HD
ENDBRANCH  27  28
ENDBRANCH  24  27
ENDBRANCH  12  24
TORSDOF 7
ENDMDL
MODEL 4
REMARK VINA RESULT:      -7.8      1.294      1.586
REMARK  7 active torsions:
REMARK  status: ('A' for Active; 'I' for Inactive)
REMARK    1  A    between atoms: C2_2  and  N1_3 
REMARK    2  A    between atoms: C2_2  and  C15_22 
REMARK    3  A    between atoms: N1_3  and  C3_4 
REMARK    4  A    between atoms: N4_15  and  C11_16 
REMARK    5  A    between atoms: C11_16  and  C12_17 
REMARK    6  A    between atoms: C11_16  and  C13_19 
REMARK    7  A    between atoms: C13_19  and  S2_20 
ROOT
HETATM    1  C3  UNL     1      22.284   1.676  52.196  1.00  0.00     0.139 A 
HETATM    2  N2  UNL     1      21.058   1.350  52.604  1.00  0.00    -0.224 NA
HETATM    3  C4  UNL     1      19.984   2.096  52.696  1.00  0.00     0.236 A 
HETATM    4  N3  UNL     1      20.167   3.370  52.320  1.00  0.00    -0.234 NA
HETATM    5  C5  UNL     1      21.371   3.734  51.906  1.00  0.00     0.114 A 
HETATM    6  S1  UNL     1      21.931   5.379  51.340  1.00  0.00    -0.072 SA
HETATM    7  C6  UNL     1      23.605   4.916  51.017  1.00  0.00     0.010 A 
HETATM    8  C7  UNL     1      23.673   3.535  51.350  1.00  0.00    -0.025 A 
HETATM    9  C8  UNL     1      22.518   2.966  51.801  1.00  0.00     0.053 A 
HETATM   10  C9  UNL     1      25.071   3.179  51.070  1.00  0.00     0.060 C 
HETATM   11  C10 UNL     1      25.376   3.668  49.632  1.00  0.00     0.128 C 
HETATM   12  N4  UNL     1      25.597   5.078  49.607  1.00  0.00    -0.375 N 
HETATM   13  C14 UNL     1      24.719   5.761  50.508  1.00  0.00     0.169 C 
ENDROOT
BRANCH   1  14
HETATM   14  N1  UNL     1      23.256   0.643  52.228  1.00  0.00    -0.366 N 
HETATM   15  H5  UNL     1      23.684  -0.010  51.561  1.00  0.00     0.161 HD
BRANCH  14  16
HETATM   16  C2  UNL     1      23.925   0.300  53.471  1.00  0.00     0.112 C 
HETATM   17  C1  UNL     1      23.238  -0.879  54.176  1.00  0.00     0.037 C 
BRANCH  16  18
HETATM   18  C15 UNL     1      25.381   0.094  53.350  1.00  0.00    -0.036 A 
HETATM   19  C16 UNL     1      26.109  -0.929  52.789  1.00  0.00     0.009 A 
HETATM   20  C17 UNL     1      27.486  -0.883  52.807  1.00  0.00     0.001 A 
HETATM   21  C18 UNL     1      28.196   0.156  53.371  1.00  0.00     0.000 A 
HETATM   22  C19 UNL     1      27.472   1.186  53.937  1.00  0.00     0.001 A 
HETATM   23  C20 UNL     1      26.072   1.163  53.931  1.00  0.00     0.009 A 
ENDBRANCH  16  18
ENDBRANCH  14  16
ENDBRANCH   1  14
BRANCH  12  24
HETATM   24  C11 UNL     1      26.525   5.799  48.840  1.00  0.00     0.071 C 
BRANCH  24  25
HETATM   25  C12 UNL     1      27.676   5.214  48.653  1.00  0.00     0.246 C 
HETATM   26  O1  UNL     1      28.789   4.786  48.286  1.00  0.00    -0.282 OA
ENDBRANCH  24  25
BRANCH  24  27
HETATM   27  C13 UNL     1      26.205   7.138  48.285  1.00  0.00     0.132 C 
BRANCH  27  28
HETATM   28  S2  UNL     1      27.201   8.369  49.140  1.00  0.00    -0.176 SA
HETATM   29  H13 UNL     1      28.330   7.788  49.774  1.00  0.00     0.102 HD
ENDBRANCH  27  28
ENDBRANCH  24  27
ENDBRANCH  12  24
TORSDOF 7
ENDMDL
MODEL 5
REMARK VINA RESULT:      -7.7      2.420      5.268
REMARK  7 active torsions:
REMARK  status: ('A' for Active; 'I' for Inactive)
REMARK    1  A    between atoms: C2_2  and  N1_3 
REMARK    2  A    between atoms: C2_2  and  C15_22 
REMARK    3  A    between atoms: N1_3  and  C3_4 
REMARK    4  A    between atoms: N4_15  and  C11_16 
REMARK    5  A    between atoms: C11_16  and  C12_17 
REMARK    6  A    between atoms: C11_16  and  C13_19 
REMARK    7  A    between atoms: C13_19  and  S2_20 
ROOT
HETATM    1  C3  UNL     1      24.358   0.539  53.040  1.00  0.00     0.139 A 
HETATM    2  N2  UNL     1      25.212  -0.447  53.312  1.00  0.00    -0.224 NA
HETATM    3  C4  UNL     1      26.448  -0.615  52.908  1.00  0.00     0.236 A 
HETATM    4  N3  UNL     1      26.898   0.359  52.103  1.00  0.00    -0.234 NA
HETATM    5  C5  UNL     1      26.080   1.357  51.808  1.00  0.00     0.114 A 
HETATM    6  S1  UNL     1      26.394   2.812  50.748  1.00  0.00    -0.072 SA
HETATM    7  C6  UNL     1      24.799   3.545  50.942  1.00  0.00     0.010 A 
HETATM    8  C7  UNL     1      24.092   2.659  51.802  1.00  0.00    -0.025 A 
HETATM    9  C8  UNL     1      24.774   1.556  52.223  1.00  0.00     0.053 A 
HETATM   10  C9  UNL     1      22.775   3.294  51.946  1.00  0.00     0.060 C 
HETATM   11  C10 UNL     1      23.031   4.766  52.354  1.00  0.00     0.128 C 
HETATM   12  N4  UNL     1      23.425   5.548  51.228  1.00  0.00    -0.375 N 
HETATM   13  C14 UNL     1      24.279   4.808  50.351  1.00  0.00     0.169 C 
ENDROOT
BRANCH   1  14
HETATM   14  N1  UNL     1      23.065   0.432  53.616  1.00  0.00    -0.366 N 
HETATM   15  H5  UNL     1      22.525   0.906  54.349  1.00  0.00     0.161 HD
BRANCH  14  16
HETATM   16  C2  UNL     1      22.130  -0.575  53.143  1.00  0.00     0.112 C 
HETATM   17  C1  UNL     1      21.451  -1.308  54.309  1.00  0.00     0.037 C 
BRANCH  16  18
HETATM   18  C15 UNL     1      21.148  -0.087  52.156  1.00  0.00    -0.036 A 
HETATM   19  C16 UNL     1      21.301   0.338  50.857  1.00  0.00     0.009 A 
HETATM   20  C17 UNL     1      20.203   0.753  50.135  1.00  0.00     0.001 A 
HETATM   21  C18 UNL     1      18.926   0.769  50.654  1.00  0.00     0.000 A 
HETATM   22  C19 UNL     1      18.764   0.344  51.956  1.00  0.00     0.001 A 
HETATM   23  C20 UNL     1      19.863  -0.083  52.711  1.00  0.00     0.009 A 
ENDBRANCH  16  18
ENDBRANCH  14  16
ENDBRANCH   1  14
BRANCH  12  24
HETATM   24  C11 UNL     1      23.078   6.874  50.925  1.00  0.00     0.071 C 
BRANCH  24  25
HETATM   25  C12 UNL     1      24.080   7.686  50.726  1.00  0.00     0.246 C 
HETATM   26  O1  UNL     1      24.986   8.438  50.313  1.00  0.00    -0.282 OA
ENDBRANCH  24  25
BRANCH  24  27
HETATM   27  C13 UNL     1      21.663   7.311  50.841  1.00  0.00     0.132 C 
BRANCH  27  28
HETATM   28  S2  UNL     1      20.819   6.301  49.614  1.00  0.00    -0.176 SA
HETATM   29  H13 UNL     1      21.463   5.051  49.425  1.00  0.00     0.102 HD
ENDBRANCH  27  28
ENDBRANCH  24  27
ENDBRANCH  12  24
TORSDOF 7
ENDMDL
MODEL 6
REMARK VINA RESULT:      -7.6      3.487      4.289
REMARK  7 active torsions:
REMARK  status: ('A' for Active; 'I' for Inactive)
REMARK    1  A    between atoms: C2_2  and  N1_3 
REMARK    2  A    between atoms: C2_2  and  C15_22 
REMARK    3  A    between atoms: N1_3  and  C3_4 
REMARK    4  A    between atoms: N4_15  and  C11_16 
REMARK    5  A    between atoms: C11_16  and  C12_17 
REMARK    6  A    between atoms: C11_16  and  C13_19 
REMARK    7  A    between atoms: C13_19  and  S2_20 
ROOT
HETATM    1  C3  UNL     1      24.016   0.053  53.920  1.00  0.00     0.139 A 
HETATM    2  N2  UNL     1      24.199  -0.829  54.902  1.00  0.00    -0.224 NA
HETATM    3  C4  UNL     1      23.324  -1.584  55.520  1.00  0.00     0.236 A 
HETATM    4  N3  UNL     1      22.064  -1.431  55.085  1.00  0.00    -0.234 NA
HETATM    5  C5  UNL     1      21.839  -0.565  54.109  1.00  0.00     0.114 A 
HETATM    6  S1  UNL     1      20.252  -0.134  53.312  1.00  0.00    -0.072 SA
HETATM    7  C6  UNL     1      20.914   1.055  52.185  1.00  0.00     0.010 A 
HETATM    8  C7  UNL     1      22.310   1.077  52.457  1.00  0.00    -0.025 A 
HETATM    9  C8  UNL     1      22.746   0.242  53.442  1.00  0.00     0.053 A 
HETATM   10  C9  UNL     1      22.832   2.069  51.507  1.00  0.00     0.060 C 
HETATM   11  C10 UNL     1      22.298   1.671  50.108  1.00  0.00     0.128 C 
HETATM   12  N4  UNL     1      20.932   2.054  49.953  1.00  0.00    -0.375 N 
HETATM   13  C14 UNL     1      20.196   1.868  51.167  1.00  0.00     0.169 C 
ENDROOT
BRANCH   1  14
HETATM   14  N1  UNL     1      25.169   0.741  53.465  1.00  0.00    -0.366 N 
HETATM   15  H5  UNL     1      25.706   1.574  53.736  1.00  0.00     0.161 HD
BRANCH  14  16
HETATM   16  C2  UNL     1      25.908   0.258  52.311  1.00  0.00     0.112 C 
HETATM   17  C1  UNL     1      26.409   1.415  51.434  1.00  0.00     0.037 C 
BRANCH  16  18
HETATM   18  C15 UNL     1      26.988  -0.697  52.628  1.00  0.00    -0.036 A 
HETATM   19  C16 UNL     1      27.058  -2.064  52.497  1.00  0.00     0.009 A 
HETATM   20  C17 UNL     1      28.202  -2.733  52.873  1.00  0.00     0.001 A 
HETATM   21  C18 UNL     1      29.310  -2.095  53.388  1.00  0.00     0.000 A 
HETATM   22  C19 UNL     1      29.248  -0.724  53.522  1.00  0.00     0.001 A 
HETATM   23  C20 UNL     1      28.098  -0.020  53.147  1.00  0.00     0.009 A 
ENDBRANCH  16  18
ENDBRANCH  14  16
ENDBRANCH   1  14
BRANCH  12  24
HETATM   24  C11 UNL     1      20.294   2.559  48.809  1.00  0.00     0.071 C 
BRANCH  24  25
HETATM   25  C12 UNL     1      18.990   2.523  48.832  1.00  0.00     0.246 C 
HETATM   26  O1  UNL     1      17.760   2.479  48.624  1.00  0.00    -0.282 OA
ENDBRANCH  24  25
BRANCH  24  27
HETATM   27  C13 UNL     1      21.063   3.093  47.659  1.00  0.00     0.132 C 
BRANCH  27  28
HETATM   28  S2  UNL     1      20.363   4.682  47.185  1.00  0.00    -0.176 SA
HETATM   29  H13 UNL     1      20.035   5.473  48.316  1.00  0.00     0.102 HD
ENDBRANCH  27  28
ENDBRANCH  24  27
ENDBRANCH  12  24
TORSDOF 7
ENDMDL
MODEL 7
REMARK VINA RESULT:      -7.6      2.209      2.633
REMARK  7 active torsions:
REMARK  status: ('A' for Active; 'I' for Inactive)
REMARK    1  A    between atoms: C2_2  and  N1_3 
REMARK    2  A    between atoms: C2_2  and  C15_22 
REMARK    3  A    between atoms: N1_3  and  C3_4 
REMARK    4  A    between atoms: N4_15  and  C11_16 
REMARK    5  A    between atoms: C11_16  and  C12_17 
REMARK    6  A    between atoms: C11_16  and  C13_19 
REMARK    7  A    between atoms: C13_19  and  S2_20 
ROOT
HETATM    1  C3  UNL     1      23.805   0.358  53.450  1.00  0.00     0.139 A 
HETATM    2  N2  UNL     1      23.469  -0.847  53.909  1.00  0.00    -0.224 NA
HETATM    3  C4  UNL     1      22.283  -1.391  54.034  1.00  0.00     0.236 A 
HETATM    4  N3  UNL     1      21.274  -0.604  53.637  1.00  0.00    -0.234 NA
HETATM    5  C5  UNL     1      21.565   0.602  53.173  1.00  0.00     0.114 A 
HETATM    6  S1  UNL     1      20.426   1.895  52.566  1.00  0.00    -0.072 SA
HETATM    7  C6  UNL     1      21.668   3.090  52.183  1.00  0.00     0.010 A 
HETATM    8  C7  UNL     1      22.897   2.462  52.530  1.00  0.00    -0.025 A 
HETATM    9  C8  UNL     1      22.807   1.198  53.031  1.00  0.00     0.053 A 
HETATM   10  C9  UNL     1      23.909   3.475  52.200  1.00  0.00     0.060 C 
HETATM   11  C10 UNL     1      23.628   3.929  50.746  1.00  0.00     0.128 C 
HETATM   12  N4  UNL     1      22.525   4.832  50.696  1.00  0.00    -0.375 N 
HETATM   13  C14 UNL     1      21.500   4.458  51.622  1.00  0.00     0.169 C 
ENDROOT
BRANCH   1  14
HETATM   14  N1  UNL     1      25.188   0.674  53.456  1.00  0.00    -0.366 N 
HETATM   15  H5  UNL     1      25.854   1.132  54.089  1.00  0.00     0.161 HD
BRANCH  14  16
HETATM   16  C2  UNL     1      26.031   0.310  52.330  1.00  0.00     0.112 C 
HETATM   17  C1  UNL     1      26.616   1.550  51.638  1.00  0.00     0.037 C 
BRANCH  16  18
HETATM   18  C15 UNL     1      27.073  -0.689  52.638  1.00  0.00    -0.036 A 
HETATM   19  C16 UNL     1      27.080  -2.058  52.518  1.00  0.00     0.009 A 
HETATM   20  C17 UNL     1      28.200  -2.775  52.882  1.00  0.00     0.001 A 
HETATM   21  C18 UNL     1      29.343  -2.182  53.375  1.00  0.00     0.000 A 
HETATM   22  C19 UNL     1      29.343  -0.808  53.498  1.00  0.00     0.001 A 
HETATM   23  C20 UNL     1      28.219  -0.057  53.134  1.00  0.00     0.009 A 
ENDBRANCH  16  18
ENDBRANCH  14  16
ENDBRANCH   1  14
BRANCH  12  24
HETATM   24  C11 UNL     1      22.364   5.967  49.885  1.00  0.00     0.071 C 
BRANCH  24  25
HETATM   25  C12 UNL     1      22.283   5.734  48.603  1.00  0.00     0.246 C 
HETATM   26  O1  UNL     1      22.153   5.297  47.441  1.00  0.00    -0.282 OA
ENDBRANCH  24  25
BRANCH  24  27
HETATM   27  C13 UNL     1      22.295   7.333  50.459  1.00  0.00     0.132 C 
BRANCH  27  28
HETATM   28  S2  UNL     1      23.642   8.314  49.780  1.00  0.00    -0.176 SA
HETATM   29  H13 UNL     1      24.164   7.743  48.590  1.00  0.00     0.102 HD
ENDBRANCH  27  28
ENDBRANCH  24  27
ENDBRANCH  12  24
TORSDOF 7
ENDMDL
MODEL 8
REMARK VINA RESULT:      -7.5      3.025      5.749
REMARK  7 active torsions:
REMARK  status: ('A' for Active; 'I' for Inactive)
REMARK    1  A    between atoms: C2_2  and  N1_3 
REMARK    2  A    between atoms: C2_2  and  C15_22 
REMARK    3  A    between atoms: N1_3  and  C3_4 
REMARK    4  A    between atoms: N4_15  and  C11_16 
REMARK    5  A    between atoms: C11_16  and  C12_17 
REMARK    6  A    between atoms: C11_16  and  C13_19 
REMARK    7  A    between atoms: C13_19  and  S2_20 
ROOT
HETATM    1  C3  UNL     1      22.211   3.375  50.843  1.00  0.00     0.139 A 
HETATM    2  N2  UNL     1      21.502   3.824  49.809  1.00  0.00    -0.224 NA
HETATM    3  C4  UNL     1      21.909   4.228  48.630  1.00  0.00     0.236 A 
HETATM    4  N3  UNL     1      23.238   4.172  48.461  1.00  0.00    -0.234 NA
HETATM    5  C5  UNL     1      23.980   3.731  49.465  1.00  0.00     0.114 A 
HETATM    6  S1  UNL     1      25.796   3.544  49.544  1.00  0.00    -0.072 SA
HETATM    7  C6  UNL     1      25.859   2.923  51.196  1.00  0.00     0.010 A 
HETATM    8  C7  UNL     1      24.502   2.881  51.622  1.00  0.00    -0.025 A 
HETATM    9  C8  UNL     1      23.573   3.300  50.717  1.00  0.00     0.053 A 
HETATM   10  C9  UNL     1      24.586   2.359  52.993  1.00  0.00     0.060 C 
HETATM   11  C10 UNL     1      25.442   1.070  52.929  1.00  0.00     0.128 C 
HETATM   12  N4  UNL     1      26.830   1.382  52.828  1.00  0.00    -0.375 N 
HETATM   13  C14 UNL     1      27.050   2.523  51.992  1.00  0.00     0.169 C 
ENDROOT
BRANCH   1  14
HETATM   14  N1  UNL     1      21.480   3.029  52.009  1.00  0.00    -0.366 N 
HETATM   15  H5  UNL     1      21.335   3.414  52.950  1.00  0.00     0.161 HD
BRANCH  14  16
HETATM   16  C2  UNL     1      20.659   1.830  52.033  1.00  0.00     0.112 C 
HETATM   17  C1  UNL     1      20.198   1.431  50.624  1.00  0.00     0.037 C 
BRANCH  16  18
HETATM   18  C15 UNL     1      21.254   0.692  52.759  1.00  0.00    -0.036 A 
HETATM   19  C16 UNL     1      22.080  -0.323  52.335  1.00  0.00     0.009 A 
HETATM   20  C17 UNL     1      22.503  -1.283  53.229  1.00  0.00     0.001 A 
HETATM   21  C18 UNL     1      22.136  -1.287  54.557  1.00  0.00     0.000 A 
HETATM   22  C19 UNL     1      21.307  -0.272  54.990  1.00  0.00     0.001 A 
HETATM   23  C20 UNL     1      20.864   0.716  54.103  1.00  0.00     0.009 A 
ENDBRANCH  16  18
ENDBRANCH  14  16
ENDBRANCH   1  14
BRANCH  12  24
HETATM   24  C11 UNL     1      27.916   0.724  53.427  1.00  0.00     0.071 C 
BRANCH  24  25
HETATM   25  C12 UNL     1      28.767   1.494  54.048  1.00  0.00     0.246 C 
HETATM   26  O1  UNL     1      29.431   2.219  54.816  1.00  0.00    -0.282 OA
ENDBRANCH  24  25
BRANCH  24  27
HETATM   27  C13 UNL     1      28.074  -0.749  53.350  1.00  0.00     0.132 C 
BRANCH  27  28
HETATM   28  S2  UNL     1      29.809  -1.157  53.600  1.00  0.00    -0.176 SA
HETATM   29  H13 UNL     1      30.072  -2.527  53.338  1.00  0.00     0.102 HD
ENDBRANCH  27  28
ENDBRANCH  24  27
ENDBRANCH  12  24
TORSDOF 7
ENDMDL
MODEL 9
REMARK VINA RESULT:      -7.4      3.737      7.072
REMARK  7 active torsions:
REMARK  status: ('A' for Active; 'I' for Inactive)
REMARK    1  A    between atoms: C2_2  and  N1_3 
REMARK    2  A    between atoms: C2_2  and  C15_22 
REMARK    3  A    between atoms: N1_3  and  C3_4 
REMARK    4  A    between atoms: N4_15  and  C11_16 
REMARK    5  A    between atoms: C11_16  and  C12_17 
REMARK    6  A    between atoms: C11_16  and  C13_19 
REMARK    7  A    between atoms: C13_19  and  S2_20 
ROOT
HETATM    1  C3  UNL     1      25.235   0.639  52.403  1.00  0.00     0.139 A 
HETATM    2  N2  UNL     1      26.418   0.270  52.893  1.00  0.00    -0.224 NA
HETATM    3  C4  UNL     1      26.693  -0.467  53.941  1.00  0.00     0.236 A 
HETATM    4  N3  UNL     1      25.612  -0.903  54.604  1.00  0.00    -0.234 NA
HETATM    5  C5  UNL     1      24.417  -0.558  54.149  1.00  0.00     0.114 A 
HETATM    6  S1  UNL     1      22.774  -0.985  54.826  1.00  0.00    -0.072 SA
HETATM    7  C6  UNL     1      21.829  -0.116  53.613  1.00  0.00     0.010 A 
HETATM    8  C7  UNL     1      22.796   0.462  52.743  1.00  0.00    -0.025 A 
HETATM    9  C8  UNL     1      24.102   0.217  53.046  1.00  0.00     0.053 A 
HETATM   10  C9  UNL     1      21.983   1.173  51.746  1.00  0.00     0.060 C 
HETATM   11  C10 UNL     1      20.939   0.160  51.216  1.00  0.00     0.128 C 
HETATM   12  N4  UNL     1      19.872  -0.011  52.149  1.00  0.00    -0.375 N 
HETATM   13  C14 UNL     1      20.351   0.003  53.498  1.00  0.00     0.169 C 
ENDROOT
BRANCH   1  14
HETATM   14  N1  UNL     1      25.259   1.468  51.251  1.00  0.00    -0.366 N 
HETATM   15  H5  UNL     1      25.121   1.357  50.240  1.00  0.00     0.161 HD
BRANCH  14  16
HETATM   16  C2  UNL     1      25.537   2.889  51.372  1.00  0.00     0.112 C 
HETATM   17  C1  UNL     1      26.443   3.387  50.237  1.00  0.00     0.037 C 
BRANCH  16  18
HETATM   18  C15 UNL     1      24.341   3.738  51.533  1.00  0.00    -0.036 A 
HETATM   19  C16 UNL     1      23.690   4.185  52.658  1.00  0.00     0.009 A 
HETATM   20  C17 UNL     1      22.573   4.983  52.535  1.00  0.00     0.001 A 
HETATM   21  C18 UNL     1      22.055   5.367  51.316  1.00  0.00     0.000 A 
HETATM   22  C19 UNL     1      22.703   4.922  50.182  1.00  0.00     0.001 A 
HETATM   23  C20 UNL     1      23.841   4.113  50.280  1.00  0.00     0.009 A 
ENDBRANCH  16  18
ENDBRANCH  14  16
ENDBRANCH   1  14
BRANCH  12  24
HETATM   24  C11 UNL     1      18.504  -0.179  51.885  1.00  0.00     0.071 C 
BRANCH  24  25
HETATM   25  C12 UNL     1      17.889  -1.047  52.641  1.00  0.00     0.246 C 
HETATM   26  O1  UNL     1      17.486  -1.860  53.498  1.00  0.00    -0.282 OA
ENDBRANCH  24  25
BRANCH  24  27
HETATM   27  C13 UNL     1      17.816   0.584  50.816  1.00  0.00     0.132 C 
BRANCH  27  28
HETATM   28  S2  UNL     1      17.757   2.319  51.291  1.00  0.00    -0.176 SA
HETATM   29  H13 UNL     1      16.688   3.004  50.659  1.00  0.00     0.102 HD
ENDBRANCH  27  28
ENDBRANCH  24  27
ENDBRANCH  12  24
TORSDOF 7
ENDMDL
