MODEL 1
REMARK VINA RESULT:      -8.8      0.000      0.000
REMARK  8 active torsions:
REMARK  status: ('A' for Active; 'I' for Inactive)
REMARK    1  A    between atoms: C4_6  and  N3_7 
REMARK    2  A    between atoms: N3_7  and  C5_8 
REMARK    3  A    between atoms: C8_11  and  O1_12 
REMARK    4  A    between atoms: O1_12  and  C9_13 
REMARK    5  A    between atoms: C9_13  and  C10_14 
REMARK    6  A    between atoms: C18_24  and  C19_25 
REMARK    7  A    between atoms: C20_26  and  C21_27 
REMARK    8  A    between atoms: C21_27  and  N4_28 
ROOT
HETATM    1  N3  UNL     1      22.661   0.936  51.284  1.00  0.00    -0.340 N 
HETATM    2  H5  UNL     1      23.105   0.336  50.548  1.00  0.00     0.167 HD
ENDROOT
BRANCH   1   3
HETATM    3  C4  UNL     1      21.928   0.283  52.303  1.00  0.00     0.150 A 
HETATM    4  N2  UNL     1      20.613   0.172  52.435  1.00  0.00    -0.223 NA
HETATM    5  C3  UNL     1      19.963  -0.459  53.421  1.00  0.00     0.235 A 
HETATM    6  N1  UNL     1      20.677  -1.041  54.379  1.00  0.00    -0.245 NA
HETATM    7  C2  UNL     1      22.023  -1.007  54.372  1.00  0.00     0.054 A 
HETATM    8  C1  UNL     1      22.804  -1.659  55.445  1.00  0.00     0.072 C 
HETATM    9  C18 UNL     1      22.609  -0.339  53.324  1.00  0.00     0.088 A 
BRANCH   9  10
HETATM   10  C19 UNL     1      24.066  -0.320  53.344  1.00  0.00    -0.059 C 
HETATM   11  C20 UNL     1      25.286  -0.285  53.367  1.00  0.00    -0.070 C 
BRANCH  11  12
HETATM   12  C21 UNL     1      26.739  -0.253  53.392  1.00  0.00     0.368 C 
BRANCH  12  13
HETATM   13  N4  UNL     1      27.255   0.714  54.315  1.00  0.00     0.124 N 
HETATM   14  C22 UNL     1      27.188   2.073  53.788  1.00  0.00     0.302 C 
HETATM   15  C23 UNL     1      28.659   2.409  53.617  1.00  0.00     0.200 C 
HETATM   16  O2  UNL     1      29.226   1.761  54.704  1.00  0.00    -0.361 OA
HETATM   17  C24 UNL     1      28.620   0.496  54.682  1.00  0.00     0.441 C 
ENDBRANCH  12  13
ENDBRANCH  11  12
ENDBRANCH   9  10
ENDBRANCH   1   3
BRANCH   1  18
HETATM   18  C5  UNL     1      22.866   2.331  51.146  1.00  0.00     0.035 A 
HETATM   19  C6  UNL     1      23.054   3.228  52.172  1.00  0.00     0.032 A 
HETATM   20  C7  UNL     1      23.250   4.573  52.028  1.00  0.00     0.041 A 
HETATM   21  C8  UNL     1      23.268   5.112  50.761  1.00  0.00     0.091 A 
HETATM   22  C16 UNL     1      23.085   4.261  49.693  1.00  0.00     0.069 A 
HETATM   23 CL1  UNL     1      23.097   4.891  48.047  1.00  0.00    -0.081 Cl
HETATM   24  C17 UNL     1      22.892   2.916  49.899  1.00  0.00     0.056 A 
BRANCH  21  25
HETATM   25  O1  UNL     1      23.457   6.456  50.470  1.00  0.00    -0.345 OA
BRANCH  25  26
HETATM   26  C9  UNL     1      24.703   7.010  50.841  1.00  0.00     0.214 C 
BRANCH  26  27
HETATM   27  C10 UNL     1      25.727   6.914  49.794  1.00  0.00    -0.031 A 
HETATM   28  C11 UNL     1      26.042   7.995  49.009  1.00  0.00     0.009 A 
HETATM   29  C12 UNL     1      26.980   8.054  47.989  1.00  0.00     0.004 A 
HETATM   30  C13 UNL     1      27.658   6.869  47.762  1.00  0.00     0.042 A 
HETATM   31  C14 UNL     1      27.404   5.730  48.506  1.00  0.00     0.117 A 
HETATM   32  F1  UNL     1      28.077   4.584  48.269  1.00  0.00    -0.206 F 
HETATM   33  C15 UNL     1      26.440   5.760  49.518  1.00  0.00     0.051 A 
ENDBRANCH  26  27
ENDBRANCH  25  26
ENDBRANCH  21  25
ENDBRANCH   1  18
TORSDOF 8
ENDMDL
MODEL 2
REMARK VINA RESULT:      -8.6      4.932      8.912
REMARK  8 active torsions:
REMARK  status: ('A' for Active; 'I' for Inactive)
REMARK    1  A    between atoms: C4_6  and  N3_7 
REMARK    2  A    between atoms: N3_7  and  C5_8 
REMARK    3  A    between atoms: C8_11  and  O1_12 
REMARK    4  A    between atoms: O1_12  and  C9_13 
REMARK    5  A    between atoms: C9_13  and  C10_14 
REMARK    6  A    between atoms: C18_24  and  C19_25 
REMARK    7  A    between atoms: C20_26  and  C21_27 
REMARK    8  A    between atoms: C21_27  and  N4_28 
ROOT
HETATM    1  N3  UNL     1      27.308   6.311  48.178  1.00  0.00    -0.340 N 
HETATM    2  H5  UNL     1      27.313   6.113  47.149  1.00  0.00     0.167 HD
ENDROOT
BRANCH   1   3
HETATM    3  C4  UNL     1      27.929   7.505  48.616  1.00  0.00     0.150 A 
HETATM    4  N2  UNL     1      27.360   8.624  49.045  1.00  0.00    -0.223 NA
HETATM    5  C3  UNL     1      27.992   9.733  49.451  1.00  0.00     0.235 A 
HETATM    6  N1  UNL     1      29.321   9.746  49.433  1.00  0.00    -0.245 NA
HETATM    7  C2  UNL     1      30.030   8.678  49.022  1.00  0.00     0.054 A 
HETATM    8  C1  UNL     1      31.507   8.707  49.008  1.00  0.00     0.072 C 
HETATM    9  C18 UNL     1      29.302   7.583  48.622  1.00  0.00     0.088 A 
BRANCH   9  10
HETATM   10  C19 UNL     1      30.097   6.443  48.182  1.00  0.00    -0.059 C 
HETATM   11  C20 UNL     1      30.768   5.499  47.798  1.00  0.00    -0.070 C 
BRANCH  11  12
HETATM   12  C21 UNL     1      31.564   4.369  47.348  1.00  0.00     0.368 C 
BRANCH  12  13
HETATM   13  N4  UNL     1      32.931   4.721  47.099  1.00  0.00     0.124 N 
HETATM   14  C22 UNL     1      33.708   3.595  46.593  1.00  0.00     0.302 C 
HETATM   15  C23 UNL     1      34.663   3.337  47.745  1.00  0.00     0.200 C 
HETATM   16  O2  UNL     1      34.906   4.622  48.204  1.00  0.00    -0.361 OA
HETATM   17  C24 UNL     1      33.628   5.199  48.253  1.00  0.00     0.441 C 
ENDBRANCH  12  13
ENDBRANCH  11  12
ENDBRANCH   9  10
ENDBRANCH   1   3
BRANCH   1  18
HETATM   18  C5  UNL     1      26.672   5.339  48.988  1.00  0.00     0.035 A 
HETATM   19  C6  UNL     1      27.071   4.033  49.153  1.00  0.00     0.032 A 
HETATM   20  C7  UNL     1      26.449   3.102  49.939  1.00  0.00     0.041 A 
HETATM   21  C8  UNL     1      25.323   3.469  50.641  1.00  0.00     0.091 A 
HETATM   22  C16 UNL     1      24.876   4.766  50.516  1.00  0.00     0.069 A 
HETATM   23 CL1  UNL     1      23.440   5.297  51.390  1.00  0.00    -0.081 Cl
HETATM   24  C17 UNL     1      25.543   5.659  49.711  1.00  0.00     0.056 A 
BRANCH  21  25
HETATM   25  O1  UNL     1      24.595   2.630  51.473  1.00  0.00    -0.345 OA
BRANCH  25  26
HETATM   26  C9  UNL     1      25.086   2.469  52.788  1.00  0.00     0.214 C 
BRANCH  26  27
HETATM   27  C10 UNL     1      26.109   1.424  52.913  1.00  0.00    -0.031 A 
HETATM   28  C11 UNL     1      25.884   0.153  52.447  1.00  0.00     0.009 A 
HETATM   29  C12 UNL     1      26.748  -0.930  52.495  1.00  0.00     0.004 A 
HETATM   30  C13 UNL     1      27.970  -0.665  53.088  1.00  0.00     0.042 A 
HETATM   31  C14 UNL     1      28.281   0.589  53.586  1.00  0.00     0.117 A 
HETATM   32  F1  UNL     1      29.480   0.827  54.160  1.00  0.00    -0.206 F 
HETATM   33  C15 UNL     1      27.348   1.626  53.495  1.00  0.00     0.051 A 
ENDBRANCH  26  27
ENDBRANCH  25  26
ENDBRANCH  21  25
ENDBRANCH   1  18
TORSDOF 8
ENDMDL
MODEL 3
REMARK VINA RESULT:      -8.3      5.159      9.240
REMARK  8 active torsions:
REMARK  status: ('A' for Active; 'I' for Inactive)
REMARK    1  A    between atoms: C4_6  and  N3_7 
REMARK    2  A    between atoms: N3_7  and  C5_8 
REMARK    3  A    between atoms: C8_11  and  O1_12 
REMARK    4  A    between atoms: O1_12  and  C9_13 
REMARK    5  A    between atoms: C9_13  and  C10_14 
REMARK    6  A    between atoms: C18_24  and  C19_25 
REMARK    7  A    between atoms: C20_26  and  C21_27 
REMARK    8  A    between atoms: C21_27  and  N4_28 
ROOT
HETATM    1  N3  UNL     1      27.518   6.778  47.966  1.00  0.00    -0.340 N 
HETATM    2  H5  UNL     1      27.493   6.553  46.942  1.00  0.00     0.167 HD
ENDROOT
BRANCH   1   3
HETATM    3  C4  UNL     1      28.246   7.925  48.363  1.00  0.00     0.150 A 
HETATM    4  N2  UNL     1      27.784   9.118  48.716  1.00  0.00    -0.223 NA
HETATM    5  C3  UNL     1      28.516  10.176  49.087  1.00  0.00     0.235 A 
HETATM    6  N1  UNL     1      29.839  10.053  49.113  1.00  0.00    -0.245 NA
HETATM    7  C2  UNL     1      30.445   8.898  48.779  1.00  0.00     0.054 A 
HETATM    8  C1  UNL     1      31.917   8.776  48.813  1.00  0.00     0.072 C 
HETATM    9  C18 UNL     1      29.620   7.862  48.412  1.00  0.00     0.088 A 
BRANCH   9  10
HETATM   10  C19 UNL     1      30.304   6.626  48.056  1.00  0.00    -0.059 C 
HETATM   11  C20 UNL     1      30.887   5.600  47.745  1.00  0.00    -0.070 C 
BRANCH  11  12
HETATM   12  C21 UNL     1      31.578   4.374  47.381  1.00  0.00     0.368 C 
BRANCH  12  13
HETATM   13  N4  UNL     1      32.959   4.589  47.067  1.00  0.00     0.124 N 
HETATM   14  C22 UNL     1      33.649   3.349  46.731  1.00  0.00     0.302 C 
HETATM   15  C23 UNL     1      34.609   3.204  47.899  1.00  0.00     0.200 C 
HETATM   16  O2  UNL     1      34.946   4.525  48.154  1.00  0.00    -0.361 OA
HETATM   17  C24 UNL     1      33.710   5.188  48.127  1.00  0.00     0.441 C 
ENDBRANCH  12  13
ENDBRANCH  11  12
ENDBRANCH   9  10
ENDBRANCH   1   3
BRANCH   1  18
HETATM   18  C5  UNL     1      26.809   5.889  48.810  1.00  0.00     0.035 A 
HETATM   19  C6  UNL     1      27.067   4.548  48.975  1.00  0.00     0.032 A 
HETATM   20  C7  UNL     1      26.377   3.697  49.793  1.00  0.00     0.041 A 
HETATM   21  C8  UNL     1      25.325   4.192  50.531  1.00  0.00     0.091 A 
HETATM   22  C16 UNL     1      25.018   5.529  50.407  1.00  0.00     0.069 A 
HETATM   23 CL1  UNL     1      23.682   6.221  51.326  1.00  0.00    -0.081 Cl
HETATM   24  C17 UNL     1      25.749   6.336  49.568  1.00  0.00     0.056 A 
BRANCH  21  25
HETATM   25  O1  UNL     1      24.540   3.444  51.398  1.00  0.00    -0.345 OA
BRANCH  25  26
HETATM   26  C9  UNL     1      24.279   2.109  51.016  1.00  0.00     0.214 C 
BRANCH  26  27
HETATM   27  C10 UNL     1      24.781   1.113  51.970  1.00  0.00    -0.031 A 
HETATM   28  C11 UNL     1      26.080   0.673  51.919  1.00  0.00     0.009 A 
HETATM   29  C12 UNL     1      26.691  -0.256  52.746  1.00  0.00     0.004 A 
HETATM   30  C13 UNL     1      25.867  -0.784  53.726  1.00  0.00     0.042 A 
HETATM   31  C14 UNL     1      24.544  -0.397  53.850  1.00  0.00     0.117 A 
HETATM   32  F1  UNL     1      23.757  -0.924  54.813  1.00  0.00    -0.206 F 
HETATM   33  C15 UNL     1      24.009   0.549  52.971  1.00  0.00     0.051 A 
ENDBRANCH  26  27
ENDBRANCH  25  26
ENDBRANCH  21  25
ENDBRANCH   1  18
TORSDOF 8
ENDMDL
MODEL 4
REMARK VINA RESULT:      -8.2      5.014      9.186
REMARK  8 active torsions:
REMARK  status: ('A' for Active; 'I' for Inactive)
REMARK    1  A    between atoms: C4_6  and  N3_7 
REMARK    2  A    between atoms: N3_7  and  C5_8 
REMARK    3  A    between atoms: C8_11  and  O1_12 
REMARK    4  A    between atoms: O1_12  and  C9_13 
REMARK    5  A    between atoms: C9_13  and  C10_14 
REMARK    6  A    between atoms: C18_24  and  C19_25 
REMARK    7  A    between atoms: C20_26  and  C21_27 
REMARK    8  A    between atoms: C21_27  and  N4_28 
ROOT
HETATM    1  N3  UNL     1      27.381   6.218  48.249  1.00  0.00    -0.340 N 
HETATM    2  H5  UNL     1      27.472   5.920  47.248  1.00  0.00     0.167 HD
ENDROOT
BRANCH   1   3
HETATM    3  C4  UNL     1      28.045   7.406  48.639  1.00  0.00     0.150 A 
HETATM    4  N2  UNL     1      27.520   8.538  49.089  1.00  0.00    -0.223 NA
HETATM    5  C3  UNL     1      28.192   9.639  49.447  1.00  0.00     0.235 A 
HETATM    6  N1  UNL     1      29.518   9.630  49.353  1.00  0.00    -0.245 NA
HETATM    7  C2  UNL     1      30.184   8.547  48.912  1.00  0.00     0.054 A 
HETATM    8  C1  UNL     1      31.659   8.552  48.812  1.00  0.00     0.072 C 
HETATM    9  C18 UNL     1      29.418   7.461  48.565  1.00  0.00     0.088 A 
BRANCH   9  10
HETATM   10  C19 UNL     1      30.167   6.305  48.091  1.00  0.00    -0.059 C 
HETATM   11  C20 UNL     1      30.811   5.344  47.699  1.00  0.00    -0.070 C 
BRANCH  11  12
HETATM   12  C21 UNL     1      31.569   4.197  47.230  1.00  0.00     0.368 C 
BRANCH  12  13
HETATM   13  N4  UNL     1      32.693   3.897  48.067  1.00  0.00     0.124 N 
HETATM   14  C22 UNL     1      33.643   5.002  48.134  1.00  0.00     0.302 C 
HETATM   15  C23 UNL     1      34.847   4.416  47.416  1.00  0.00     0.200 C 
HETATM   16  O2  UNL     1      34.794   3.088  47.811  1.00  0.00    -0.361 OA
HETATM   17  C24 UNL     1      33.442   2.752  47.647  1.00  0.00     0.441 C 
ENDBRANCH  12  13
ENDBRANCH  11  12
ENDBRANCH   9  10
ENDBRANCH   1   3
BRANCH   1  18
HETATM   18  C5  UNL     1      26.596   5.375  49.073  1.00  0.00     0.035 A 
HETATM   19  C6  UNL     1      26.821   4.040  49.316  1.00  0.00     0.032 A 
HETATM   20  C7  UNL     1      26.057   3.235  50.114  1.00  0.00     0.041 A 
HETATM   21  C8  UNL     1      24.959   3.774  50.746  1.00  0.00     0.091 A 
HETATM   22  C16 UNL     1      24.683   5.107  50.541  1.00  0.00     0.069 A 
HETATM   23 CL1  UNL     1      23.291   5.855  51.323  1.00  0.00    -0.081 Cl
HETATM   24  C17 UNL     1      25.488   5.869  49.727  1.00  0.00     0.056 A 
BRANCH  21  25
HETATM   25  O1  UNL     1      24.098   3.075  51.582  1.00  0.00    -0.345 OA
BRANCH  25  26
HETATM   26  C9  UNL     1      23.535   1.891  51.054  1.00  0.00     0.214 C 
BRANCH  26  27
HETATM   27  C10 UNL     1      23.178   0.900  52.076  1.00  0.00    -0.031 A 
HETATM   28  C11 UNL     1      24.123   0.393  52.933  1.00  0.00     0.009 A 
HETATM   29  C12 UNL     1      23.935  -0.541  53.940  1.00  0.00     0.004 A 
HETATM   30  C13 UNL     1      22.634  -0.994  54.070  1.00  0.00     0.042 A 
HETATM   31  C14 UNL     1      21.619  -0.537  53.248  1.00  0.00     0.117 A 
HETATM   32  F1  UNL     1      20.355  -0.992  53.391  1.00  0.00    -0.206 F 
HETATM   33  C15 UNL     1      21.897   0.408  52.257  1.00  0.00     0.051 A 
ENDBRANCH  26  27
ENDBRANCH  25  26
ENDBRANCH  21  25
ENDBRANCH   1  18
TORSDOF 8
ENDMDL
MODEL 5
REMARK VINA RESULT:      -8.1      4.096      8.179
REMARK  8 active torsions:
REMARK  status: ('A' for Active; 'I' for Inactive)
REMARK    1  A    between atoms: C4_6  and  N3_7 
REMARK    2  A    between atoms: N3_7  and  C5_8 
REMARK    3  A    between atoms: C8_11  and  O1_12 
REMARK    4  A    between atoms: O1_12  and  C9_13 
REMARK    5  A    between atoms: C9_13  and  C10_14 
REMARK    6  A    between atoms: C18_24  and  C19_25 
REMARK    7  A    between atoms: C20_26  and  C21_27 
REMARK    8  A    between atoms: C21_27  and  N4_28 
ROOT
HETATM    1  N3  UNL     1      25.209   4.939  48.772  1.00  0.00    -0.340 N 
HETATM    2  H5  UNL     1      25.271   4.675  47.759  1.00  0.00     0.167 HD
ENDROOT
BRANCH   1   3
HETATM    3  C4  UNL     1      25.039   6.310  49.080  1.00  0.00     0.150 A 
HETATM    4  N2  UNL     1      23.933   6.945  49.447  1.00  0.00    -0.223 NA
HETATM    5  C3  UNL     1      23.821   8.249  49.729  1.00  0.00     0.235 A 
HETATM    6  N1  UNL     1      24.907   9.011  49.641  1.00  0.00    -0.245 NA
HETATM    7  C2  UNL     1      26.098   8.500  49.279  1.00  0.00     0.054 A 
HETATM    8  C1  UNL     1      27.297   9.359  49.185  1.00  0.00     0.072 C 
HETATM    9  C18 UNL     1      26.124   7.153  49.007  1.00  0.00     0.088 A 
BRANCH   9  10
HETATM   10  C19 UNL     1      27.427   6.628  48.618  1.00  0.00    -0.059 C 
HETATM   11  C20 UNL     1      28.516   6.197  48.276  1.00  0.00    -0.070 C 
BRANCH  11  12
HETATM   12  C21 UNL     1      29.814   5.680  47.876  1.00  0.00     0.368 C 
BRANCH  12  13
HETATM   13  N4  UNL     1      30.827   5.904  48.864  1.00  0.00     0.124 N 
HETATM   14  C22 UNL     1      31.168   7.316  48.998  1.00  0.00     0.302 C 
HETATM   15  C23 UNL     1      32.592   7.341  48.470  1.00  0.00     0.200 C 
HETATM   16  O2  UNL     1      33.081   6.125  48.920  1.00  0.00    -0.361 OA
HETATM   17  C24 UNL     1      32.057   5.221  48.600  1.00  0.00     0.441 C 
ENDBRANCH  12  13
ENDBRANCH  11  12
ENDBRANCH   9  10
ENDBRANCH   1   3
BRANCH   1  18
HETATM   18  C5  UNL     1      25.307   3.869  49.694  1.00  0.00     0.035 A 
HETATM   19  C6  UNL     1      26.470   3.293  50.149  1.00  0.00     0.032 A 
HETATM   20  C7  UNL     1      26.554   2.259  51.040  1.00  0.00     0.041 A 
HETATM   21  C8  UNL     1      25.391   1.723  51.548  1.00  0.00     0.091 A 
HETATM   22  C16 UNL     1      24.194   2.259  51.129  1.00  0.00     0.069 A 
HETATM   23 CL1  UNL     1      22.671   1.616  51.743  1.00  0.00    -0.081 Cl
HETATM   24  C17 UNL     1      24.172   3.299  50.230  1.00  0.00     0.056 A 
BRANCH  21  25
HETATM   25  O1  UNL     1      25.328   0.676  52.456  1.00  0.00    -0.345 OA
BRANCH  25  26
HETATM   26  C9  UNL     1      26.119   0.806  53.620  1.00  0.00     0.214 C 
BRANCH  26  27
HETATM   27  C10 UNL     1      27.385   0.067  53.560  1.00  0.00    -0.031 A 
HETATM   28  C11 UNL     1      28.579   0.680  53.846  1.00  0.00     0.009 A 
HETATM   29  C12 UNL     1      29.845   0.115  53.831  1.00  0.00     0.004 A 
HETATM   30  C13 UNL     1      29.872  -1.224  53.481  1.00  0.00     0.042 A 
HETATM   31  C14 UNL     1      28.716  -1.921  53.177  1.00  0.00     0.117 A 
HETATM   32  F1  UNL     1      28.765  -3.228  52.839  1.00  0.00    -0.206 F 
HETATM   33  C15 UNL     1      27.480  -1.271  53.218  1.00  0.00     0.051 A 
ENDBRANCH  26  27
ENDBRANCH  25  26
ENDBRANCH  21  25
ENDBRANCH   1  18
TORSDOF 8
ENDMDL
MODEL 6
REMARK VINA RESULT:      -8.1      2.156      2.982
REMARK  8 active torsions:
REMARK  status: ('A' for Active; 'I' for Inactive)
REMARK    1  A    between atoms: C4_6  and  N3_7 
REMARK    2  A    between atoms: N3_7  and  C5_8 
REMARK    3  A    between atoms: C8_11  and  O1_12 
REMARK    4  A    between atoms: O1_12  and  C9_13 
REMARK    5  A    between atoms: C9_13  and  C10_14 
REMARK    6  A    between atoms: C18_24  and  C19_25 
REMARK    7  A    between atoms: C20_26  and  C21_27 
REMARK    8  A    between atoms: C21_27  and  N4_28 
ROOT
HETATM    1  N3  UNL     1      24.120   1.952  50.823  1.00  0.00    -0.340 N 
HETATM    2  H5  UNL     1      24.728   1.106  50.708  1.00  0.00     0.167 HD
ENDROOT
BRANCH   1   3
HETATM    3  C4  UNL     1      22.819   1.753  51.344  1.00  0.00     0.150 A 
HETATM    4  N2  UNL     1      21.657   2.147  50.840  1.00  0.00    -0.223 NA
HETATM    5  C3  UNL     1      20.446   1.934  51.372  1.00  0.00     0.235 A 
HETATM    6  N1  UNL     1      20.367   1.267  52.519  1.00  0.00    -0.245 NA
HETATM    7  C2  UNL     1      21.468   0.808  53.143  1.00  0.00     0.054 A 
HETATM    8  C1  UNL     1      21.365   0.069  54.419  1.00  0.00     0.072 C 
HETATM    9  C18 UNL     1      22.669   1.070  52.529  1.00  0.00     0.088 A 
BRANCH   9  10
HETATM   10  C19 UNL     1      23.842   0.562  53.228  1.00  0.00    -0.059 C 
HETATM   11  C20 UNL     1      24.828   0.153  53.820  1.00  0.00    -0.070 C 
BRANCH  11  12
HETATM   12  C21 UNL     1      26.001  -0.341  54.522  1.00  0.00     0.368 C 
BRANCH  12  13
HETATM   13  N4  UNL     1      27.226   0.163  53.977  1.00  0.00     0.124 N 
HETATM   14  C22 UNL     1      27.681  -0.611  52.828  1.00  0.00     0.302 C 
HETATM   15  C23 UNL     1      28.944  -1.256  53.371  1.00  0.00     0.200 C 
HETATM   16  O2  UNL     1      29.442  -0.255  54.191  1.00  0.00    -0.361 OA
HETATM   17  C24 UNL     1      28.315   0.173  54.906  1.00  0.00     0.441 C 
ENDBRANCH  12  13
ENDBRANCH  11  12
ENDBRANCH   9  10
ENDBRANCH   1   3
BRANCH   1  18
HETATM   18  C5  UNL     1      24.699   3.184  50.434  1.00  0.00     0.035 A 
HETATM   19  C6  UNL     1      25.806   3.343  49.634  1.00  0.00     0.032 A 
HETATM   20  C7  UNL     1      26.358   4.539  49.264  1.00  0.00     0.041 A 
HETATM   21  C8  UNL     1      25.781   5.705  49.713  1.00  0.00     0.091 A 
HETATM   22  C16 UNL     1      24.668   5.609  50.519  1.00  0.00     0.069 A 
HETATM   23 CL1  UNL     1      23.884   7.067  51.126  1.00  0.00    -0.081 Cl
HETATM   24  C17 UNL     1      24.157   4.378  50.858  1.00  0.00     0.056 A 
BRANCH  21  25
HETATM   25  O1  UNL     1      26.234   6.983  49.417  1.00  0.00    -0.345 OA
BRANCH  25  26
HETATM   26  C9  UNL     1      26.895   7.144  48.178  1.00  0.00     0.214 C 
BRANCH  26  27
HETATM   27  C10 UNL     1      28.345   7.326  48.302  1.00  0.00    -0.031 A 
HETATM   28  C11 UNL     1      29.223   6.399  47.795  1.00  0.00     0.009 A 
HETATM   29  C12 UNL     1      30.608   6.437  47.837  1.00  0.00     0.004 A 
HETATM   30  C13 UNL     1      31.135   7.549  48.470  1.00  0.00     0.042 A 
HETATM   31  C14 UNL     1      30.324   8.532  49.009  1.00  0.00     0.117 A 
HETATM   32  F1  UNL     1      30.859   9.611  49.622  1.00  0.00    -0.206 F 
HETATM   33  C15 UNL     1      28.934   8.415  48.921  1.00  0.00     0.051 A 
ENDBRANCH  26  27
ENDBRANCH  25  26
ENDBRANCH  21  25
ENDBRANCH   1  18
TORSDOF 8
ENDMDL
MODEL 7
REMARK VINA RESULT:      -8.0      4.832      9.156
REMARK  8 active torsions:
REMARK  status: ('A' for Active; 'I' for Inactive)
REMARK    1  A    between atoms: C4_6  and  N3_7 
REMARK    2  A    between atoms: N3_7  and  C5_8 
REMARK    3  A    between atoms: C8_11  and  O1_12 
REMARK    4  A    between atoms: O1_12  and  C9_13 
REMARK    5  A    between atoms: C9_13  and  C10_14 
REMARK    6  A    between atoms: C18_24  and  C19_25 
REMARK    7  A    between atoms: C20_26  and  C21_27 
REMARK    8  A    between atoms: C21_27  and  N4_28 
ROOT
HETATM    1  N3  UNL     1      26.546   6.666  49.557  1.00  0.00    -0.340 N 
HETATM    2  H5  UNL     1      27.162   7.062  50.306  1.00  0.00     0.167 HD
ENDROOT
BRANCH   1   3
HETATM    3  C4  UNL     1      26.438   7.394  48.348  1.00  0.00     0.150 A 
HETATM    4  N2  UNL     1      25.378   8.015  47.847  1.00  0.00    -0.223 NA
HETATM    5  C3  UNL     1      25.325   8.694  46.694  1.00  0.00     0.235 A 
HETATM    6  N1  UNL     1      26.427   8.771  45.954  1.00  0.00    -0.245 NA
HETATM    7  C2  UNL     1      27.576   8.187  46.340  1.00  0.00     0.054 A 
HETATM    8  C1  UNL     1      28.793   8.281  45.507  1.00  0.00     0.072 C 
HETATM    9  C18 UNL     1      27.543   7.511  47.536  1.00  0.00     0.088 A 
BRANCH   9  10
HETATM   10  C19 UNL     1      28.801   6.890  47.928  1.00  0.00    -0.059 C 
HETATM   11  C20 UNL     1      29.861   6.368  48.237  1.00  0.00    -0.070 C 
BRANCH  11  12
HETATM   12  C21 UNL     1      31.120   5.748  48.615  1.00  0.00     0.368 C 
BRANCH  12  13
HETATM   13  N4  UNL     1      32.250   6.364  47.985  1.00  0.00     0.124 N 
HETATM   14  C22 UNL     1      33.350   5.427  47.785  1.00  0.00     0.302 C 
HETATM   15  C23 UNL     1      34.400   5.976  48.735  1.00  0.00     0.200 C 
HETATM   16  O2  UNL     1      34.189   7.343  48.630  1.00  0.00    -0.361 OA
HETATM   17  C24 UNL     1      32.795   7.466  48.718  1.00  0.00     0.441 C 
ENDBRANCH  12  13
ENDBRANCH  11  12
ENDBRANCH   9  10
ENDBRANCH   1   3
BRANCH   1  18
HETATM   18  C5  UNL     1      25.903   5.443  49.871  1.00  0.00     0.035 A 
HETATM   19  C6  UNL     1      26.325   4.187  49.503  1.00  0.00     0.032 A 
HETATM   20  C7  UNL     1      25.697   3.013  49.812  1.00  0.00     0.041 A 
HETATM   21  C8  UNL     1      24.538   3.053  50.555  1.00  0.00     0.091 A 
HETATM   22  C16 UNL     1      24.067   4.284  50.953  1.00  0.00     0.069 A 
HETATM   23 CL1  UNL     1      22.588   4.401  51.906  1.00  0.00    -0.081 Cl
HETATM   24  C17 UNL     1      24.741   5.432  50.613  1.00  0.00     0.056 A 
BRANCH  21  25
HETATM   25  O1  UNL     1      23.800   1.942  50.940  1.00  0.00    -0.345 OA
BRANCH  25  26
HETATM   26  C9  UNL     1      24.349   1.150  51.973  1.00  0.00     0.214 C 
BRANCH  26  27
HETATM   27  C10 UNL     1      23.346   0.596  52.890  1.00  0.00    -0.031 A 
HETATM   28  C11 UNL     1      22.054   1.062  52.893  1.00  0.00     0.009 A 
HETATM   29  C12 UNL     1      21.006   0.639  53.695  1.00  0.00     0.004 A 
HETATM   30  C13 UNL     1      21.333  -0.370  54.585  1.00  0.00     0.042 A 
HETATM   31  C14 UNL     1      22.611  -0.898  54.649  1.00  0.00     0.117 A 
HETATM   32  F1  UNL     1      22.908  -1.882  55.525  1.00  0.00    -0.206 F 
HETATM   33  C15 UNL     1      23.609  -0.412  53.801  1.00  0.00     0.051 A 
ENDBRANCH  26  27
ENDBRANCH  25  26
ENDBRANCH  21  25
ENDBRANCH   1  18
TORSDOF 8
ENDMDL
MODEL 8
REMARK VINA RESULT:      -7.9      3.279      4.805
REMARK  8 active torsions:
REMARK  status: ('A' for Active; 'I' for Inactive)
REMARK    1  A    between atoms: C4_6  and  N3_7 
REMARK    2  A    between atoms: N3_7  and  C5_8 
REMARK    3  A    between atoms: C8_11  and  O1_12 
REMARK    4  A    between atoms: O1_12  and  C9_13 
REMARK    5  A    between atoms: C9_13  and  C10_14 
REMARK    6  A    between atoms: C18_24  and  C19_25 
REMARK    7  A    between atoms: C20_26  and  C21_27 
REMARK    8  A    between atoms: C21_27  and  N4_28 
ROOT
HETATM    1  N3  UNL     1      24.324   4.572  50.797  1.00  0.00    -0.340 N 
HETATM    2  H5  UNL     1      24.402   4.755  51.826  1.00  0.00     0.167 HD
ENDROOT
BRANCH   1   3
HETATM    3  C4  UNL     1      23.113   4.012  50.324  1.00  0.00     0.150 A 
HETATM    4  N2  UNL     1      22.141   4.600  49.638  1.00  0.00    -0.223 NA
HETATM    5  C3  UNL     1      21.009   4.026  49.211  1.00  0.00     0.235 A 
HETATM    6  N1  UNL     1      20.809   2.741  49.485  1.00  0.00    -0.245 NA
HETATM    7  C2  UNL     1      21.712   2.019  50.173  1.00  0.00     0.054 A 
HETATM    8  C1  UNL     1      21.476   0.591  50.471  1.00  0.00     0.072 C 
HETATM    9  C18 UNL     1      22.845   2.686  50.574  1.00  0.00     0.088 A 
BRANCH   9  10
HETATM   10  C19 UNL     1      23.804   1.879  51.318  1.00  0.00    -0.059 C 
HETATM   11  C20 UNL     1      24.610   1.217  51.953  1.00  0.00    -0.070 C 
BRANCH  11  12
HETATM   12  C21 UNL     1      25.567   0.422  52.703  1.00  0.00     0.368 C 
BRANCH  12  13
HETATM   13  N4  UNL     1      26.288   1.194  53.672  1.00  0.00     0.124 N 
HETATM   14  C22 UNL     1      27.294   2.053  53.058  1.00  0.00     0.302 C 
HETATM   15  C23 UNL     1      28.583   1.423  53.557  1.00  0.00     0.200 C 
HETATM   16  O2  UNL     1      28.225   1.020  54.835  1.00  0.00    -0.361 OA
HETATM   17  C24 UNL     1      26.979   0.405  54.646  1.00  0.00     0.441 C 
ENDBRANCH  12  13
ENDBRANCH  11  12
ENDBRANCH   9  10
ENDBRANCH   1   3
BRANCH   1  18
HETATM   18  C5  UNL     1      25.458   4.917  50.023  1.00  0.00     0.035 A 
HETATM   19  C6  UNL     1      26.444   4.057  49.599  1.00  0.00     0.032 A 
HETATM   20  C7  UNL     1      27.536   4.400  48.851  1.00  0.00     0.041 A 
HETATM   21  C8  UNL     1      27.694   5.714  48.470  1.00  0.00     0.091 A 
HETATM   22  C16 UNL     1      26.738   6.623  48.865  1.00  0.00     0.069 A 
HETATM   23 CL1  UNL     1      26.885   8.319  48.409  1.00  0.00    -0.081 Cl
HETATM   24  C17 UNL     1      25.660   6.219  49.617  1.00  0.00     0.056 A 
BRANCH  21  25
HETATM   25  O1  UNL     1      28.751   6.201  47.713  1.00  0.00    -0.345 OA
BRANCH  25  26
HETATM   26  C9  UNL     1      29.923   6.548  48.422  1.00  0.00     0.214 C 
BRANCH  26  27
HETATM   27  C10 UNL     1      31.107   5.780  48.017  1.00  0.00    -0.031 A 
HETATM   28  C11 UNL     1      30.984   4.580  47.361  1.00  0.00     0.009 A 
HETATM   29  C12 UNL     1      32.003   3.751  46.921  1.00  0.00     0.004 A 
HETATM   30  C13 UNL     1      33.279   4.213  47.190  1.00  0.00     0.042 A 
HETATM   31  C14 UNL     1      33.495   5.413  47.846  1.00  0.00     0.117 A 
HETATM   32  F1  UNL     1      34.749   5.846  48.099  1.00  0.00    -0.206 F 
HETATM   33  C15 UNL     1      32.407   6.188  48.256  1.00  0.00     0.051 A 
ENDBRANCH  26  27
ENDBRANCH  25  26
ENDBRANCH  21  25
ENDBRANCH   1  18
TORSDOF 8
ENDMDL
MODEL 9
REMARK VINA RESULT:      -7.9      2.669      5.401
REMARK  8 active torsions:
REMARK  status: ('A' for Active; 'I' for Inactive)
REMARK    1  A    between atoms: C4_6  and  N3_7 
REMARK    2  A    between atoms: N3_7  and  C5_8 
REMARK    3  A    between atoms: C8_11  and  O1_12 
REMARK    4  A    between atoms: O1_12  and  C9_13 
REMARK    5  A    between atoms: C9_13  and  C10_14 
REMARK    6  A    between atoms: C18_24  and  C19_25 
REMARK    7  A    between atoms: C20_26  and  C21_27 
REMARK    8  A    between atoms: C21_27  and  N4_28 
ROOT
HETATM    1  N3  UNL     1      25.828   2.620  51.069  1.00  0.00    -0.340 N 
HETATM    2  H5  UNL     1      24.980   2.063  50.805  1.00  0.00     0.167 HD
ENDROOT
BRANCH   1   3
HETATM    3  C4  UNL     1      26.599   2.155  52.161  1.00  0.00     0.150 A 
HETATM    4  N2  UNL     1      27.851   2.457  52.479  1.00  0.00    -0.223 NA
HETATM    5  C3  UNL     1      28.540   1.990  53.528  1.00  0.00     0.235 A 
HETATM    6  N1  UNL     1      27.940   1.135  54.350  1.00  0.00    -0.245 NA
HETATM    7  C2  UNL     1      26.669   0.740  54.149  1.00  0.00     0.054 A 
HETATM    8  C1  UNL     1      26.014  -0.211  55.071  1.00  0.00     0.072 C 
HETATM    9  C18 UNL     1      26.035   1.268  53.050  1.00  0.00     0.088 A 
BRANCH   9  10
HETATM   10  C19 UNL     1      24.661   0.822  52.858  1.00  0.00    -0.059 C 
HETATM   11  C20 UNL     1      23.507   0.451  52.715  1.00  0.00    -0.070 C 
BRANCH  11  12
HETATM   12  C21 UNL     1      22.134   0.008  52.537  1.00  0.00     0.368 C 
BRANCH  12  13
HETATM   13  N4  UNL     1      21.389   0.857  51.655  1.00  0.00     0.124 N 
HETATM   14  C22 UNL     1      21.540   2.269  51.989  1.00  0.00     0.302 C 
HETATM   15  C23 UNL     1      20.141   2.625  52.461  1.00  0.00     0.200 C 
HETATM   16  O2  UNL     1      19.353   1.851  51.622  1.00  0.00    -0.361 OA
HETATM   17  C24 UNL     1      19.982   0.597  51.649  1.00  0.00     0.441 C 
ENDBRANCH  12  13
ENDBRANCH  11  12
ENDBRANCH   9  10
ENDBRANCH   1   3
BRANCH   1  18
HETATM   18  C5  UNL     1      26.080   3.770  50.282  1.00  0.00     0.035 A 
HETATM   19  C6  UNL     1      27.079   3.910  49.347  1.00  0.00     0.032 A 
HETATM   20  C7  UNL     1      27.313   5.026  48.592  1.00  0.00     0.041 A 
HETATM   21  C8  UNL     1      26.497   6.123  48.754  1.00  0.00     0.091 A 
HETATM   22  C16 UNL     1      25.478   6.041  49.677  1.00  0.00     0.069 A 
HETATM   23 CL1  UNL     1      24.400   7.413  49.930  1.00  0.00    -0.081 Cl
HETATM   24  C17 UNL     1      25.290   4.892  50.408  1.00  0.00     0.056 A 
BRANCH  21  25
HETATM   25  O1  UNL     1      26.620   7.316  48.056  1.00  0.00    -0.345 OA
BRANCH  25  26
HETATM   26  C9  UNL     1      27.829   7.509  47.350  1.00  0.00     0.214 C 
BRANCH  26  27
HETATM   27  C10 UNL     1      28.810   8.329  48.070  1.00  0.00    -0.031 A 
HETATM   28  C11 UNL     1      28.613   9.676  48.250  1.00  0.00     0.009 A 
HETATM   29  C12 UNL     1      29.446  10.571  48.903  1.00  0.00     0.004 A 
HETATM   30  C13 UNL     1      30.600  10.010  49.422  1.00  0.00     0.042 A 
HETATM   31  C14 UNL     1      30.878   8.661  49.287  1.00  0.00     0.117 A 
HETATM   32  F1  UNL     1      32.010   8.134  49.802  1.00  0.00    -0.206 F 
HETATM   33  C15 UNL     1      29.981   7.829  48.612  1.00  0.00     0.051 A 
ENDBRANCH  26  27
ENDBRANCH  25  26
ENDBRANCH  21  25
ENDBRANCH   1  18
TORSDOF 8
ENDMDL
