MODEL 1
REMARK VINA RESULT:      -7.5      0.000      0.000
REMARK  5 active torsions:
REMARK  status: ('A' for Active; 'I' for Inactive)
REMARK    1  A    between atoms: C2_2  and  N1_3 
REMARK    2  A    between atoms: N1_3  and  C3_4 
REMARK    3  A    between atoms: N1_3  and  C9_10 
REMARK    4  A    between atoms: C15_18  and  C16_19 
REMARK    5  A    between atoms: C16_19  and  N4_20 
REMARK       I    between atoms: N5_24  and  C20_25 
ROOT
HETATM    1  C9  UNL     1      21.872   4.569  49.884  1.00  0.00     0.127 C 
HETATM    2  C10 UNL     1      20.754   5.645  49.839  1.00  0.00     0.068 C 
HETATM    3  C11 UNL     1      21.364   3.265  49.384  1.00  0.00     0.045 C 
HETATM    4  C12 UNL     1      21.391   2.018  49.801  1.00  0.00     0.118 C 
HETATM    5  N2  UNL     1      21.307   0.661  50.059  1.00  0.00    -0.256 NA
HETATM    6  C13 UNL     1      21.310   0.089  51.212  1.00  0.00     0.206 C 
HETATM    7  N3  UNL     1      21.382   0.337  52.647  1.00  0.00    -0.360 N 
HETATM    8  C14 UNL     1      22.786   0.336  52.905  1.00  0.00     0.097 C 
HETATM    9  C15 UNL     1      23.996   0.849  53.035  1.00  0.00    -0.018 C 
HETATM   10  C17 UNL     1      24.494   2.247  52.951  1.00  0.00    -0.010 C 
HETATM   11  C18 UNL     1      23.589   3.233  52.723  1.00  0.00     0.036 C 
HETATM   12  C19 UNL     1      22.862   4.461  52.490  1.00  0.00     0.138 C 
HETATM   13  N5  UNL     1      22.076   4.393  51.278  1.00  0.00    -0.322 N 
HETATM   14  C20 UNL     1      20.733   3.906  51.685  1.00  0.00     0.218 C 
HETATM   15  C21 UNL     1      19.385   3.566  51.257  1.00  0.00     0.117 C 
HETATM   16  O1  UNL     1      20.710   3.677  52.954  1.00  0.00    -0.274 OA
HETATM   17  H17 UNL     1      20.601   0.475  53.301  1.00  0.00     0.166 HD
ENDROOT
BRANCH   1  18
HETATM   18  N1  UNL     1      22.816   5.001  48.970  1.00  0.00    -0.351 N 
BRANCH  18  19
HETATM   19  C2  UNL     1      22.393   5.827  47.876  1.00  0.00     0.121 C 
HETATM   20  C1  UNL     1      22.317   5.174  46.537  1.00  0.00     0.026 C 
ENDBRANCH  18  19
BRANCH  18  21
HETATM   21  C3  UNL     1      24.223   4.757  49.005  1.00  0.00     0.032 A 
HETATM   22  C4  UNL     1      24.870   3.595  49.354  1.00  0.00     0.029 A 
HETATM   23  C5  UNL     1      26.221   3.383  49.466  1.00  0.00     0.002 A 
HETATM   24  C6  UNL     1      27.051   4.450  49.200  1.00  0.00     0.000 A 
HETATM   25  C7  UNL     1      26.506   5.661  48.839  1.00  0.00     0.002 A 
HETATM   26  C8  UNL     1      25.140   5.785  48.752  1.00  0.00     0.029 A 
ENDBRANCH  18  21
ENDBRANCH   1  18
BRANCH   9  27
HETATM   27  C16 UNL     1      25.086  -0.135  53.401  1.00  0.00     0.306 C 
BRANCH  27  28
HETATM   28  N4  UNL     1      26.085  -0.067  52.379  1.00  0.00     0.082 N 
HETATM   29  H21 UNL     1      26.424  -1.009  52.084  1.00  0.00     0.313 HD
HETATM   30  H22 UNL     1      25.632   0.355  51.516  1.00  0.00     0.313 HD
ENDBRANCH  27  28
ENDBRANCH   9  27
TORSDOF 5
ENDMDL
MODEL 2
REMARK VINA RESULT:      -7.3      1.819      5.505
REMARK  5 active torsions:
REMARK  status: ('A' for Active; 'I' for Inactive)
REMARK    1  A    between atoms: C2_2  and  N1_3 
REMARK    2  A    between atoms: N1_3  and  C3_4 
REMARK    3  A    between atoms: N1_3  and  C9_10 
REMARK    4  A    between atoms: C15_18  and  C16_19 
REMARK    5  A    between atoms: C16_19  and  N4_20 
REMARK       I    between atoms: N5_24  and  C20_25 
ROOT
HETATM    1  C9  UNL     1      21.163   1.818  51.518  1.00  0.00     0.127 C 
HETATM    2  C10 UNL     1      19.835   1.073  51.214  1.00  0.00     0.068 C 
HETATM    3  C11 UNL     1      20.890   3.156  52.107  1.00  0.00     0.045 C 
HETATM    4  C12 UNL     1      21.298   4.387  51.885  1.00  0.00     0.118 C 
HETATM    5  N2  UNL     1      21.594   5.736  51.816  1.00  0.00    -0.256 NA
HETATM    6  C13 UNL     1      21.969   6.395  50.775  1.00  0.00     0.206 C 
HETATM    7  N3  UNL     1      22.272   6.276  49.355  1.00  0.00    -0.360 N 
HETATM    8  C14 UNL     1      23.657   5.934  49.346  1.00  0.00     0.097 C 
HETATM    9  C15 UNL     1      24.710   5.137  49.355  1.00  0.00    -0.018 C 
HETATM   10  C17 UNL     1      24.832   3.656  49.320  1.00  0.00    -0.010 C 
HETATM   11  C18 UNL     1      23.691   2.924  49.243  1.00  0.00     0.036 C 
HETATM   12  C19 UNL     1      22.660   1.913  49.167  1.00  0.00     0.138 C 
HETATM   13  N5  UNL     1      21.683   2.068  50.221  1.00  0.00    -0.322 N 
HETATM   14  C20 UNL     1      20.607   2.926  49.663  1.00  0.00     0.218 C 
HETATM   15  C21 UNL     1      19.321   3.566  49.896  1.00  0.00     0.117 C 
HETATM   16  O1  UNL     1      20.898   3.274  48.456  1.00  0.00    -0.274 OA
HETATM   17  H17 UNL     1      21.630   6.411  48.562  1.00  0.00     0.166 HD
ENDROOT
BRANCH   1  18
HETATM   18  N1  UNL     1      21.770   1.069  52.510  1.00  0.00    -0.351 N 
BRANCH  18  19
HETATM   19  C2  UNL     1      20.977   0.129  53.250  1.00  0.00     0.121 C 
HETATM   20  C1  UNL     1      20.792   0.410  54.703  1.00  0.00     0.026 C 
ENDBRANCH  18  19
BRANCH  18  21
HETATM   21  C3  UNL     1      23.151   1.079  52.873  1.00  0.00     0.032 A 
HETATM   22  C4  UNL     1      23.987   2.165  52.981  1.00  0.00     0.029 A 
HETATM   23  C5  UNL     1      25.333   2.169  53.252  1.00  0.00     0.002 A 
HETATM   24  C6  UNL     1      25.941   0.949  53.443  1.00  0.00     0.000 A 
HETATM   25  C7  UNL     1      25.194  -0.204  53.358  1.00  0.00     0.002 A 
HETATM   26  C8  UNL     1      23.851  -0.117  53.083  1.00  0.00     0.029 A 
ENDBRANCH  18  21
ENDBRANCH   1  18
BRANCH   9  27
HETATM   27  C16 UNL     1      26.054   5.831  49.328  1.00  0.00     0.306 C 
BRANCH  27  28
HETATM   28  N4  UNL     1      26.058   6.796  50.385  1.00  0.00     0.082 N 
HETATM   29  H21 UNL     1      26.750   7.561  50.228  1.00  0.00     0.313 HD
HETATM   30  H22 UNL     1      25.107   7.270  50.390  1.00  0.00     0.313 HD
ENDBRANCH  27  28
ENDBRANCH   9  27
TORSDOF 5
ENDMDL
MODEL 3
REMARK VINA RESULT:      -7.3      2.591      5.735
REMARK  5 active torsions:
REMARK  status: ('A' for Active; 'I' for Inactive)
REMARK    1  A    between atoms: C2_2  and  N1_3 
REMARK    2  A    between atoms: N1_3  and  C3_4 
REMARK    3  A    between atoms: N1_3  and  C9_10 
REMARK    4  A    between atoms: C15_18  and  C16_19 
REMARK    5  A    between atoms: C16_19  and  N4_20 
REMARK       I    between atoms: N5_24  and  C20_25 
ROOT
HETATM    1  C9  UNL     1      23.195   1.689  52.384  1.00  0.00     0.127 C 
HETATM    2  C10 UNL     1      24.062   2.822  52.996  1.00  0.00     0.068 C 
HETATM    3  C11 UNL     1      23.334   1.666  50.904  1.00  0.00     0.045 C 
HETATM    4  C12 UNL     1      22.510   1.621  49.879  1.00  0.00     0.118 C 
HETATM    5  N2  UNL     1      21.824   1.578  48.678  1.00  0.00    -0.256 NA
HETATM    6  C13 UNL     1      20.637   2.018  48.448  1.00  0.00     0.206 C 
HETATM    7  N3  UNL     1      19.487   2.673  49.058  1.00  0.00    -0.360 N 
HETATM    8  C14 UNL     1      18.728   1.581  49.573  1.00  0.00     0.097 C 
HETATM    9  C15 UNL     1      18.340   0.684  50.463  1.00  0.00    -0.018 C 
HETATM   10  C17 UNL     1      18.735   0.458  51.879  1.00  0.00    -0.010 C 
HETATM   11  C18 UNL     1      19.640   1.305  52.431  1.00  0.00     0.036 C 
HETATM   12  C19 UNL     1      20.571   2.039  53.260  1.00  0.00     0.138 C 
HETATM   13  N5  UNL     1      21.873   2.138  52.639  1.00  0.00    -0.322 N 
HETATM   14  C20 UNL     1      21.867   3.405  51.867  1.00  0.00     0.218 C 
HETATM   15  C21 UNL     1      22.624   4.311  51.015  1.00  0.00     0.117 C 
HETATM   16  O1  UNL     1      20.719   3.982  51.970  1.00  0.00    -0.274 OA
HETATM   17  H17 UNL     1      19.286   3.681  49.098  1.00  0.00     0.166 HD
ENDROOT
BRANCH   1  18
HETATM   18  N1  UNL     1      23.764   0.518  52.851  1.00  0.00    -0.351 N 
BRANCH  18  19
HETATM   19  C2  UNL     1      22.923  -0.628  53.053  1.00  0.00     0.121 C 
HETATM   20  C1  UNL     1      22.472  -0.887  54.451  1.00  0.00     0.026 C 
ENDBRANCH  18  19
BRANCH  18  21
HETATM   21  C3  UNL     1      25.145   0.281  53.126  1.00  0.00     0.032 A 
HETATM   22  C4  UNL     1      26.099  -0.231  52.279  1.00  0.00     0.029 A 
HETATM   23  C5  UNL     1      27.407  -0.534  52.565  1.00  0.00     0.002 A 
HETATM   24  C6  UNL     1      27.839  -0.304  53.853  1.00  0.00     0.000 A 
HETATM   25  C7  UNL     1      26.964   0.209  54.783  1.00  0.00     0.002 A 
HETATM   26  C8  UNL     1      25.670   0.484  54.409  1.00  0.00     0.029 A 
ENDBRANCH  18  21
ENDBRANCH   1  18
BRANCH   9  27
HETATM   27  C16 UNL     1      17.247  -0.257  50.008  1.00  0.00     0.306 C 
BRANCH  27  28
HETATM   28  N4  UNL     1      16.606   0.345  48.878  1.00  0.00     0.082 N 
HETATM   29  H21 UNL     1      16.037  -0.335  48.329  1.00  0.00     0.313 HD
HETATM   30  H22 UNL     1      15.915   1.062  49.247  1.00  0.00     0.313 HD
ENDBRANCH  27  28
ENDBRANCH   9  27
TORSDOF 5
ENDMDL
MODEL 4
REMARK VINA RESULT:      -7.0      2.174      6.199
REMARK  5 active torsions:
REMARK  status: ('A' for Active; 'I' for Inactive)
REMARK    1  A    between atoms: C2_2  and  N1_3 
REMARK    2  A    between atoms: N1_3  and  C3_4 
REMARK    3  A    between atoms: N1_3  and  C9_10 
REMARK    4  A    between atoms: C15_18  and  C16_19 
REMARK    5  A    between atoms: C16_19  and  N4_20 
REMARK       I    between atoms: N5_24  and  C20_25 
ROOT
HETATM    1  C9  UNL     1      22.440   2.583  51.168  1.00  0.00     0.127 C 
HETATM    2  C10 UNL     1      21.547   1.446  50.600  1.00  0.00     0.068 C 
HETATM    3  C11 UNL     1      21.615   3.765  51.529  1.00  0.00     0.045 C 
HETATM    4  C12 UNL     1      21.669   5.060  51.303  1.00  0.00     0.118 C 
HETATM    5  N2  UNL     1      21.543   6.432  51.182  1.00  0.00    -0.256 NA
HETATM    6  C13 UNL     1      21.973   7.168  50.217  1.00  0.00     0.206 C 
HETATM    7  N3  UNL     1      22.683   7.141  48.945  1.00  0.00    -0.360 N 
HETATM    8  C14 UNL     1      24.050   7.264  49.334  1.00  0.00     0.097 C 
HETATM    9  C15 UNL     1      25.250   6.851  49.698  1.00  0.00    -0.018 C 
HETATM   10  C17 UNL     1      25.827   5.488  49.842  1.00  0.00    -0.010 C 
HETATM   11  C18 UNL     1      25.036   4.426  49.540  1.00  0.00     0.036 C 
HETATM   12  C19 UNL     1      24.431   3.135  49.295  1.00  0.00     0.138 C 
HETATM   13  N5  UNL     1      23.199   2.976  50.035  1.00  0.00    -0.322 N 
HETATM   14  C20 UNL     1      22.114   3.436  49.132  1.00  0.00     0.218 C 
HETATM   15  C21 UNL     1      20.682   3.628  48.955  1.00  0.00     0.117 C 
HETATM   16  O1  UNL     1      22.610   3.849  48.016  1.00  0.00    -0.274 OA
HETATM   17  H17 UNL     1      22.281   7.055  48.002  1.00  0.00     0.166 HD
ENDROOT
BRANCH   1  18
HETATM   18  N1  UNL     1      22.944   2.077  52.352  1.00  0.00    -0.351 N 
BRANCH  18  19
HETATM   19  C2  UNL     1      24.038   2.757  52.986  1.00  0.00     0.121 C 
HETATM   20  C1  UNL     1      25.396   2.174  52.780  1.00  0.00     0.026 C 
ENDBRANCH  18  19
BRANCH  18  21
HETATM   21  C3  UNL     1      22.465   0.945  53.078  1.00  0.00     0.032 A 
HETATM   22  C4  UNL     1      22.984  -0.328  53.096  1.00  0.00     0.029 A 
HETATM   23  C5  UNL     1      22.478  -1.437  53.729  1.00  0.00     0.002 A 
HETATM   24  C6  UNL     1      21.309  -1.278  54.439  1.00  0.00     0.000 A 
HETATM   25  C7  UNL     1      20.705  -0.042  54.488  1.00  0.00     0.002 A 
HETATM   26  C8  UNL     1      21.281   1.015  53.825  1.00  0.00     0.029 A 
ENDBRANCH  18  21
ENDBRANCH   1  18
BRANCH   9  27
HETATM   27  C16 UNL     1      26.266   7.941  49.957  1.00  0.00     0.306 C 
BRANCH  27  28
HETATM   28  N4  UNL     1      27.528   7.476  49.465  1.00  0.00     0.082 N 
HETATM   29  H21 UNL     1      27.764   6.518  49.805  1.00  0.00     0.313 HD
HETATM   30  H22 UNL     1      27.448   7.391  48.409  1.00  0.00     0.313 HD
ENDBRANCH  27  28
ENDBRANCH   9  27
TORSDOF 5
ENDMDL
MODEL 5
REMARK VINA RESULT:      -6.8      7.324     10.955
REMARK  5 active torsions:
REMARK  status: ('A' for Active; 'I' for Inactive)
REMARK    1  A    between atoms: C2_2  and  N1_3 
REMARK    2  A    between atoms: N1_3  and  C3_4 
REMARK    3  A    between atoms: N1_3  and  C9_10 
REMARK    4  A    between atoms: C15_18  and  C16_19 
REMARK    5  A    between atoms: C16_19  and  N4_20 
REMARK       I    between atoms: N5_24  and  C20_25 
ROOT
HETATM    1  C9  UNL     1      33.037   7.413  45.851  1.00  0.00     0.127 C 
HETATM    2  C10 UNL     1      34.284   8.338  45.873  1.00  0.00     0.068 C 
HETATM    3  C11 UNL     1      32.020   7.928  44.898  1.00  0.00     0.045 C 
HETATM    4  C12 UNL     1      30.726   8.167  44.934  1.00  0.00     0.118 C 
HETATM    5  N2  UNL     1      29.390   8.482  44.765  1.00  0.00    -0.256 NA
HETATM    6  C13 UNL     1      28.560   8.853  45.677  1.00  0.00     0.206 C 
HETATM    7  N3  UNL     1      28.425   9.131  47.101  1.00  0.00    -0.360 N 
HETATM    8  C14 UNL     1      28.093   7.857  47.649  1.00  0.00     0.097 C 
HETATM    9  C15 UNL     1      28.316   6.670  48.183  1.00  0.00    -0.018 C 
HETATM   10  C17 UNL     1      29.570   5.998  48.617  1.00  0.00    -0.010 C 
HETATM   11  C18 UNL     1      30.736   6.682  48.490  1.00  0.00     0.036 C 
HETATM   12  C19 UNL     1      32.099   7.166  48.466  1.00  0.00     0.138 C 
HETATM   13  N5  UNL     1      32.485   7.607  47.145  1.00  0.00    -0.322 N 
HETATM   14  C20 UNL     1      32.178   9.059  47.089  1.00  0.00     0.218 C 
HETATM   15  C21 UNL     1      32.218  10.278  46.295  1.00  0.00     0.117 C 
HETATM   16  O1  UNL     1      31.650   9.444  48.200  1.00  0.00    -0.274 OA
HETATM   17  H17 UNL     1      28.543  10.034  47.579  1.00  0.00     0.166 HD
ENDROOT
BRANCH   1  18
HETATM   18  N1  UNL     1      33.494   6.216  45.331  1.00  0.00    -0.351 N 
BRANCH  18  19
HETATM   19  C2  UNL     1      34.087   6.210  44.024  1.00  0.00     0.121 C 
HETATM   20  C1  UNL     1      33.611   5.159  43.079  1.00  0.00     0.026 C 
ENDBRANCH  18  19
BRANCH  18  21
HETATM   21  C3  UNL     1      33.491   4.941  45.974  1.00  0.00     0.032 A 
HETATM   22  C4  UNL     1      32.433   4.078  46.133  1.00  0.00     0.029 A 
HETATM   23  C5  UNL     1      32.409   2.889  46.820  1.00  0.00     0.002 A 
HETATM   24  C6  UNL     1      33.577   2.493  47.433  1.00  0.00     0.000 A 
HETATM   25  C7  UNL     1      34.699   3.284  47.335  1.00  0.00     0.002 A 
HETATM   26  C8  UNL     1      34.634   4.459  46.626  1.00  0.00     0.029 A 
ENDBRANCH  18  21
ENDBRANCH   1  18
BRANCH   9  27
HETATM   27  C16 UNL     1      27.084   5.845  48.482  1.00  0.00     0.306 C 
BRANCH  27  28
HETATM   28  N4  UNL     1      27.468   4.820  49.404  1.00  0.00     0.082 N 
HETATM   29  H21 UNL     1      28.371   5.028  49.883  1.00  0.00     0.313 HD
HETATM   30  H22 UNL     1      26.737   4.793  50.175  1.00  0.00     0.313 HD
ENDBRANCH  27  28
ENDBRANCH   9  27
TORSDOF 5
ENDMDL
MODEL 6
REMARK VINA RESULT:      -6.6      2.140      5.491
REMARK  5 active torsions:
REMARK  status: ('A' for Active; 'I' for Inactive)
REMARK    1  A    between atoms: C2_2  and  N1_3 
REMARK    2  A    between atoms: N1_3  and  C3_4 
REMARK    3  A    between atoms: N1_3  and  C9_10 
REMARK    4  A    between atoms: C15_18  and  C16_19 
REMARK    5  A    between atoms: C16_19  and  N4_20 
REMARK       I    between atoms: N5_24  and  C20_25 
ROOT
HETATM    1  C9  UNL     1      19.744   2.929  50.930  1.00  0.00     0.127 C 
HETATM    2  C10 UNL     1      18.297   3.301  50.509  1.00  0.00     0.068 C 
HETATM    3  C11 UNL     1      20.307   3.964  51.837  1.00  0.00     0.045 C 
HETATM    4  C12 UNL     1      21.426   4.653  51.904  1.00  0.00     0.118 C 
HETATM    5  N2  UNL     1      22.515   5.469  52.153  1.00  0.00    -0.256 NA
HETATM    6  C13 UNL     1      23.350   5.932  51.290  1.00  0.00     0.206 C 
HETATM    7  N3  UNL     1      23.685   5.951  49.872  1.00  0.00    -0.360 N 
HETATM    8  C14 UNL     1      24.527   4.810  49.723  1.00  0.00     0.097 C 
HETATM    9  C15 UNL     1      24.827   3.544  49.494  1.00  0.00    -0.018 C 
HETATM   10  C17 UNL     1      23.987   2.383  49.095  1.00  0.00    -0.010 C 
HETATM   11  C18 UNL     1      22.662   2.596  48.890  1.00  0.00     0.036 C 
HETATM   12  C19 UNL     1      21.244   2.533  48.613  1.00  0.00     0.138 C 
HETATM   13  N5  UNL     1      20.463   3.054  49.712  1.00  0.00    -0.322 N 
HETATM   14  C20 UNL     1      20.254   4.495  49.425  1.00  0.00     0.218 C 
HETATM   15  C21 UNL     1      19.647   5.744  49.859  1.00  0.00     0.117 C 
HETATM   16  O1  UNL     1      20.849   4.819  48.327  1.00  0.00    -0.274 OA
HETATM   17  H17 UNL     1      23.380   6.631  49.163  1.00  0.00     0.166 HD
ENDROOT
BRANCH   1  18
HETATM   18  N1  UNL     1      19.608   1.778  51.683  1.00  0.00    -0.351 N 
BRANCH  18  19
HETATM   19  C2  UNL     1      18.325   1.137  51.744  1.00  0.00     0.121 C 
HETATM   20  C1  UNL     1      18.185  -0.149  51.001  1.00  0.00     0.026 C 
ENDBRANCH  18  19
BRANCH  18  21
HETATM   21  C3  UNL     1      20.635   1.092  52.400  1.00  0.00     0.032 A 
HETATM   22  C4  UNL     1      21.830   0.617  51.915  1.00  0.00     0.029 A 
HETATM   23  C5  UNL     1      22.782  -0.113  52.584  1.00  0.00     0.002 A 
HETATM   24  C6  UNL     1      22.530  -0.418  53.903  1.00  0.00     0.000 A 
HETATM   25  C7  UNL     1      21.361   0.011  54.489  1.00  0.00     0.002 A 
HETATM   26  C8  UNL     1      20.463   0.737  53.745  1.00  0.00     0.029 A 
ENDBRANCH  18  21
ENDBRANCH   1  18
BRANCH   9  27
HETATM   27  C16 UNL     1      26.296   3.194  49.581  1.00  0.00     0.306 C 
BRANCH  27  28
HETATM   28  N4  UNL     1      26.746   3.560  50.890  1.00  0.00     0.082 N 
HETATM   29  H21 UNL     1      27.676   3.149  51.125  1.00  0.00     0.313 HD
HETATM   30  H22 UNL     1      26.891   4.613  50.895  1.00  0.00     0.313 HD
ENDBRANCH  27  28
ENDBRANCH   9  27
TORSDOF 5
ENDMDL
MODEL 7
REMARK VINA RESULT:      -6.6      2.122      5.809
REMARK  5 active torsions:
REMARK  status: ('A' for Active; 'I' for Inactive)
REMARK    1  A    between atoms: C2_2  and  N1_3 
REMARK    2  A    between atoms: N1_3  and  C3_4 
REMARK    3  A    between atoms: N1_3  and  C9_10 
REMARK    4  A    between atoms: C15_18  and  C16_19 
REMARK    5  A    between atoms: C16_19  and  N4_20 
REMARK       I    between atoms: N5_24  and  C20_25 
ROOT
HETATM    1  C9  UNL     1      23.428   2.794  51.495  1.00  0.00     0.127 C 
HETATM    2  C10 UNL     1      24.518   3.884  51.686  1.00  0.00     0.068 C 
HETATM    3  C11 UNL     1      23.389   2.336  50.081  1.00  0.00     0.045 C 
HETATM    4  C12 UNL     1      22.454   2.152  49.174  1.00  0.00     0.118 C 
HETATM    5  N2  UNL     1      21.634   1.897  48.089  1.00  0.00    -0.256 NA
HETATM    6  C13 UNL     1      20.505   2.456  47.823  1.00  0.00     0.206 C 
HETATM    7  N3  UNL     1      19.544   3.445  48.291  1.00  0.00    -0.360 N 
HETATM    8  C14 UNL     1      18.697   2.689  49.155  1.00  0.00     0.097 C 
HETATM    9  C15 UNL     1      18.288   2.158  50.293  1.00  0.00    -0.018 C 
HETATM   10  C17 UNL     1      18.807   2.269  51.682  1.00  0.00    -0.010 C 
HETATM   11  C18 UNL     1      19.886   3.065  51.898  1.00  0.00     0.036 C 
HETATM   12  C19 UNL     1      21.004   3.827  52.408  1.00  0.00     0.138 C 
HETATM   13  N5  UNL     1      22.226   3.520  51.698  1.00  0.00    -0.322 N 
HETATM   14  C20 UNL     1      22.316   4.503  50.589  1.00  0.00     0.218 C 
HETATM   15  C21 UNL     1      23.093   4.989  49.459  1.00  0.00     0.117 C 
HETATM   16  O1  UNL     1      21.285   5.277  50.597  1.00  0.00    -0.274 OA
HETATM   17  H17 UNL     1      19.499   4.443  48.047  1.00  0.00     0.166 HD
ENDROOT
BRANCH   1  18
HETATM   18  N1  UNL     1      23.869   1.719  52.245  1.00  0.00    -0.351 N 
BRANCH  18  19
HETATM   19  C2  UNL     1      25.258   1.642  52.596  1.00  0.00     0.121 C 
HETATM   20  C1  UNL     1      26.066   0.597  51.902  1.00  0.00     0.026 C 
ENDBRANCH  18  19
BRANCH  18  21
HETATM   21  C3  UNL     1      23.075   0.656  52.775  1.00  0.00     0.032 A 
HETATM   22  C4  UNL     1      21.871   0.188  52.307  1.00  0.00     0.029 A 
HETATM   23  C5  UNL     1      21.068  -0.778  52.861  1.00  0.00     0.002 A 
HETATM   24  C6  UNL     1      21.503  -1.365  54.029  1.00  0.00     0.000 A 
HETATM   25  C7  UNL     1      22.700  -0.970  54.584  1.00  0.00     0.002 A 
HETATM   26  C8  UNL     1      23.440   0.006  53.962  1.00  0.00     0.029 A 
ENDBRANCH  18  21
ENDBRANCH   1  18
BRANCH   9  27
HETATM   27  C16 UNL     1      17.023   1.332  50.211  1.00  0.00     0.306 C 
BRANCH  27  28
HETATM   28  N4  UNL     1      17.324   0.163  49.442  1.00  0.00     0.082 N 
HETATM   29  H21 UNL     1      18.348   0.034  49.290  1.00  0.00     0.313 HD
HETATM   30  H22 UNL     1      17.012  -0.681  50.008  1.00  0.00     0.313 HD
ENDBRANCH  27  28
ENDBRANCH   9  27
TORSDOF 5
ENDMDL
MODEL 8
REMARK VINA RESULT:      -6.5      1.640      2.853
REMARK  5 active torsions:
REMARK  status: ('A' for Active; 'I' for Inactive)
REMARK    1  A    between atoms: C2_2  and  N1_3 
REMARK    2  A    between atoms: N1_3  and  C3_4 
REMARK    3  A    between atoms: N1_3  and  C9_10 
REMARK    4  A    between atoms: C15_18  and  C16_19 
REMARK    5  A    between atoms: C16_19  and  N4_20 
REMARK       I    between atoms: N5_24  and  C20_25 
ROOT
HETATM    1  C9  UNL     1      23.980   5.132  49.719  1.00  0.00     0.127 C 
HETATM    2  C10 UNL     1      23.413   6.538  49.384  1.00  0.00     0.068 C 
HETATM    3  C11 UNL     1      23.446   4.114  48.776  1.00  0.00     0.045 C 
HETATM    4  C12 UNL     1      22.892   2.926  48.884  1.00  0.00     0.118 C 
HETATM    5  N2  UNL     1      22.297   1.681  48.779  1.00  0.00    -0.256 NA
HETATM    6  C13 UNL     1      21.543   1.107  49.650  1.00  0.00     0.206 C 
HETATM    7  N3  UNL     1      20.938   1.263  50.966  1.00  0.00    -0.360 N 
HETATM    8  C14 UNL     1      21.939   0.751  51.844  1.00  0.00     0.097 C 
HETATM    9  C15 UNL     1      23.000   0.792  52.631  1.00  0.00    -0.018 C 
HETATM   10  C17 UNL     1      23.852   1.922  53.088  1.00  0.00    -0.010 C 
HETATM   11  C18 UNL     1      23.524   3.174  52.676  1.00  0.00     0.036 C 
HETATM   12  C19 UNL     1      23.413   4.588  52.395  1.00  0.00     0.138 C 
HETATM   13  N5  UNL     1      23.379   4.847  50.973  1.00  0.00    -0.322 N 
HETATM   14  C20 UNL     1      21.944   4.859  50.591  1.00  0.00     0.218 C 
HETATM   15  C21 UNL     1      20.975   5.038  49.520  1.00  0.00     0.117 C 
HETATM   16  O1  UNL     1      21.209   4.610  51.620  1.00  0.00    -0.274 OA
HETATM   17  H17 UNL     1      20.012   1.649  51.191  1.00  0.00     0.166 HD
ENDROOT
BRANCH   1  18
HETATM   18  N1  UNL     1      25.337   5.229  49.468  1.00  0.00    -0.351 N 
BRANCH  18  19
HETATM   19  C2  UNL     1      26.087   4.027  49.241  1.00  0.00     0.121 C 
HETATM   20  C1  UNL     1      26.547   3.288  50.453  1.00  0.00     0.026 C 
ENDBRANCH  18  19
BRANCH  18  21
HETATM   21  C3  UNL     1      26.108   6.426  49.357  1.00  0.00     0.032 A 
HETATM   22  C4  UNL     1      26.096   7.519  50.190  1.00  0.00     0.029 A 
HETATM   23  C5  UNL     1      26.777   8.702  50.040  1.00  0.00     0.002 A 
HETATM   24  C6  UNL     1      27.576   8.832  48.926  1.00  0.00     0.000 A 
HETATM   25  C7  UNL     1      27.660   7.795  48.025  1.00  0.00     0.002 A 
HETATM   26  C8  UNL     1      26.944   6.644  48.254  1.00  0.00     0.029 A 
ENDBRANCH  18  21
ENDBRANCH   1  18
BRANCH   9  27
HETATM   27  C16 UNL     1      23.406  -0.528  53.248  1.00  0.00     0.306 C 
BRANCH  27  28
HETATM   28  N4  UNL     1      22.210  -1.282  53.473  1.00  0.00     0.082 N 
HETATM   29  H21 UNL     1      21.445  -0.708  53.890  1.00  0.00     0.313 HD
HETATM   30  H22 UNL     1      21.846  -1.594  52.525  1.00  0.00     0.313 HD
ENDBRANCH  27  28
ENDBRANCH   9  27
TORSDOF 5
ENDMDL
MODEL 9
REMARK VINA RESULT:      -6.5      7.616     11.159
REMARK  5 active torsions:
REMARK  status: ('A' for Active; 'I' for Inactive)
REMARK    1  A    between atoms: C2_2  and  N1_3 
REMARK    2  A    between atoms: N1_3  and  C3_4 
REMARK    3  A    between atoms: N1_3  and  C9_10 
REMARK    4  A    between atoms: C15_18  and  C16_19 
REMARK    5  A    between atoms: C16_19  and  N4_20 
REMARK       I    between atoms: N5_24  and  C20_25 
ROOT
HETATM    1  C9  UNL     1      30.551   9.059  46.290  1.00  0.00     0.127 C 
HETATM    2  C10 UNL     1      30.419  10.492  45.707  1.00  0.00     0.068 C 
HETATM    3  C11 UNL     1      31.164   9.099  47.643  1.00  0.00     0.045 C 
HETATM    4  C12 UNL     1      32.142   8.467  48.256  1.00  0.00     0.118 C 
HETATM    5  N2  UNL     1      33.120   7.927  49.073  1.00  0.00    -0.256 NA
HETATM    6  C13 UNL     1      34.240   7.411  48.703  1.00  0.00     0.206 C 
HETATM    7  N3  UNL     1      35.064   7.099  47.543  1.00  0.00    -0.360 N 
HETATM    8  C14 UNL     1      34.611   5.800  47.164  1.00  0.00     0.097 C 
HETATM    9  C15 UNL     1      33.869   4.911  46.530  1.00  0.00    -0.018 C 
HETATM   10  C17 UNL     1      32.801   5.060  45.506  1.00  0.00    -0.010 C 
HETATM   11  C18 UNL     1      32.497   6.314  45.081  1.00  0.00     0.036 C 
HETATM   12  C19 UNL     1      31.974   7.510  44.459  1.00  0.00     0.138 C 
HETATM   13  N5  UNL     1      31.526   8.469  45.443  1.00  0.00    -0.322 N 
HETATM   14  C20 UNL     1      32.686   9.355  45.714  1.00  0.00     0.218 C 
HETATM   15  C21 UNL     1      33.187  10.508  46.446  1.00  0.00     0.117 C 
HETATM   16  O1  UNL     1      33.706   8.974  45.023  1.00  0.00    -0.274 OA
HETATM   17  H17 UNL     1      35.793   7.684  47.114  1.00  0.00     0.166 HD
ENDROOT
BRANCH   1  18
HETATM   18  N1  UNL     1      29.249   8.625  46.460  1.00  0.00    -0.351 N 
BRANCH  18  19
HETATM   19  C2  UNL     1      28.194   9.313  45.771  1.00  0.00     0.121 C 
HETATM   20  C1  UNL     1      27.675   8.666  44.530  1.00  0.00     0.026 C 
ENDBRANCH  18  19
BRANCH  18  21
HETATM   21  C3  UNL     1      28.807   7.507  47.230  1.00  0.00     0.032 A 
HETATM   22  C4  UNL     1      29.497   6.351  47.511  1.00  0.00     0.029 A 
HETATM   23  C5  UNL     1      29.045   5.241  48.182  1.00  0.00     0.002 A 
HETATM   24  C6  UNL     1      27.747   5.267  48.641  1.00  0.00     0.000 A 
HETATM   25  C7  UNL     1      26.968   6.379  48.414  1.00  0.00     0.002 A 
HETATM   26  C8  UNL     1      27.501   7.446  47.732  1.00  0.00     0.029 A 
ENDBRANCH  18  21
ENDBRANCH   1  18
BRANCH   9  27
HETATM   27  C16 UNL     1      34.184   3.462  46.832  1.00  0.00     0.306 C 
BRANCH  27  28
HETATM   28  N4  UNL     1      34.428   3.362  48.239  1.00  0.00     0.082 N 
HETATM   29  H21 UNL     1      35.154   4.034  48.571  1.00  0.00     0.313 HD
HETATM   30  H22 UNL     1      33.533   3.641  48.740  1.00  0.00     0.313 HD
ENDBRANCH  27  28
ENDBRANCH   9  27
TORSDOF 5
ENDMDL
