MODEL 1
REMARK VINA RESULT:      -7.9      0.000      0.000
REMARK  6 active torsions:
REMARK  status: ('A' for Active; 'I' for Inactive)
REMARK    1  A    between atoms: C2_2  and  C3_4 
REMARK    2  A    between atoms: C3_4  and  C4_5 
REMARK    3  A    between atoms: C4_5  and  C5_6 
REMARK    4  A    between atoms: C5_6  and  C6_7 
REMARK    5  A    between atoms: C10_13  and  O1_14 
REMARK    6  A    between atoms: O1_14  and  N3_15 
ROOT
HETATM    1  C6  UNL     1      26.890   1.766  52.167  1.00  0.00     0.070 A 
HETATM    2  N1  UNL     1      28.087   1.668  52.770  1.00  0.00    -0.241 NA
HETATM    3  C7  UNL     1      28.326   0.931  53.835  1.00  0.00     0.234 A 
HETATM    4  N2  UNL     1      27.285   0.263  54.305  1.00  0.00    -0.241 NA
HETATM    5  C8  UNL     1      26.062   0.289  53.788  1.00  0.00     0.073 A 
HETATM    6  C9  UNL     1      25.121  -0.492  54.449  1.00  0.00     0.073 A 
HETATM    7  C10 UNL     1      23.829  -0.502  53.953  1.00  0.00     0.112 A 
HETATM    8  C11 UNL     1      23.547   0.258  52.839  1.00  0.00     0.053 A 
HETATM    9  C12 UNL     1      22.216   0.262  52.313  1.00  0.00    -0.075 C 
HETATM   10  C13 UNL     1      21.078   0.244  51.868  1.00  0.00     0.018 C 
HETATM   11  C14 UNL     1      24.516   1.017  52.219  1.00  0.00     0.039 A 
HETATM   12  C15 UNL     1      25.816   1.059  52.675  1.00  0.00     0.023 A 
ENDROOT
BRANCH   7  13
HETATM   13  O1  UNL     1      22.853  -1.269  54.581  1.00  0.00    -0.265 OA
BRANCH  13  14
HETATM   14  N3  UNL     1      23.102  -1.801  55.829  1.00  0.00    -0.209 NA
HETATM   15  H9  UNL     1      23.712  -2.661  55.701  1.00  0.00     0.150 HD
HETATM   16  H10 UNL     1      22.193  -2.116  56.281  1.00  0.00     0.150 HD
ENDBRANCH  13  14
ENDBRANCH   7  13
BRANCH   1  17
HETATM   17  C5  UNL     1      26.541   2.520  51.041  1.00  0.00     0.032 C 
BRANCH  17  18
HETATM   18  C4  UNL     1      26.457   3.195  49.945  1.00  0.00     0.005 C 
BRANCH  18  19
HETATM   19  C3  UNL     1      27.061   4.221  49.170  1.00  0.00     0.037 C 
BRANCH  19  20
HETATM   20  C2  UNL     1      27.668   5.121  48.534  1.00  0.00     0.090 C 
HETATM   21  C1  UNL     1      26.707   6.253  48.531  1.00  0.00     0.082 C 
HETATM   22  F1  UNL     1      28.845   5.330  47.906  1.00  0.00    -0.211 F 
ENDBRANCH  19  20
ENDBRANCH  18  19
ENDBRANCH  17  18
ENDBRANCH   1  17
TORSDOF 6
ENDMDL
MODEL 2
REMARK VINA RESULT:      -7.6      2.879      5.253
REMARK  6 active torsions:
REMARK  status: ('A' for Active; 'I' for Inactive)
REMARK    1  A    between atoms: C2_2  and  C3_4 
REMARK    2  A    between atoms: C3_4  and  C4_5 
REMARK    3  A    between atoms: C4_5  and  C5_6 
REMARK    4  A    between atoms: C5_6  and  C6_7 
REMARK    5  A    between atoms: C10_13  and  O1_14 
REMARK    6  A    between atoms: O1_14  and  N3_15 
ROOT
HETATM    1  C6  UNL     1      23.625  -0.290  53.660  1.00  0.00     0.070 A 
HETATM    2  N1  UNL     1      23.645  -1.032  54.780  1.00  0.00    -0.241 NA
HETATM    3  C7  UNL     1      24.693  -1.168  55.565  1.00  0.00     0.234 A 
HETATM    4  N2  UNL     1      25.775  -0.509  55.182  1.00  0.00    -0.241 NA
HETATM    5  C8  UNL     1      25.865   0.250  54.096  1.00  0.00     0.073 A 
HETATM    6  C9  UNL     1      27.103   0.846  53.889  1.00  0.00     0.073 A 
HETATM    7  C10 UNL     1      27.253   1.649  52.771  1.00  0.00     0.112 A 
HETATM    8  C11 UNL     1      26.174   1.811  51.930  1.00  0.00     0.053 A 
HETATM    9  C12 UNL     1      26.310   2.635  50.767  1.00  0.00    -0.075 C 
HETATM   10  C13 UNL     1      26.439   3.353  49.787  1.00  0.00     0.018 C 
HETATM   11  C14 UNL     1      24.965   1.197  52.178  1.00  0.00     0.039 A 
HETATM   12  C15 UNL     1      24.767   0.390  53.279  1.00  0.00     0.023 A 
ENDROOT
BRANCH   7  13
HETATM   13  O1  UNL     1      28.473   2.267  52.522  1.00  0.00    -0.265 OA
BRANCH  13  14
HETATM   14  N3  UNL     1      29.297   2.601  53.577  1.00  0.00    -0.209 NA
HETATM   15  H9  UNL     1      28.991   2.033  54.422  1.00  0.00     0.150 HD
HETATM   16  H10 UNL     1      29.180   3.629  53.822  1.00  0.00     0.150 HD
ENDBRANCH  13  14
ENDBRANCH   7  13
BRANCH   1  17
HETATM   17  C5  UNL     1      22.568  -0.089  52.766  1.00  0.00     0.032 C 
BRANCH  17  18
HETATM   18  C4  UNL     1      21.768   0.180  51.790  1.00  0.00     0.005 C 
BRANCH  18  19
HETATM   19  C3  UNL     1      21.674   0.768  50.499  1.00  0.00     0.037 C 
BRANCH  19  20
HETATM   20  C2  UNL     1      21.636   1.357  49.389  1.00  0.00     0.090 C 
HETATM   21  C1  UNL     1      22.739   2.346  49.482  1.00  0.00     0.082 C 
HETATM   22  F1  UNL     1      20.933   1.345  48.235  1.00  0.00    -0.211 F 
ENDBRANCH  19  20
ENDBRANCH  18  19
ENDBRANCH  17  18
ENDBRANCH   1  17
TORSDOF 6
ENDMDL
MODEL 3
REMARK VINA RESULT:      -7.4      1.981      3.476
REMARK  6 active torsions:
REMARK  status: ('A' for Active; 'I' for Inactive)
REMARK    1  A    between atoms: C2_2  and  C3_4 
REMARK    2  A    between atoms: C3_4  and  C4_5 
REMARK    3  A    between atoms: C4_5  and  C5_6 
REMARK    4  A    between atoms: C5_6  and  C6_7 
REMARK    5  A    between atoms: C10_13  and  O1_14 
REMARK    6  A    between atoms: O1_14  and  N3_15 
ROOT
HETATM    1  C6  UNL     1      24.335   2.505  51.033  1.00  0.00     0.070 A 
HETATM    2  N1  UNL     1      23.025   2.795  50.962  1.00  0.00    -0.241 NA
HETATM    3  C7  UNL     1      22.099   2.248  51.722  1.00  0.00     0.234 A 
HETATM    4  N2  UNL     1      22.539   1.359  52.598  1.00  0.00    -0.241 NA
HETATM    5  C8  UNL     1      23.807   0.999  52.751  1.00  0.00     0.073 A 
HETATM    6  C9  UNL     1      24.039   0.044  53.734  1.00  0.00     0.073 A 
HETATM    7  C10 UNL     1      25.345  -0.369  53.936  1.00  0.00     0.112 A 
HETATM    8  C11 UNL     1      26.337   0.185  53.157  1.00  0.00     0.053 A 
HETATM    9  C12 UNL     1      27.693  -0.231  53.350  1.00  0.00    -0.075 C 
HETATM   10  C13 UNL     1      28.847  -0.587  53.537  1.00  0.00     0.018 C 
HETATM   11  C14 UNL     1      26.056   1.130  52.194  1.00  0.00     0.039 A 
HETATM   12  C15 UNL     1      24.772   1.573  51.956  1.00  0.00     0.023 A 
ENDROOT
BRANCH   7  13
HETATM   13  O1  UNL     1      25.626  -1.323  54.908  1.00  0.00    -0.265 OA
BRANCH  13  14
HETATM   14  N3  UNL     1      24.723  -1.544  55.928  1.00  0.00    -0.209 NA
HETATM   15  H9  UNL     1      24.705  -0.676  56.541  1.00  0.00     0.150 HD
HETATM   16  H10 UNL     1      25.045  -2.357  56.532  1.00  0.00     0.150 HD
ENDBRANCH  13  14
ENDBRANCH   7  13
BRANCH   1  17
HETATM   17  C5  UNL     1      25.386   3.028  50.272  1.00  0.00     0.032 C 
BRANCH  17  18
HETATM   18  C4  UNL     1      26.392   3.276  49.503  1.00  0.00     0.005 C 
BRANCH  18  19
HETATM   19  C3  UNL     1      27.179   4.308  48.925  1.00  0.00     0.037 C 
BRANCH  19  20
HETATM   20  C2  UNL     1      27.906   5.240  48.494  1.00  0.00     0.090 C 
HETATM   21  C1  UNL     1      26.995   6.413  48.484  1.00  0.00     0.082 C 
HETATM   22  F1  UNL     1      29.171   5.456  48.073  1.00  0.00    -0.211 F 
ENDBRANCH  19  20
ENDBRANCH  18  19
ENDBRANCH  17  18
ENDBRANCH   1  17
TORSDOF 6
ENDMDL
MODEL 4
REMARK VINA RESULT:      -7.0      3.213      5.075
REMARK  6 active torsions:
REMARK  status: ('A' for Active; 'I' for Inactive)
REMARK    1  A    between atoms: C2_2  and  C3_4 
REMARK    2  A    between atoms: C3_4  and  C4_5 
REMARK    3  A    between atoms: C4_5  and  C5_6 
REMARK    4  A    between atoms: C5_6  and  C6_7 
REMARK    5  A    between atoms: C10_13  and  O1_14 
REMARK    6  A    between atoms: O1_14  and  N3_15 
ROOT
HETATM    1  C6  UNL     1      26.525   2.075  51.686  1.00  0.00     0.070 A 
HETATM    2  N1  UNL     1      26.824   2.938  50.699  1.00  0.00    -0.241 NA
HETATM    3  C7  UNL     1      25.943   3.458  49.871  1.00  0.00     0.234 A 
HETATM    4  N2  UNL     1      24.691   3.074  50.064  1.00  0.00    -0.241 NA
HETATM    5  C8  UNL     1      24.286   2.230  51.005  1.00  0.00     0.073 A 
HETATM    6  C9  UNL     1      22.922   1.968  51.022  1.00  0.00     0.073 A 
HETATM    7  C10 UNL     1      22.444   1.094  51.982  1.00  0.00     0.112 A 
HETATM    8  C11 UNL     1      23.342   0.533  52.864  1.00  0.00     0.053 A 
HETATM    9  C12 UNL     1      22.867  -0.376  53.863  1.00  0.00    -0.075 C 
HETATM   10  C13 UNL     1      22.444  -1.139  54.718  1.00  0.00     0.018 C 
HETATM   11  C14 UNL     1      24.687   0.823  52.807  1.00  0.00     0.039 A 
HETATM   12  C15 UNL     1      25.210   1.689  51.869  1.00  0.00     0.023 A 
ENDROOT
BRANCH   7  13
HETATM   13  O1  UNL     1      21.086   0.801  52.037  1.00  0.00    -0.265 OA
BRANCH  13  14
HETATM   14  N3  UNL     1      20.168   1.830  52.092  1.00  0.00    -0.209 NA
HETATM   15  H9  UNL     1      20.686   2.715  52.371  1.00  0.00     0.150 HD
HETATM   16  H10 UNL     1      19.442   1.634  52.843  1.00  0.00     0.150 HD
ENDBRANCH  13  14
ENDBRANCH   7  13
BRANCH   1  17
HETATM   17  C5  UNL     1      27.387   1.471  52.607  1.00  0.00     0.032 C 
BRANCH  17  18
HETATM   18  C4  UNL     1      28.010   0.737  53.466  1.00  0.00     0.005 C 
BRANCH  18  19
HETATM   19  C3  UNL     1      28.975  -0.294  53.622  1.00  0.00     0.037 C 
BRANCH  19  20
HETATM   20  C2  UNL     1      29.765  -1.266  53.741  1.00  0.00     0.090 C 
HETATM   21  C1  UNL     1      29.017  -2.398  53.141  1.00  0.00     0.082 C 
HETATM   22  F1  UNL     1      30.997  -1.544  54.221  1.00  0.00    -0.211 F 
ENDBRANCH  19  20
ENDBRANCH  18  19
ENDBRANCH  17  18
ENDBRANCH   1  17
TORSDOF 6
ENDMDL
MODEL 5
REMARK VINA RESULT:      -7.0      3.805      6.141
REMARK  6 active torsions:
REMARK  status: ('A' for Active; 'I' for Inactive)
REMARK    1  A    between atoms: C2_2  and  C3_4 
REMARK    2  A    between atoms: C3_4  and  C4_5 
REMARK    3  A    between atoms: C4_5  and  C5_6 
REMARK    4  A    between atoms: C5_6  and  C6_7 
REMARK    5  A    between atoms: C10_13  and  O1_14 
REMARK    6  A    between atoms: O1_14  and  N3_15 
ROOT
HETATM    1  C6  UNL     1      25.168  -0.190  53.810  1.00  0.00     0.070 A 
HETATM    2  N1  UNL     1      26.291  -0.581  54.438  1.00  0.00    -0.241 NA
HETATM    3  C7  UNL     1      27.492  -0.109  54.179  1.00  0.00     0.234 A 
HETATM    4  N2  UNL     1      27.545   0.810  53.228  1.00  0.00    -0.241 NA
HETATM    5  C8  UNL     1      26.502   1.266  52.545  1.00  0.00     0.073 A 
HETATM    6  C9  UNL     1      26.794   2.231  51.589  1.00  0.00     0.073 A 
HETATM    7  C10 UNL     1      25.743   2.742  50.847  1.00  0.00     0.112 A 
HETATM    8  C11 UNL     1      24.473   2.269  51.094  1.00  0.00     0.053 A 
HETATM    9  C12 UNL     1      23.374   2.783  50.335  1.00  0.00    -0.075 C 
HETATM   10  C13 UNL     1      22.445   3.243  49.689  1.00  0.00     0.018 C 
HETATM   11  C14 UNL     1      24.235   1.309  52.054  1.00  0.00     0.039 A 
HETATM   12  C15 UNL     1      25.248   0.771  52.819  1.00  0.00     0.023 A 
ENDROOT
BRANCH   7  13
HETATM   13  O1  UNL     1      25.986   3.710  49.878  1.00  0.00    -0.265 OA
BRANCH  13  14
HETATM   14  N3  UNL     1      27.268   4.186  49.696  1.00  0.00    -0.209 NA
HETATM   15  H9  UNL     1      27.600   3.872  48.737  1.00  0.00     0.150 HD
HETATM   16  H10 UNL     1      27.923   3.760  50.417  1.00  0.00     0.150 HD
ENDBRANCH  13  14
ENDBRANCH   7  13
BRANCH   1  17
HETATM   17  C5  UNL     1      23.857  -0.633  54.012  1.00  0.00     0.032 C 
BRANCH  17  18
HETATM   18  C4  UNL     1      22.621  -0.998  53.957  1.00  0.00     0.005 C 
BRANCH  18  19
HETATM   19  C3  UNL     1      21.325  -0.630  53.507  1.00  0.00     0.037 C 
BRANCH  19  20
HETATM   20  C2  UNL     1      20.174  -0.246  53.175  1.00  0.00     0.090 C 
HETATM   21  C1  UNL     1      20.401   1.128  52.660  1.00  0.00     0.082 C 
HETATM   22  F1  UNL     1      18.899  -0.692  53.157  1.00  0.00    -0.211 F 
ENDBRANCH  19  20
ENDBRANCH  18  19
ENDBRANCH  17  18
ENDBRANCH   1  17
TORSDOF 6
ENDMDL
MODEL 6
REMARK VINA RESULT:      -7.0      6.949      9.926
REMARK  6 active torsions:
REMARK  status: ('A' for Active; 'I' for Inactive)
REMARK    1  A    between atoms: C2_2  and  C3_4 
REMARK    2  A    between atoms: C3_4  and  C4_5 
REMARK    3  A    between atoms: C4_5  and  C5_6 
REMARK    4  A    between atoms: C5_6  and  C6_7 
REMARK    5  A    between atoms: C10_13  and  O1_14 
REMARK    6  A    between atoms: O1_14  and  N3_15 
ROOT
HETATM    1  C6  UNL     1      30.730   6.668  48.052  1.00  0.00     0.070 A 
HETATM    2  N1  UNL     1      31.088   7.944  48.274  1.00  0.00    -0.241 NA
HETATM    3  C7  UNL     1      32.325   8.391  48.219  1.00  0.00     0.234 A 
HETATM    4  N2  UNL     1      33.241   7.484  47.923  1.00  0.00    -0.241 NA
HETATM    5  C8  UNL     1      32.999   6.200  47.687  1.00  0.00     0.073 A 
HETATM    6  C9  UNL     1      34.117   5.428  47.396  1.00  0.00     0.073 A 
HETATM    7  C10 UNL     1      33.923   4.081  47.142  1.00  0.00     0.112 A 
HETATM    8  C11 UNL     1      32.639   3.583  47.190  1.00  0.00     0.053 A 
HETATM    9  C12 UNL     1      32.418   2.192  46.933  1.00  0.00    -0.075 C 
HETATM   10  C13 UNL     1      32.245   1.006  46.696  1.00  0.00     0.018 C 
HETATM   11  C14 UNL     1      31.562   4.390  47.484  1.00  0.00     0.039 A 
HETATM   12  C15 UNL     1      31.705   5.736  47.744  1.00  0.00     0.023 A 
ENDROOT
BRANCH   7  13
HETATM   13  O1  UNL     1      35.012   3.269  46.846  1.00  0.00    -0.265 OA
BRANCH  13  14
HETATM   14  N3  UNL     1      35.515   3.243  45.562  1.00  0.00    -0.209 NA
HETATM   15  H9  UNL     1      35.274   2.301  45.135  1.00  0.00     0.150 HD
HETATM   16  H10 UNL     1      36.575   3.325  45.582  1.00  0.00     0.150 HD
ENDBRANCH  13  14
ENDBRANCH   7  13
BRANCH   1  17
HETATM   17  C5  UNL     1      29.452   6.101  48.090  1.00  0.00     0.032 C 
BRANCH  17  18
HETATM   18  C4  UNL     1      28.218   5.769  48.272  1.00  0.00     0.005 C 
BRANCH  18  19
HETATM   19  C3  UNL     1      27.354   4.785  48.823  1.00  0.00     0.037 C 
BRANCH  19  20
HETATM   20  C2  UNL     1      26.660   3.876  49.347  1.00  0.00     0.090 C 
HETATM   21  C1  UNL     1      25.397   4.568  49.706  1.00  0.00     0.082 C 
HETATM   22  F1  UNL     1      26.735   2.562  49.650  1.00  0.00    -0.211 F 
ENDBRANCH  19  20
ENDBRANCH  18  19
ENDBRANCH  17  18
ENDBRANCH   1  17
TORSDOF 6
ENDMDL
MODEL 7
REMARK VINA RESULT:      -6.9      2.541      4.133
REMARK  6 active torsions:
REMARK  status: ('A' for Active; 'I' for Inactive)
REMARK    1  A    between atoms: C2_2  and  C3_4 
REMARK    2  A    between atoms: C3_4  and  C4_5 
REMARK    3  A    between atoms: C4_5  and  C5_6 
REMARK    4  A    between atoms: C5_6  and  C6_7 
REMARK    5  A    between atoms: C10_13  and  O1_14 
REMARK    6  A    between atoms: O1_14  and  N3_15 
ROOT
HETATM    1  C6  UNL     1      23.763  -0.155  53.615  1.00  0.00     0.070 A 
HETATM    2  N1  UNL     1      24.252  -0.773  54.703  1.00  0.00    -0.241 NA
HETATM    3  C7  UNL     1      23.531  -1.491  55.539  1.00  0.00     0.234 A 
HETATM    4  N2  UNL     1      22.244  -1.579  55.244  1.00  0.00    -0.241 NA
HETATM    5  C8  UNL     1      21.659  -1.010  54.197  1.00  0.00     0.073 A 
HETATM    6  C9  UNL     1      20.292  -1.236  54.085  1.00  0.00     0.073 A 
HETATM    7  C10 UNL     1      19.629  -0.665  53.013  1.00  0.00     0.112 A 
HETATM    8  C11 UNL     1      20.356   0.092  52.120  1.00  0.00     0.053 A 
HETATM    9  C12 UNL     1      19.688   0.693  51.005  1.00  0.00    -0.075 C 
HETATM   10  C13 UNL     1      19.106   1.187  50.052  1.00  0.00     0.018 C 
HETATM   11  C14 UNL     1      21.711   0.288  52.275  1.00  0.00     0.039 A 
HETATM   12  C15 UNL     1      22.415  -0.261  53.326  1.00  0.00     0.023 A 
ENDROOT
BRANCH   7  13
HETATM   13  O1  UNL     1      18.262  -0.863  52.859  1.00  0.00    -0.265 OA
BRANCH  13  14
HETATM   14  N3  UNL     1      17.522  -1.357  53.913  1.00  0.00    -0.209 NA
HETATM   15  H9  UNL     1      17.710  -2.400  53.984  1.00  0.00     0.150 HD
HETATM   16  H10 UNL     1      16.483  -1.230  53.723  1.00  0.00     0.150 HD
ENDBRANCH  13  14
ENDBRANCH   7  13
BRANCH   1  17
HETATM   17  C5  UNL     1      24.444   0.628  52.676  1.00  0.00     0.032 C 
BRANCH  17  18
HETATM   18  C4  UNL     1      25.244   1.369  51.987  1.00  0.00     0.005 C 
BRANCH  18  19
HETATM   19  C3  UNL     1      25.315   2.449  51.066  1.00  0.00     0.037 C 
BRANCH  19  20
HETATM   20  C2  UNL     1      25.433   3.444  50.306  1.00  0.00     0.090 C 
HETATM   21  C1  UNL     1      24.275   3.318  49.386  1.00  0.00     0.082 C 
HETATM   22  F1  UNL     1      26.247   4.504  50.109  1.00  0.00    -0.211 F 
ENDBRANCH  19  20
ENDBRANCH  18  19
ENDBRANCH  17  18
ENDBRANCH   1  17
TORSDOF 6
ENDMDL
MODEL 8
REMARK VINA RESULT:      -6.7      2.479      4.321
REMARK  6 active torsions:
REMARK  status: ('A' for Active; 'I' for Inactive)
REMARK    1  A    between atoms: C2_2  and  C3_4 
REMARK    2  A    between atoms: C3_4  and  C4_5 
REMARK    3  A    between atoms: C4_5  and  C5_6 
REMARK    4  A    between atoms: C5_6  and  C6_7 
REMARK    5  A    between atoms: C10_13  and  O1_14 
REMARK    6  A    between atoms: O1_14  and  N3_15 
ROOT
HETATM    1  C6  UNL     1      22.924   1.999  52.534  1.00  0.00     0.070 A 
HETATM    2  N1  UNL     1      21.807   1.251  52.524  1.00  0.00    -0.241 NA
HETATM    3  C7  UNL     1      21.750  -0.008  52.904  1.00  0.00     0.234 A 
HETATM    4  N2  UNL     1      22.897  -0.527  53.313  1.00  0.00    -0.241 NA
HETATM    5  C8  UNL     1      24.055   0.120  53.362  1.00  0.00     0.073 A 
HETATM    6  C9  UNL     1      25.133  -0.626  53.825  1.00  0.00     0.073 A 
HETATM    7  C10 UNL     1      26.366  -0.002  53.896  1.00  0.00     0.112 A 
HETATM    8  C11 UNL     1      26.458   1.317  53.507  1.00  0.00     0.053 A 
HETATM    9  C12 UNL     1      27.726   1.979  53.571  1.00  0.00    -0.075 C 
HETATM   10  C13 UNL     1      28.811   2.534  53.646  1.00  0.00     0.018 C 
HETATM   11  C14 UNL     1      25.359   2.014  53.054  1.00  0.00     0.039 A 
HETATM   12  C15 UNL     1      24.111   1.436  52.966  1.00  0.00     0.023 A 
ENDROOT
BRANCH   7  13
HETATM   13  O1  UNL     1      27.473  -0.707  54.353  1.00  0.00    -0.265 OA
BRANCH  13  14
HETATM   14  N3  UNL     1      28.148  -1.549  53.493  1.00  0.00    -0.209 NA
HETATM   15  H9  UNL     1      27.545  -1.685  52.629  1.00  0.00     0.150 HD
HETATM   16  H10 UNL     1      28.284  -2.502  53.944  1.00  0.00     0.150 HD
ENDBRANCH  13  14
ENDBRANCH   7  13
BRANCH   1  17
HETATM   17  C5  UNL     1      23.082   3.335  52.149  1.00  0.00     0.032 C 
BRANCH  17  18
HETATM   18  C4  UNL     1      23.450   4.493  51.718  1.00  0.00     0.005 C 
BRANCH  18  19
HETATM   19  C3  UNL     1      24.328   5.171  50.829  1.00  0.00     0.037 C 
BRANCH  19  20
HETATM   20  C2  UNL     1      25.106   5.699  49.993  1.00  0.00     0.090 C 
HETATM   21  C1  UNL     1      26.021   4.590  49.623  1.00  0.00     0.082 C 
HETATM   22  F1  UNL     1      25.325   6.888  49.391  1.00  0.00    -0.211 F 
ENDBRANCH  19  20
ENDBRANCH  18  19
ENDBRANCH  17  18
ENDBRANCH   1  17
TORSDOF 6
ENDMDL
MODEL 9
REMARK VINA RESULT:      -6.7      2.568      3.702
REMARK  6 active torsions:
REMARK  status: ('A' for Active; 'I' for Inactive)
REMARK    1  A    between atoms: C2_2  and  C3_4 
REMARK    2  A    between atoms: C3_4  and  C4_5 
REMARK    3  A    between atoms: C4_5  and  C5_6 
REMARK    4  A    between atoms: C5_6  and  C6_7 
REMARK    5  A    between atoms: C10_13  and  O1_14 
REMARK    6  A    between atoms: O1_14  and  N3_15 
ROOT
HETATM    1  C6  UNL     1      24.867   4.053  50.490  1.00  0.00     0.070 A 
HETATM    2  N1  UNL     1      23.870   4.954  50.438  1.00  0.00    -0.241 NA
HETATM    3  C7  UNL     1      22.734   4.846  51.093  1.00  0.00     0.234 A 
HETATM    4  N2  UNL     1      22.612   3.760  51.839  1.00  0.00    -0.241 NA
HETATM    5  C8  UNL     1      23.531   2.809  51.962  1.00  0.00     0.073 A 
HETATM    6  C9  UNL     1      23.187   1.756  52.801  1.00  0.00     0.073 A 
HETATM    7  C10 UNL     1      24.108   0.736  52.965  1.00  0.00     0.112 A 
HETATM    8  C11 UNL     1      25.308   0.820  52.293  1.00  0.00     0.053 A 
HETATM    9  C12 UNL     1      26.273  -0.227  52.449  1.00  0.00    -0.075 C 
HETATM   10  C13 UNL     1      27.091  -1.121  52.604  1.00  0.00     0.018 C 
HETATM   11  C14 UNL     1      25.603   1.886  51.472  1.00  0.00     0.039 A 
HETATM   12  C15 UNL     1      24.718   2.926  51.277  1.00  0.00     0.023 A 
ENDROOT
BRANCH   7  13
HETATM   13  O1  UNL     1      23.809  -0.340  53.794  1.00  0.00    -0.265 OA
BRANCH  13  14
HETATM   14  N3  UNL     1      22.639  -1.045  53.600  1.00  0.00    -0.209 NA
HETATM   15  H9  UNL     1      21.826  -0.389  53.793  1.00  0.00     0.150 HD
HETATM   16  H10 UNL     1      22.576  -1.848  54.294  1.00  0.00     0.150 HD
ENDBRANCH  13  14
ENDBRANCH   7  13
BRANCH   1  17
HETATM   17  C5  UNL     1      26.101   4.080  49.832  1.00  0.00     0.032 C 
BRANCH  17  18
HETATM   18  C4  UNL     1      27.144   4.295  49.104  1.00  0.00     0.005 C 
BRANCH  18  19
HETATM   19  C3  UNL     1      27.910   5.297  48.449  1.00  0.00     0.037 C 
BRANCH  19  20
HETATM   20  C2  UNL     1      28.632   6.195  47.944  1.00  0.00     0.090 C 
HETATM   21  C1  UNL     1      30.012   5.749  48.261  1.00  0.00     0.082 C 
HETATM   22  F1  UNL     1      28.516   7.351  47.256  1.00  0.00    -0.211 F 
ENDBRANCH  19  20
ENDBRANCH  18  19
ENDBRANCH  17  18
ENDBRANCH   1  17
TORSDOF 6
ENDMDL
