MODEL 1
REMARK VINA RESULT:      -8.0      0.000      0.000
REMARK  4 active torsions:
REMARK  status: ('A' for Active; 'I' for Inactive)
REMARK    1  A    between atoms: C3_4  and  C4_5 
REMARK    2  A    between atoms: C4_5  and  C10_11 
REMARK    3  A    between atoms: C5_6  and  C6_7 
REMARK    4  A    between atoms: C6_7  and  C7_8 
ROOT
HETATM    1  C10 UNL     1      25.546   0.423  53.961  1.00  0.00     0.146 A 
HETATM    2  C11 UNL     1      26.071  -0.041  55.229  1.00  0.00     0.235 A 
HETATM    3  O1  UNL     1      27.246   0.391  55.486  1.00  0.00    -0.272 OA
HETATM    4  N1  UNL     1      25.120  -0.870  55.865  1.00  0.00    -0.326 N 
HETATM    5  C12 UNL     1      24.006  -0.921  55.005  1.00  0.00     0.042 A 
HETATM    6  C13 UNL     1      22.869  -1.646  55.294  1.00  0.00     0.030 A 
HETATM    7  C14 UNL     1      21.814  -1.661  54.406  1.00  0.00     0.002 A 
HETATM    8  C15 UNL     1      21.929  -0.940  53.239  1.00  0.00     0.001 A 
HETATM    9  C16 UNL     1      23.091  -0.241  53.018  1.00  0.00     0.011 A 
HETATM   10  C17 UNL     1      24.191  -0.166  53.839  1.00  0.00    -0.014 A 
HETATM   11  H16 UNL     1      25.351  -1.284  56.787  1.00  0.00     0.169 HD
ENDROOT
BRANCH   1  12
HETATM   12  C4  UNL     1      26.399   0.159  52.795  1.00  0.00    -0.043 C 
HETATM   13  C5  UNL     1      26.627   0.972  51.766  1.00  0.00    -0.018 C 
BRANCH  12  14
HETATM   14  C3  UNL     1      27.140  -1.125  52.796  1.00  0.00     0.027 C 
HETATM   15  C2  UNL     1      28.372  -1.456  53.026  1.00  0.00     0.008 C 
HETATM   16  C1  UNL     1      28.937  -2.846  52.971  1.00  0.00     0.062 C 
HETATM   17 CL1  UNL     1      29.823  -0.548  53.507  1.00  0.00    -0.089 Cl
ENDBRANCH  12  14
BRANCH  13  18
HETATM   18  C6  UNL     1      26.335   2.234  51.124  1.00  0.00     0.031 C 
BRANCH  18  19
HETATM   19  C7  UNL     1      24.865   2.522  50.892  1.00  0.00    -0.019 C 
HETATM   20  C8  UNL     1      24.622   3.293  49.636  1.00  0.00     0.010 C 
HETATM   21  C9  UNL     1      24.364   3.305  52.086  1.00  0.00     0.010 C 
ENDBRANCH  18  19
ENDBRANCH  13  18
ENDBRANCH   1  12
TORSDOF 4
ENDMDL
MODEL 2
REMARK VINA RESULT:      -8.0      2.275      4.989
REMARK  4 active torsions:
REMARK  status: ('A' for Active; 'I' for Inactive)
REMARK    1  A    between atoms: C3_4  and  C4_5 
REMARK    2  A    between atoms: C4_5  and  C10_11 
REMARK    3  A    between atoms: C5_6  and  C6_7 
REMARK    4  A    between atoms: C6_7  and  C7_8 
ROOT
HETATM    1  C10 UNL     1      25.910   0.460  53.550  1.00  0.00     0.146 A 
HETATM    2  C11 UNL     1      26.650   1.540  54.171  1.00  0.00     0.235 A 
HETATM    3  O1  UNL     1      25.930   2.558  54.452  1.00  0.00    -0.272 OA
HETATM    4  N1  UNL     1      28.007   1.172  54.309  1.00  0.00    -0.326 N 
HETATM    5  C12 UNL     1      28.116  -0.129  53.782  1.00  0.00     0.042 A 
HETATM    6  C13 UNL     1      29.308  -0.822  53.742  1.00  0.00     0.030 A 
HETATM    7  C14 UNL     1      29.350  -2.092  53.207  1.00  0.00     0.002 A 
HETATM    8  C15 UNL     1      28.183  -2.639  52.721  1.00  0.00     0.001 A 
HETATM    9  C16 UNL     1      27.034  -1.890  52.795  1.00  0.00     0.011 A 
HETATM   10  C17 UNL     1      26.893  -0.622  53.307  1.00  0.00    -0.014 A 
HETATM   11  H16 UNL     1      28.669   1.846  54.737  1.00  0.00     0.169 HD
ENDROOT
BRANCH   1  12
HETATM   12  C4  UNL     1      25.149   0.830  52.351  1.00  0.00    -0.043 C 
HETATM   13  C5  UNL     1      23.865   0.582  52.106  1.00  0.00    -0.018 C 
BRANCH  12  14
HETATM   14  C3  UNL     1      25.871   1.626  51.330  1.00  0.00     0.027 C 
HETATM   15  C2  UNL     1      25.693   2.799  50.808  1.00  0.00     0.008 C 
HETATM   16  C1  UNL     1      26.557   3.438  49.758  1.00  0.00     0.062 C 
HETATM   17 CL1  UNL     1      24.509   4.099  51.070  1.00  0.00    -0.089 Cl
ENDBRANCH  12  14
BRANCH  13  18
HETATM   18  C6  UNL     1      22.638  -0.039  52.554  1.00  0.00     0.031 C 
BRANCH  18  19
HETATM   19  C7  UNL     1      22.334   0.111  54.031  1.00  0.00    -0.019 C 
HETATM   20  C8  UNL     1      22.659  -1.119  54.813  1.00  0.00     0.010 C 
HETATM   21  C9  UNL     1      20.860   0.433  54.158  1.00  0.00     0.010 C 
ENDBRANCH  18  19
ENDBRANCH  13  18
ENDBRANCH   1  12
TORSDOF 4
ENDMDL
MODEL 3
REMARK VINA RESULT:      -7.9      2.901      4.715
REMARK  4 active torsions:
REMARK  status: ('A' for Active; 'I' for Inactive)
REMARK    1  A    between atoms: C3_4  and  C4_5 
REMARK    2  A    between atoms: C4_5  and  C10_11 
REMARK    3  A    between atoms: C5_6  and  C6_7 
REMARK    4  A    between atoms: C6_7  and  C7_8 
ROOT
HETATM    1  C10 UNL     1      24.850   1.568  52.862  1.00  0.00     0.146 A 
HETATM    2  C11 UNL     1      25.371   2.690  53.615  1.00  0.00     0.235 A 
HETATM    3  O1  UNL     1      24.553   3.669  53.706  1.00  0.00    -0.272 OA
HETATM    4  N1  UNL     1      26.679   2.400  54.063  1.00  0.00    -0.326 N 
HETATM    5  C12 UNL     1      26.973   1.104  53.598  1.00  0.00     0.042 A 
HETATM    6  C13 UNL     1      28.178   0.477  53.842  1.00  0.00     0.030 A 
HETATM    7  C14 UNL     1      28.408  -0.792  53.353  1.00  0.00     0.002 A 
HETATM    8  C15 UNL     1      27.413  -1.405  52.626  1.00  0.00     0.001 A 
HETATM    9  C16 UNL     1      26.239  -0.720  52.423  1.00  0.00     0.011 A 
HETATM   10  C17 UNL     1      25.919   0.540  52.868  1.00  0.00    -0.014 A 
HETATM   11  H16 UNL     1      27.189   3.111  54.618  1.00  0.00     0.169 HD
ENDROOT
BRANCH   1  12
HETATM   12  C4  UNL     1      24.363   1.888  51.515  1.00  0.00    -0.043 C 
HETATM   13  C5  UNL     1      25.054   2.440  50.521  1.00  0.00    -0.018 C 
BRANCH  12  14
HETATM   14  C3  UNL     1      22.968   1.494  51.205  1.00  0.00     0.027 C 
HETATM   15  C2  UNL     1      22.172   0.571  51.647  1.00  0.00     0.008 C 
HETATM   16  C1  UNL     1      20.761   0.330  51.190  1.00  0.00     0.062 C 
HETATM   17 CL1  UNL     1      22.316  -0.690  52.892  1.00  0.00    -0.089 Cl
ENDBRANCH  12  14
BRANCH  13  18
HETATM   18  C6  UNL     1      26.307   3.015  50.081  1.00  0.00     0.031 C 
BRANCH  18  19
HETATM   19  C7  UNL     1      26.186   4.256  49.220  1.00  0.00    -0.019 C 
HETATM   20  C8  UNL     1      27.512   4.770  48.764  1.00  0.00     0.010 C 
HETATM   21  C9  UNL     1      25.477   5.309  50.045  1.00  0.00     0.010 C 
ENDBRANCH  18  19
ENDBRANCH  13  18
ENDBRANCH   1  12
TORSDOF 4
ENDMDL
MODEL 4
REMARK VINA RESULT:      -7.5      2.442      4.958
REMARK  4 active torsions:
REMARK  status: ('A' for Active; 'I' for Inactive)
REMARK    1  A    between atoms: C3_4  and  C4_5 
REMARK    2  A    between atoms: C4_5  and  C10_11 
REMARK    3  A    between atoms: C5_6  and  C6_7 
REMARK    4  A    between atoms: C6_7  and  C7_8 
ROOT
HETATM    1  C10 UNL     1      25.066   1.746  52.354  1.00  0.00     0.146 A 
HETATM    2  C11 UNL     1      25.210   2.712  53.424  1.00  0.00     0.235 A 
HETATM    3  O1  UNL     1      26.209   2.483  54.188  1.00  0.00    -0.272 OA
HETATM    4  N1  UNL     1      24.184   3.679  53.338  1.00  0.00    -0.326 N 
HETATM    5  C12 UNL     1      23.404   3.324  52.220  1.00  0.00     0.042 A 
HETATM    6  C13 UNL     1      22.296   4.043  51.821  1.00  0.00     0.030 A 
HETATM    7  C14 UNL     1      21.570   3.640  50.721  1.00  0.00     0.002 A 
HETATM    8  C15 UNL     1      21.979   2.514  50.041  1.00  0.00     0.001 A 
HETATM    9  C16 UNL     1      23.092   1.848  50.496  1.00  0.00     0.011 A 
HETATM   10  C17 UNL     1      23.876   2.171  51.578  1.00  0.00    -0.014 A 
HETATM   11  H16 UNL     1      24.150   4.440  54.041  1.00  0.00     0.169 HD
ENDROOT
BRANCH   1  12
HETATM   12  C4  UNL     1      25.008   0.343  52.779  1.00  0.00    -0.043 C 
HETATM   13  C5  UNL     1      26.016  -0.525  52.824  1.00  0.00    -0.018 C 
BRANCH  12  14
HETATM   14  C3  UNL     1      23.699  -0.144  53.275  1.00  0.00     0.027 C 
HETATM   15  C2  UNL     1      23.316  -0.776  54.340  1.00  0.00     0.008 C 
HETATM   16  C1  UNL     1      21.908  -1.190  54.662  1.00  0.00     0.062 C 
HETATM   17 CL1  UNL     1      24.153  -1.359  55.796  1.00  0.00    -0.089 Cl
ENDBRANCH  12  14
BRANCH  13  18
HETATM   18  C6  UNL     1      27.415  -0.781  52.563  1.00  0.00     0.031 C 
BRANCH  18  19
HETATM   19  C7  UNL     1      28.274  -1.020  53.789  1.00  0.00    -0.019 C 
HETATM   20  C8  UNL     1      28.216   0.114  54.760  1.00  0.00     0.010 C 
HETATM   21  C9  UNL     1      29.696  -1.223  53.312  1.00  0.00     0.010 C 
ENDBRANCH  18  19
ENDBRANCH  13  18
ENDBRANCH   1  12
TORSDOF 4
ENDMDL
MODEL 5
REMARK VINA RESULT:      -7.5      3.031      5.340
REMARK  4 active torsions:
REMARK  status: ('A' for Active; 'I' for Inactive)
REMARK    1  A    between atoms: C3_4  and  C4_5 
REMARK    2  A    between atoms: C4_5  and  C10_11 
REMARK    3  A    between atoms: C5_6  and  C6_7 
REMARK    4  A    between atoms: C6_7  and  C7_8 
ROOT
HETATM    1  C10 UNL     1      24.542   1.445  53.100  1.00  0.00     0.146 A 
HETATM    2  C11 UNL     1      25.128   2.676  53.588  1.00  0.00     0.235 A 
HETATM    3  O1  UNL     1      24.289   3.635  53.698  1.00  0.00    -0.272 OA
HETATM    4  N1  UNL     1      26.509   2.488  53.823  1.00  0.00    -0.326 N 
HETATM    5  C12 UNL     1      26.784   1.149  53.489  1.00  0.00     0.042 A 
HETATM    6  C13 UNL     1      28.045   0.597  53.587  1.00  0.00     0.030 A 
HETATM    7  C14 UNL     1      28.251  -0.721  53.238  1.00  0.00     0.002 A 
HETATM    8  C15 UNL     1      27.176  -1.459  52.794  1.00  0.00     0.001 A 
HETATM    9  C16 UNL     1      25.950  -0.842  52.722  1.00  0.00     0.011 A 
HETATM   10  C17 UNL     1      25.647   0.459  53.046  1.00  0.00    -0.014 A 
HETATM   11  H16 UNL     1      27.071   3.285  54.175  1.00  0.00     0.169 HD
ENDROOT
BRANCH   1  12
HETATM   12  C4  UNL     1      23.806   1.559  51.835  1.00  0.00    -0.043 C 
HETATM   13  C5  UNL     1      22.653   0.975  51.521  1.00  0.00    -0.018 C 
BRANCH  12  14
HETATM   14  C3  UNL     1      24.374   2.479  50.821  1.00  0.00     0.027 C 
HETATM   15  C2  UNL     1      23.926   3.523  50.197  1.00  0.00     0.008 C 
HETATM   16  C1  UNL     1      24.677   4.333  49.179  1.00  0.00     0.062 C 
HETATM   17 CL1  UNL     1      22.400   4.434  50.256  1.00  0.00    -0.089 Cl
ENDBRANCH  12  14
BRANCH  13  18
HETATM   18  C6  UNL     1      21.597   0.070  51.921  1.00  0.00     0.031 C 
BRANCH  18  19
HETATM   19  C7  UNL     1      20.569   0.650  52.872  1.00  0.00    -0.019 C 
HETATM   20  C8  UNL     1      20.418   2.128  52.723  1.00  0.00     0.010 C 
HETATM   21  C9  UNL     1      21.015   0.313  54.279  1.00  0.00     0.010 C 
ENDBRANCH  18  19
ENDBRANCH  13  18
ENDBRANCH   1  12
TORSDOF 4
ENDMDL
MODEL 6
REMARK VINA RESULT:      -7.4      3.794      6.894
REMARK  4 active torsions:
REMARK  status: ('A' for Active; 'I' for Inactive)
REMARK    1  A    between atoms: C3_4  and  C4_5 
REMARK    2  A    between atoms: C4_5  and  C10_11 
REMARK    3  A    between atoms: C5_6  and  C6_7 
REMARK    4  A    between atoms: C6_7  and  C7_8 
ROOT
HETATM    1  C10 UNL     1      24.432   3.584  51.614  1.00  0.00     0.146 A 
HETATM    2  C11 UNL     1      23.445   4.642  51.689  1.00  0.00     0.235 A 
HETATM    3  O1  UNL     1      22.515   4.413  52.536  1.00  0.00    -0.272 OA
HETATM    4  N1  UNL     1      23.780   5.675  50.785  1.00  0.00    -0.326 N 
HETATM    5  C12 UNL     1      24.970   5.269  50.151  1.00  0.00     0.042 A 
HETATM    6  C13 UNL     1      25.603   6.031  49.190  1.00  0.00     0.030 A 
HETATM    7  C14 UNL     1      26.764   5.575  48.602  1.00  0.00     0.002 A 
HETATM    8  C15 UNL     1      27.265   4.354  48.997  1.00  0.00     0.001 A 
HETATM    9  C16 UNL     1      26.581   3.651  49.959  1.00  0.00     0.011 A 
HETATM   10  C17 UNL     1      25.422   4.021  50.600  1.00  0.00    -0.014 A 
HETATM   11  H16 UNL     1      23.163   6.505  50.721  1.00  0.00     0.169 HD
ENDROOT
BRANCH   1  12
HETATM   12  C4  UNL     1      23.896   2.242  51.358  1.00  0.00    -0.043 C 
HETATM   13  C5  UNL     1      24.038   1.161  52.121  1.00  0.00    -0.018 C 
BRANCH  12  14
HETATM   14  C3  UNL     1      23.047   2.089  50.152  1.00  0.00     0.027 C 
HETATM   15  C2  UNL     1      21.969   1.420  49.886  1.00  0.00     0.008 C 
HETATM   16  C1  UNL     1      21.248   1.396  48.568  1.00  0.00     0.062 C 
HETATM   17 CL1  UNL     1      20.908   0.361  50.841  1.00  0.00    -0.089 Cl
ENDBRANCH  12  14
BRANCH  13  18
HETATM   18  C6  UNL     1      24.623   0.576  53.307  1.00  0.00     0.031 C 
BRANCH  18  19
HETATM   19  C7  UNL     1      26.137   0.503  53.317  1.00  0.00    -0.019 C 
HETATM   20  C8  UNL     1      26.773   1.806  53.676  1.00  0.00     0.010 C 
HETATM   21  C9  UNL     1      26.577   0.075  51.933  1.00  0.00     0.010 C 
ENDBRANCH  18  19
ENDBRANCH  13  18
ENDBRANCH   1  12
TORSDOF 4
ENDMDL
MODEL 7
REMARK VINA RESULT:      -7.4      2.757      4.766
REMARK  4 active torsions:
REMARK  status: ('A' for Active; 'I' for Inactive)
REMARK    1  A    between atoms: C3_4  and  C4_5 
REMARK    2  A    between atoms: C4_5  and  C10_11 
REMARK    3  A    between atoms: C5_6  and  C6_7 
REMARK    4  A    between atoms: C6_7  and  C7_8 
ROOT
HETATM    1  C10 UNL     1      26.343  -0.058  52.200  1.00  0.00     0.146 A 
HETATM    2  C11 UNL     1      26.773  -1.419  52.447  1.00  0.00     0.235 A 
HETATM    3  O1  UNL     1      25.997  -2.300  51.941  1.00  0.00    -0.272 OA
HETATM    4  N1  UNL     1      27.969  -1.414  53.198  1.00  0.00    -0.326 N 
HETATM    5  C12 UNL     1      28.289  -0.060  53.418  1.00  0.00     0.042 A 
HETATM    6  C13 UNL     1      29.402   0.341  54.128  1.00  0.00     0.030 A 
HETATM    7  C14 UNL     1      29.656   1.683  54.314  1.00  0.00     0.002 A 
HETATM    8  C15 UNL     1      28.778   2.598  53.776  1.00  0.00     0.001 A 
HETATM    9  C16 UNL     1      27.691   2.125  53.082  1.00  0.00     0.011 A 
HETATM   10  C17 UNL     1      27.355   0.814  52.845  1.00  0.00    -0.014 A 
HETATM   11  H16 UNL     1      28.403  -2.319  53.458  1.00  0.00     0.169 HD
ENDROOT
BRANCH   1  12
HETATM   12  C4  UNL     1      24.968   0.250  52.611  1.00  0.00    -0.043 C 
HETATM   13  C5  UNL     1      24.082   0.997  51.957  1.00  0.00    -0.018 C 
BRANCH  12  14
HETATM   14  C3  UNL     1      24.491  -0.397  53.857  1.00  0.00     0.027 C 
HETATM   15  C2  UNL     1      23.350  -0.870  54.248  1.00  0.00     0.008 C 
HETATM   16  C1  UNL     1      23.065  -1.497  55.583  1.00  0.00     0.062 C 
HETATM   17 CL1  UNL     1      21.755  -1.036  53.480  1.00  0.00    -0.089 Cl
ENDBRANCH  12  14
BRANCH  13  18
HETATM   18  C6  UNL     1      23.809   1.843  50.816  1.00  0.00     0.031 C 
BRANCH  18  19
HETATM   19  C7  UNL     1      24.297   3.273  50.934  1.00  0.00    -0.019 C 
HETATM   20  C8  UNL     1      25.718   3.432  50.501  1.00  0.00     0.010 C 
HETATM   21  C9  UNL     1      24.146   3.683  52.383  1.00  0.00     0.010 C 
ENDBRANCH  18  19
ENDBRANCH  13  18
ENDBRANCH   1  12
TORSDOF 4
ENDMDL
MODEL 8
REMARK VINA RESULT:      -7.3      4.152      6.322
REMARK  4 active torsions:
REMARK  status: ('A' for Active; 'I' for Inactive)
REMARK    1  A    between atoms: C3_4  and  C4_5 
REMARK    2  A    between atoms: C4_5  and  C10_11 
REMARK    3  A    between atoms: C5_6  and  C6_7 
REMARK    4  A    between atoms: C6_7  and  C7_8 
ROOT
HETATM    1  C10 UNL     1      21.021   1.713  52.625  1.00  0.00     0.146 A 
HETATM    2  C11 UNL     1      20.898   3.132  52.367  1.00  0.00     0.235 A 
HETATM    3  O1  UNL     1      19.688   3.527  52.245  1.00  0.00    -0.272 OA
HETATM    4  N1  UNL     1      22.181   3.723  52.319  1.00  0.00    -0.326 N 
HETATM    5  C12 UNL     1      23.100   2.682  52.549  1.00  0.00     0.042 A 
HETATM    6  C13 UNL     1      24.466   2.880  52.572  1.00  0.00     0.030 A 
HETATM    7  C14 UNL     1      25.314   1.817  52.796  1.00  0.00     0.002 A 
HETATM    8  C15 UNL     1      24.766   0.569  52.995  1.00  0.00     0.001 A 
HETATM    9  C16 UNL     1      23.398   0.448  52.959  1.00  0.00     0.011 A 
HETATM   10  C17 UNL     1      22.475   1.443  52.743  1.00  0.00    -0.014 A 
HETATM   11  H16 UNL     1      22.259   4.741  52.139  1.00  0.00     0.169 HD
ENDROOT
BRANCH   1  12
HETATM   12  C4  UNL     1      20.347   0.838  51.657  1.00  0.00    -0.043 C 
HETATM   13  C5  UNL     1      20.675   0.649  50.382  1.00  0.00    -0.018 C 
BRANCH  12  14
HETATM   14  C3  UNL     1      19.220   0.026  52.174  1.00  0.00     0.027 C 
HETATM   15  C2  UNL     1      19.113  -0.898  53.076  1.00  0.00     0.008 C 
HETATM   16  C1  UNL     1      17.850  -1.617  53.457  1.00  0.00     0.062 C 
HETATM   17 CL1  UNL     1      20.256  -1.656  54.207  1.00  0.00    -0.089 Cl
ENDBRANCH  12  14
BRANCH  13  18
HETATM   18  C6  UNL     1      21.543   1.007  49.281  1.00  0.00     0.031 C 
BRANCH  18  19
HETATM   19  C7  UNL     1      21.621   2.488  48.969  1.00  0.00    -0.019 C 
HETATM   20  C8  UNL     1      20.942   2.842  47.687  1.00  0.00     0.010 C 
HETATM   21  C9  UNL     1      23.088   2.858  48.900  1.00  0.00     0.010 C 
ENDBRANCH  18  19
ENDBRANCH  13  18
ENDBRANCH   1  12
TORSDOF 4
ENDMDL
MODEL 9
REMARK VINA RESULT:      -7.2      2.773      5.639
REMARK  4 active torsions:
REMARK  status: ('A' for Active; 'I' for Inactive)
REMARK    1  A    between atoms: C3_4  and  C4_5 
REMARK    2  A    between atoms: C4_5  and  C10_11 
REMARK    3  A    between atoms: C5_6  and  C6_7 
REMARK    4  A    between atoms: C6_7  and  C7_8 
ROOT
HETATM    1  C10 UNL     1      23.884  -0.803  53.797  1.00  0.00     0.146 A 
HETATM    2  C11 UNL     1      24.059  -1.124  55.198  1.00  0.00     0.235 A 
HETATM    3  O1  UNL     1      23.000  -1.572  55.757  1.00  0.00    -0.272 OA
HETATM    4  N1  UNL     1      25.390  -0.853  55.589  1.00  0.00    -0.326 N 
HETATM    5  C12 UNL     1      26.044  -0.369  54.440  1.00  0.00     0.042 A 
HETATM    6  C13 UNL     1      27.371   0.009  54.438  1.00  0.00     0.030 A 
HETATM    7  C14 UNL     1      27.953   0.482  53.281  1.00  0.00     0.002 A 
HETATM    8  C15 UNL     1      27.180   0.564  52.143  1.00  0.00     0.001 A 
HETATM    9  C16 UNL     1      25.866   0.170  52.221  1.00  0.00     0.011 A 
HETATM   10  C17 UNL     1      25.200  -0.312  53.323  1.00  0.00    -0.014 A 
HETATM   11  H16 UNL     1      25.671  -1.031  56.571  1.00  0.00     0.169 HD
ENDROOT
BRANCH   1  12
HETATM   12  C4  UNL     1      22.781   0.118  53.498  1.00  0.00    -0.043 C 
HETATM   13  C5  UNL     1      21.480  -0.160  53.498  1.00  0.00    -0.018 C 
BRANCH  12  14
HETATM   14  C3  UNL     1      23.152   1.529  53.232  1.00  0.00     0.027 C 
HETATM   15  C2  UNL     1      22.899   2.363  52.273  1.00  0.00     0.008 C 
HETATM   16  C1  UNL     1      23.383   3.783  52.188  1.00  0.00     0.062 C 
HETATM   17 CL1  UNL     1      21.935   2.272  50.782  1.00  0.00    -0.089 Cl
ENDBRANCH  12  14
BRANCH  13  18
HETATM   18  C6  UNL     1      20.449  -1.162  53.656  1.00  0.00     0.031 C 
BRANCH  18  19
HETATM   19  C7  UNL     1      19.041  -0.705  53.328  1.00  0.00    -0.019 C 
HETATM   20  C8  UNL     1      18.048  -1.819  53.382  1.00  0.00     0.010 C 
HETATM   21  C9  UNL     1      19.074  -0.106  51.938  1.00  0.00     0.010 C 
ENDBRANCH  18  19
ENDBRANCH  13  18
ENDBRANCH   1  12
TORSDOF 4
ENDMDL
