MODEL 1
REMARK VINA RESULT:      -7.7      0.000      0.000
REMARK  4 active torsions:
REMARK  status: ('A' for Active; 'I' for Inactive)
REMARK    1  A    between atoms: C2_2  and  O1_3 
REMARK    2  A    between atoms: C2_2  and  C4_5 
REMARK    3  A    between atoms: C10_13  and  N3_14 
REMARK    4  A    between atoms: N3_14  and  C11_15 
ROOT
HETATM    1  C4  UNL     1      25.381   0.469  52.843  1.00  0.00     0.082 A 
HETATM    2  C5  UNL     1      26.200  -0.649  53.062  1.00  0.00     0.016 A 
HETATM    3  C6  UNL     1      25.270  -0.902  53.941  1.00  0.00     0.005 A 
HETATM    4  C7  UNL     1      24.426  -1.112  54.722  1.00  0.00    -0.122 C 
HETATM    5  C8  UNL     1      23.455  -1.332  55.600  1.00  0.00     0.315 C 
HETATM    6  N1  UNL     1      22.209  -1.311  55.017  1.00  0.00    -0.288 NA
HETATM    7  C9  UNL     1      21.536  -0.104  54.882  1.00  0.00     0.171 C 
HETATM    8  N2  UNL     1      21.900  -0.191  53.616  1.00  0.00    -0.233 NA
HETATM    9  C10 UNL     1      22.799   0.509  52.933  1.00  0.00     0.126 C 
HETATM   10  C17 UNL     1      24.101   0.785  52.495  1.00  0.00     0.049 C 
ENDROOT
BRANCH   9  11
HETATM   11  N3  UNL     1      21.831   1.425  52.387  1.00  0.00    -0.341 N 
HETATM   12  H9  UNL     1      21.082   1.916  52.880  1.00  0.00     0.167 HD
BRANCH  11  13
HETATM   13  C11 UNL     1      21.956   1.657  50.968  1.00  0.00     0.035 A 
HETATM   14  C12 UNL     1      21.407   0.765  50.054  1.00  0.00     0.029 A 
HETATM   15  C13 UNL     1      21.526   1.005  48.703  1.00  0.00     0.004 A 
HETATM   16  C14 UNL     1      22.175   2.106  48.194  1.00  0.00     0.024 A 
HETATM   17  C15 UNL     1      22.721   2.993  49.098  1.00  0.00     0.036 A 
HETATM   18 CL1  UNL     1      23.576   4.440  48.560  1.00  0.00    -0.084 Cl
HETATM   19  C16 UNL     1      22.618   2.780  50.458  1.00  0.00     0.053 A 
ENDBRANCH  11  13
ENDBRANCH   9  11
BRANCH   1  20
HETATM   20  C2  UNL     1      26.391   1.477  53.124  1.00  0.00     0.058 C 
HETATM   21  C1  UNL     1      26.802   2.165  52.093  1.00  0.00     0.048 C 
BRANCH  20  22
HETATM   22  O1  UNL     1      27.181   2.092  54.060  1.00  0.00    -0.359 OA
HETATM   23  C3  UNL     1      28.516   2.397  53.740  1.00  0.00     0.209 C 
ENDBRANCH  20  22
ENDBRANCH   1  20
TORSDOF 4
ENDMDL
MODEL 2
REMARK VINA RESULT:      -7.5      1.539      2.252
REMARK  4 active torsions:
REMARK  status: ('A' for Active; 'I' for Inactive)
REMARK    1  A    between atoms: C2_2  and  O1_3 
REMARK    2  A    between atoms: C2_2  and  C4_5 
REMARK    3  A    between atoms: C10_13  and  N3_14 
REMARK    4  A    between atoms: N3_14  and  C11_15 
ROOT
HETATM    1  C4  UNL     1      25.083   0.318  53.196  1.00  0.00     0.082 A 
HETATM    2  C5  UNL     1      25.487  -0.817  53.915  1.00  0.00     0.016 A 
HETATM    3  C6  UNL     1      24.227  -0.800  54.251  1.00  0.00     0.005 A 
HETATM    4  C7  UNL     1      23.094  -0.768  54.539  1.00  0.00    -0.122 C 
HETATM    5  C8  UNL     1      21.805  -0.715  54.851  1.00  0.00     0.315 C 
HETATM    6  N1  UNL     1      20.999  -0.676  53.736  1.00  0.00    -0.288 NA
HETATM    7  C9  UNL     1      20.700   0.548  53.151  1.00  0.00     0.171 C 
HETATM    8  N2  UNL     1      21.586   0.185  52.244  1.00  0.00    -0.233 NA
HETATM    9  C10 UNL     1      22.811   0.644  52.010  1.00  0.00     0.126 C 
HETATM   10  C17 UNL     1      24.193   0.695  52.235  1.00  0.00     0.049 C 
ENDROOT
BRANCH   9  11
HETATM   11  N3  UNL     1      22.393   1.536  50.959  1.00  0.00    -0.341 N 
HETATM   12  H9  UNL     1      21.773   1.333  50.172  1.00  0.00     0.167 HD
BRANCH  11  13
HETATM   13  C11 UNL     1      22.932   2.871  51.054  1.00  0.00     0.035 A 
HETATM   14  C12 UNL     1      22.532   3.725  52.076  1.00  0.00     0.029 A 
HETATM   15  C13 UNL     1      23.063   4.993  52.159  1.00  0.00     0.004 A 
HETATM   16  C14 UNL     1      23.991   5.475  51.266  1.00  0.00     0.024 A 
HETATM   17  C15 UNL     1      24.389   4.631  50.251  1.00  0.00     0.036 A 
HETATM   18 CL1  UNL     1      25.574   5.142  49.046  1.00  0.00    -0.084 Cl
HETATM   19  C16 UNL     1      23.876   3.355  50.140  1.00  0.00     0.053 A 
ENDBRANCH  11  13
ENDBRANCH   9  11
BRANCH   1  20
HETATM   20  C2  UNL     1      26.013   1.251  53.815  1.00  0.00     0.058 C 
HETATM   21  C1  UNL     1      25.718   2.515  53.676  1.00  0.00     0.048 C 
BRANCH  20  22
HETATM   22  O1  UNL     1      27.160   1.426  54.544  1.00  0.00    -0.359 OA
HETATM   23  C3  UNL     1      28.384   1.593  53.870  1.00  0.00     0.209 C 
ENDBRANCH  20  22
ENDBRANCH   1  20
TORSDOF 4
ENDMDL
MODEL 3
REMARK VINA RESULT:      -7.2      2.768      4.389
REMARK  4 active torsions:
REMARK  status: ('A' for Active; 'I' for Inactive)
REMARK    1  A    between atoms: C2_2  and  O1_3 
REMARK    2  A    between atoms: C2_2  and  C4_5 
REMARK    3  A    between atoms: C10_13  and  N3_14 
REMARK    4  A    between atoms: N3_14  and  C11_15 
ROOT
HETATM    1  C4  UNL     1      22.559   0.808  53.082  1.00  0.00     0.082 A 
HETATM    2  C5  UNL     1      22.359  -0.311  53.904  1.00  0.00     0.016 A 
HETATM    3  C6  UNL     1      23.623  -0.482  53.630  1.00  0.00     0.005 A 
HETATM    4  C7  UNL     1      24.756  -0.617  53.374  1.00  0.00    -0.122 C 
HETATM    5  C8  UNL     1      26.042  -0.748  53.073  1.00  0.00     0.315 C 
HETATM    6  N1  UNL     1      26.766   0.384  53.367  1.00  0.00    -0.288 NA
HETATM    7  C9  UNL     1      26.859   1.400  52.425  1.00  0.00     0.171 C 
HETATM    8  N2  UNL     1      25.978   2.015  53.191  1.00  0.00    -0.233 NA
HETATM    9  C10 UNL     1      24.690   2.267  52.984  1.00  0.00     0.126 C 
HETATM   10  C17 UNL     1      23.330   1.930  52.999  1.00  0.00     0.049 C 
ENDROOT
BRANCH   9  11
HETATM   11  N3  UNL     1      24.917   3.607  52.508  1.00  0.00    -0.341 N 
HETATM   12  H9  UNL     1      25.509   4.330  52.925  1.00  0.00     0.167 HD
BRANCH  11  13
HETATM   13  C11 UNL     1      24.210   3.944  51.297  1.00  0.00     0.035 A 
HETATM   14  C12 UNL     1      24.500   3.292  50.103  1.00  0.00     0.029 A 
HETATM   15  C13 UNL     1      23.808   3.618  48.958  1.00  0.00     0.004 A 
HETATM   16  C14 UNL     1      22.822   4.576  48.926  1.00  0.00     0.024 A 
HETATM   17  C15 UNL     1      22.532   5.224  50.108  1.00  0.00     0.036 A 
HETATM   18 CL1  UNL     1      21.286   6.472  50.187  1.00  0.00    -0.084 Cl
HETATM   19  C16 UNL     1      23.206   4.921  51.274  1.00  0.00     0.053 A 
ENDBRANCH  11  13
ENDBRANCH   9  11
BRANCH   1  20
HETATM   20  C2  UNL     1      21.550   0.473  52.090  1.00  0.00     0.058 C 
HETATM   21  C1  UNL     1      21.786   0.903  50.880  1.00  0.00     0.048 C 
BRANCH  20  22
HETATM   22  O1  UNL     1      20.356  -0.143  51.819  1.00  0.00    -0.359 OA
HETATM   23  C3  UNL     1      19.320   0.598  51.220  1.00  0.00     0.209 C 
ENDBRANCH  20  22
ENDBRANCH   1  20
TORSDOF 4
ENDMDL
MODEL 4
REMARK VINA RESULT:      -7.2      3.313      6.594
REMARK  4 active torsions:
REMARK  status: ('A' for Active; 'I' for Inactive)
REMARK    1  A    between atoms: C2_2  and  O1_3 
REMARK    2  A    between atoms: C2_2  and  C4_5 
REMARK    3  A    between atoms: C10_13  and  N3_14 
REMARK    4  A    between atoms: N3_14  and  C11_15 
ROOT
HETATM    1  C4  UNL     1      21.860   1.202  50.884  1.00  0.00     0.082 A 
HETATM    2  C5  UNL     1      21.487   0.817  49.587  1.00  0.00     0.016 A 
HETATM    3  C6  UNL     1      22.195   1.873  49.292  1.00  0.00     0.005 A 
HETATM    4  C7  UNL     1      22.833   2.821  49.048  1.00  0.00    -0.122 C 
HETATM    5  C8  UNL     1      23.565   3.899  48.794  1.00  0.00     0.315 C 
HETATM    6  N1  UNL     1      24.817   3.827  49.359  1.00  0.00    -0.288 NA
HETATM    7  C9  UNL     1      25.004   4.257  50.666  1.00  0.00     0.171 C 
HETATM    8  N2  UNL     1      25.027   2.969  50.950  1.00  0.00    -0.233 NA
HETATM    9  C10 UNL     1      24.133   2.215  51.581  1.00  0.00     0.126 C 
HETATM   10  C17 UNL     1      22.974   1.429  51.636  1.00  0.00     0.049 C 
ENDROOT
BRANCH   9  11
HETATM   11  N3  UNL     1      24.794   2.307  52.857  1.00  0.00    -0.341 N 
HETATM   12  H9  UNL     1      24.533   2.882  53.661  1.00  0.00     0.167 HD
BRANCH  11  13
HETATM   13  C11 UNL     1      25.967   1.476  52.987  1.00  0.00     0.035 A 
HETATM   14  C12 UNL     1      27.158   2.004  53.472  1.00  0.00     0.029 A 
HETATM   15  C13 UNL     1      28.266   1.195  53.601  1.00  0.00     0.004 A 
HETATM   16  C14 UNL     1      28.260  -0.139  53.267  1.00  0.00     0.024 A 
HETATM   17  C15 UNL     1      27.080  -0.666  52.786  1.00  0.00     0.036 A 
HETATM   18 CL1  UNL     1      26.955  -2.365  52.327  1.00  0.00    -0.084 Cl
HETATM   19  C16 UNL     1      25.952   0.118  52.646  1.00  0.00     0.053 A 
ENDBRANCH  11  13
ENDBRANCH   9  11
BRANCH   1  20
HETATM   20  C2  UNL     1      20.512   1.355  51.410  1.00  0.00     0.058 C 
HETATM   21  C1  UNL     1      19.903   0.244  51.726  1.00  0.00     0.048 C 
BRANCH  20  22
HETATM   22  O1  UNL     1      19.497   2.207  51.756  1.00  0.00    -0.359 OA
HETATM   23  C3  UNL     1      19.711   3.596  51.689  1.00  0.00     0.209 C 
ENDBRANCH  20  22
ENDBRANCH   1  20
TORSDOF 4
ENDMDL
MODEL 5
REMARK VINA RESULT:      -7.1      2.864      5.640
REMARK  4 active torsions:
REMARK  status: ('A' for Active; 'I' for Inactive)
REMARK    1  A    between atoms: C2_2  and  O1_3 
REMARK    2  A    between atoms: C2_2  and  C4_5 
REMARK    3  A    between atoms: C10_13  and  N3_14 
REMARK    4  A    between atoms: N3_14  and  C11_15 
ROOT
HETATM    1  C4  UNL     1      24.370   4.044  49.914  1.00  0.00     0.082 A 
HETATM    2  C5  UNL     1      23.867   4.763  48.819  1.00  0.00     0.016 A 
HETATM    3  C6  UNL     1      23.143   3.684  48.705  1.00  0.00     0.005 A 
HETATM    4  C7  UNL     1      22.503   2.709  48.620  1.00  0.00    -0.122 C 
HETATM    5  C8  UNL     1      21.785   1.595  48.545  1.00  0.00     0.315 C 
HETATM    6  N1  UNL     1      21.138   1.310  49.724  1.00  0.00    -0.288 NA
HETATM    7  C9  UNL     1      21.794   0.579  50.706  1.00  0.00     0.171 C 
HETATM    8  N2  UNL     1      21.930   1.748  51.303  1.00  0.00    -0.233 NA
HETATM    9  C10 UNL     1      23.011   2.500  51.478  1.00  0.00     0.126 C 
HETATM   10  C17 UNL     1      23.951   3.457  51.071  1.00  0.00     0.049 C 
ENDROOT
BRANCH   9  11
HETATM   11  N3  UNL     1      23.268   2.012  52.809  1.00  0.00    -0.341 N 
HETATM   12  H9  UNL     1      22.617   1.960  53.596  1.00  0.00     0.167 HD
BRANCH  11  13
HETATM   13  C11 UNL     1      24.616   1.549  53.030  1.00  0.00     0.035 A 
HETATM   14  C12 UNL     1      25.561   2.378  53.625  1.00  0.00     0.029 A 
HETATM   15  C13 UNL     1      26.841   1.918  53.839  1.00  0.00     0.004 A 
HETATM   16  C14 UNL     1      27.249   0.652  53.488  1.00  0.00     0.024 A 
HETATM   17  C15 UNL     1      26.315  -0.173  52.898  1.00  0.00     0.036 A 
HETATM   18 CL1  UNL     1      26.725  -1.818  52.407  1.00  0.00    -0.084 Cl
HETATM   19  C16 UNL     1      25.023   0.258  52.671  1.00  0.00     0.053 A 
ENDBRANCH  11  13
ENDBRANCH   9  11
BRANCH   1  20
HETATM   20  C2  UNL     1      25.760   4.035  49.487  1.00  0.00     0.058 C 
HETATM   21  C1  UNL     1      26.492   3.070  49.975  1.00  0.00     0.048 C 
BRANCH  20  22
HETATM   22  O1  UNL     1      26.743   4.629  48.740  1.00  0.00    -0.359 OA
HETATM   23  C3  UNL     1      26.922   6.022  48.821  1.00  0.00     0.209 C 
ENDBRANCH  20  22
ENDBRANCH   1  20
TORSDOF 4
ENDMDL
MODEL 6
REMARK VINA RESULT:      -7.0      3.456      6.858
REMARK  4 active torsions:
REMARK  status: ('A' for Active; 'I' for Inactive)
REMARK    1  A    between atoms: C2_2  and  O1_3 
REMARK    2  A    between atoms: C2_2  and  C4_5 
REMARK    3  A    between atoms: C10_13  and  N3_14 
REMARK    4  A    between atoms: N3_14  and  C11_15 
ROOT
HETATM    1  C4  UNL     1      22.537   2.121  49.416  1.00  0.00     0.082 A 
HETATM    2  C5  UNL     1      22.260   2.087  48.041  1.00  0.00     0.016 A 
HETATM    3  C6  UNL     1      22.655   3.326  48.139  1.00  0.00     0.005 A 
HETATM    4  C7  UNL     1      23.014   4.434  48.248  1.00  0.00    -0.122 C 
HETATM    5  C8  UNL     1      23.428   5.687  48.393  1.00  0.00     0.315 C 
HETATM    6  N1  UNL     1      24.663   5.763  48.995  1.00  0.00    -0.288 NA
HETATM    7  C9  UNL     1      24.749   5.788  50.381  1.00  0.00     0.171 C 
HETATM    8  N2  UNL     1      25.119   4.528  50.251  1.00  0.00    -0.233 NA
HETATM    9  C10 UNL     1      24.468   3.409  50.552  1.00  0.00     0.126 C 
HETATM   10  C17 UNL     1      23.562   2.375  50.278  1.00  0.00     0.049 C 
ENDROOT
BRANCH   9  11
HETATM   11  N3  UNL     1      25.101   3.258  51.836  1.00  0.00    -0.341 N 
HETATM   12  H9  UNL     1      25.381   3.992  52.490  1.00  0.00     0.167 HD
BRANCH  11  13
HETATM   13  C11 UNL     1      25.362   1.892  52.220  1.00  0.00     0.035 A 
HETATM   14  C12 UNL     1      26.483   1.223  51.740  1.00  0.00     0.029 A 
HETATM   15  C13 UNL     1      26.724  -0.078  52.124  1.00  0.00     0.004 A 
HETATM   16  C14 UNL     1      25.897  -0.771  52.977  1.00  0.00     0.024 A 
HETATM   17  C15 UNL     1      24.785  -0.111  53.455  1.00  0.00     0.036 A 
HETATM   18 CL1  UNL     1      23.653  -0.901  54.555  1.00  0.00    -0.084 Cl
HETATM   19  C16 UNL     1      24.515   1.193  53.090  1.00  0.00     0.053 A 
ENDBRANCH  11  13
ENDBRANCH   9  11
BRANCH   1  20
HETATM   20  C2  UNL     1      21.206   1.746  49.867  1.00  0.00     0.058 C 
HETATM   21  C1  UNL     1      21.141   0.656  50.584  1.00  0.00     0.048 C 
BRANCH  20  22
HETATM   22  O1  UNL     1      19.867   2.037  49.885  1.00  0.00    -0.359 OA
HETATM   23  C3  UNL     1      18.940   1.003  50.111  1.00  0.00     0.209 C 
ENDBRANCH  20  22
ENDBRANCH   1  20
TORSDOF 4
ENDMDL
MODEL 7
REMARK VINA RESULT:      -6.9      2.921      4.599
REMARK  4 active torsions:
REMARK  status: ('A' for Active; 'I' for Inactive)
REMARK    1  A    between atoms: C2_2  and  O1_3 
REMARK    2  A    between atoms: C2_2  and  C4_5 
REMARK    3  A    between atoms: C10_13  and  N3_14 
REMARK    4  A    between atoms: N3_14  and  C11_15 
ROOT
HETATM    1  C4  UNL     1      25.943   1.855  53.325  1.00  0.00     0.082 A 
HETATM    2  C5  UNL     1      27.334   2.030  53.270  1.00  0.00     0.016 A 
HETATM    3  C6  UNL     1      27.032   2.405  52.058  1.00  0.00     0.005 A 
HETATM    4  C7  UNL     1      26.742   2.738  50.975  1.00  0.00    -0.122 C 
HETATM    5  C8  UNL     1      26.389   3.116  49.752  1.00  0.00     0.315 C 
HETATM    6  N1  UNL     1      25.424   4.096  49.766  1.00  0.00    -0.288 NA
HETATM    7  C9  UNL     1      24.084   3.736  49.822  1.00  0.00     0.171 C 
HETATM    8  N2  UNL     1      24.173   4.095  51.088  1.00  0.00    -0.233 NA
HETATM    9  C10 UNL     1      24.170   3.354  52.191  1.00  0.00     0.126 C 
HETATM   10  C17 UNL     1      24.786   2.557  53.166  1.00  0.00     0.049 C 
ENDROOT
BRANCH   9  11
HETATM   11  N3  UNL     1      22.764   3.541  52.443  1.00  0.00    -0.341 N 
HETATM   12  H9  UNL     1      22.288   4.393  52.746  1.00  0.00     0.167 HD
BRANCH  11  13
HETATM   13  C11 UNL     1      21.955   2.365  52.234  1.00  0.00     0.035 A 
HETATM   14  C12 UNL     1      20.962   2.352  51.261  1.00  0.00     0.029 A 
HETATM   15  C13 UNL     1      20.205   1.217  51.067  1.00  0.00     0.004 A 
HETATM   16  C14 UNL     1      20.380   0.067  51.800  1.00  0.00     0.024 A 
HETATM   17  C15 UNL     1      21.364   0.076  52.766  1.00  0.00     0.036 A 
HETATM   18 CL1  UNL     1      21.678  -1.343  53.768  1.00  0.00    -0.084 Cl
HETATM   19  C16 UNL     1      22.140   1.197  52.985  1.00  0.00     0.053 A 
ENDBRANCH  11  13
ENDBRANCH   9  11
BRANCH   1  20
HETATM   20  C2  UNL     1      25.964   0.440  53.664  1.00  0.00     0.058 C 
HETATM   21  C1  UNL     1      26.384   0.156  54.867  1.00  0.00     0.048 C 
BRANCH  20  22
HETATM   22  O1  UNL     1      25.723  -0.848  53.263  1.00  0.00    -0.359 OA
HETATM   23  C3  UNL     1      26.756  -1.584  52.655  1.00  0.00     0.209 C 
ENDBRANCH  20  22
ENDBRANCH   1  20
TORSDOF 4
ENDMDL
MODEL 8
REMARK VINA RESULT:      -6.6      3.392      5.988
REMARK  4 active torsions:
REMARK  status: ('A' for Active; 'I' for Inactive)
REMARK    1  A    between atoms: C2_2  and  O1_3 
REMARK    2  A    between atoms: C2_2  and  C4_5 
REMARK    3  A    between atoms: C10_13  and  N3_14 
REMARK    4  A    between atoms: N3_14  and  C11_15 
ROOT
HETATM    1  C4  UNL     1      24.227   3.903  51.170  1.00  0.00     0.082 A 
HETATM    2  C5  UNL     1      23.436   4.922  51.723  1.00  0.00     0.016 A 
HETATM    3  C6  UNL     1      22.703   3.894  52.051  1.00  0.00     0.005 A 
HETATM    4  C7  UNL     1      22.062   2.960  52.337  1.00  0.00    -0.122 C 
HETATM    5  C8  UNL     1      21.350   1.885  52.655  1.00  0.00     0.315 C 
HETATM    6  N1  UNL     1      22.094   0.946  53.331  1.00  0.00    -0.288 NA
HETATM    7  C9  UNL     1      22.821   0.004  52.615  1.00  0.00     0.171 C 
HETATM    8  N2  UNL     1      23.860   0.754  52.932  1.00  0.00    -0.233 NA
HETATM    9  C10 UNL     1      24.603   1.552  52.173  1.00  0.00     0.126 C 
HETATM   10  C17 UNL     1      24.886   2.767  51.534  1.00  0.00     0.049 C 
ENDROOT
BRANCH   9  11
HETATM   11  N3  UNL     1      25.631   0.566  51.955  1.00  0.00    -0.341 N 
HETATM   12  H9  UNL     1      25.582  -0.277  51.380  1.00  0.00     0.167 HD
BRANCH  11  13
HETATM   13  C11 UNL     1      26.869   0.827  52.649  1.00  0.00     0.035 A 
HETATM   14  C12 UNL     1      27.184   2.111  53.078  1.00  0.00     0.029 A 
HETATM   15  C13 UNL     1      28.366   2.342  53.748  1.00  0.00     0.004 A 
HETATM   16  C14 UNL     1      29.276   1.348  54.023  1.00  0.00     0.024 A 
HETATM   17  C15 UNL     1      28.967   0.073  53.598  1.00  0.00     0.036 A 
HETATM   18 CL1  UNL     1      30.059  -1.282  53.895  1.00  0.00    -0.084 Cl
HETATM   19  C16 UNL     1      27.791  -0.192  52.925  1.00  0.00     0.053 A 
ENDBRANCH  11  13
ENDBRANCH   9  11
BRANCH   1  20
HETATM   20  C2  UNL     1      24.211   4.399  49.803  1.00  0.00     0.058 C 
HETATM   21  C1  UNL     1      25.378   4.704  49.302  1.00  0.00     0.048 C 
BRANCH  20  22
HETATM   22  O1  UNL     1      23.466   4.722  48.700  1.00  0.00    -0.359 OA
HETATM   23  C3  UNL     1      23.612   5.996  48.119  1.00  0.00     0.209 C 
ENDBRANCH  20  22
ENDBRANCH   1  20
TORSDOF 4
ENDMDL
MODEL 9
REMARK VINA RESULT:      -6.6      7.276      9.533
REMARK  4 active torsions:
REMARK  status: ('A' for Active; 'I' for Inactive)
REMARK    1  A    between atoms: C2_2  and  O1_3 
REMARK    2  A    between atoms: C2_2  and  C4_5 
REMARK    3  A    between atoms: C10_13  and  N3_14 
REMARK    4  A    between atoms: N3_14  and  C11_15 
ROOT
HETATM    1  C4  UNL     1      31.218   5.789  48.383  1.00  0.00     0.082 A 
HETATM    2  C5  UNL     1      32.297   5.986  49.257  1.00  0.00     0.016 A 
HETATM    3  C6  UNL     1      31.851   7.211  49.203  1.00  0.00     0.005 A 
HETATM    4  C7  UNL     1      31.435   8.302  49.142  1.00  0.00    -0.122 C 
HETATM    5  C8  UNL     1      30.944   9.533  49.061  1.00  0.00     0.315 C 
HETATM    6  N1  UNL     1      29.604   9.582  49.366  1.00  0.00    -0.288 NA
HETATM    7  C9  UNL     1      28.666   9.360  48.365  1.00  0.00     0.171 C 
HETATM    8  N2  UNL     1      28.539   8.173  48.926  1.00  0.00    -0.233 NA
HETATM    9  C10 UNL     1      28.926   6.977  48.496  1.00  0.00     0.126 C 
HETATM   10  C17 UNL     1      29.865   5.951  48.326  1.00  0.00     0.049 C 
ENDROOT
BRANCH   9  11
HETATM   11  N3  UNL     1      27.638   6.637  47.948  1.00  0.00    -0.341 N 
HETATM   12  H9  UNL     1      27.227   6.953  47.067  1.00  0.00     0.167 HD
BRANCH  11  13
HETATM   13  C11 UNL     1      26.854   5.742  48.764  1.00  0.00     0.035 A 
HETATM   14  C12 UNL     1      27.197   4.399  48.872  1.00  0.00     0.029 A 
HETATM   15  C13 UNL     1      26.445   3.559  49.663  1.00  0.00     0.004 A 
HETATM   16  C14 UNL     1      25.345   3.984  50.371  1.00  0.00     0.024 A 
HETATM   17  C15 UNL     1      25.002   5.316  50.266  1.00  0.00     0.036 A 
HETATM   18 CL1  UNL     1      23.610   5.974  51.130  1.00  0.00    -0.084 Cl
HETATM   19  C16 UNL     1      25.736   6.183  49.482  1.00  0.00     0.053 A 
ENDBRANCH  11  13
ENDBRANCH   9  11
BRANCH   1  20
HETATM   20  C2  UNL     1      31.992   5.248  47.276  1.00  0.00     0.058 C 
HETATM   21  C1  UNL     1      31.869   3.964  47.078  1.00  0.00     0.048 C 
BRANCH  20  22
HETATM   22  O1  UNL     1      32.872   5.491  46.254  1.00  0.00    -0.359 OA
HETATM   23  C3  UNL     1      33.026   4.533  45.236  1.00  0.00     0.209 C 
ENDBRANCH  20  22
ENDBRANCH   1  20
TORSDOF 4
ENDMDL
