MODEL 1
REMARK VINA RESULT:      -9.1      0.000      0.000
REMARK  2 active torsions:
REMARK  status: ('A' for Active; 'I' for Inactive)
REMARK    1  A    between atoms: C11_13  and  O1_14 
REMARK    2  A    between atoms: O1_14  and  C12_15 
ROOT
HETATM    1  C1  UNL     1      18.241   1.849  50.732  1.00  0.00     0.031 C 
HETATM    2  C2  UNL     1      18.880   0.783  51.203  1.00  0.00     0.010 C 
HETATM    3  C3  UNL     1      19.932   0.999  50.334  1.00  0.00    -0.069 C 
HETATM    4  C4  UNL     1      20.809   1.177  49.636  1.00  0.00    -0.086 C 
HETATM    5  C5  UNL     1      21.909   1.393  48.791  1.00  0.00     0.139 A 
HETATM    6  C6  UNL     1      22.207   2.674  48.110  1.00  0.00     0.023 A 
HETATM    7  C7  UNL     1      22.634   2.611  49.333  1.00  0.00     0.028 A 
HETATM    8  N1  UNL     1      23.163   2.714  50.642  1.00  0.00    -0.343 N 
HETATM    9  C8  UNL     1      24.411   2.330  51.188  1.00  0.00     0.134 A 
HETATM   10  N2  UNL     1      25.433   2.701  50.558  1.00  0.00    -0.267 NA
HETATM   11  C9  UNL     1      26.693   2.284  51.155  1.00  0.00     0.195 A 
HETATM   12  C10 UNL     1      26.242   1.541  52.356  1.00  0.00     0.034 A 
HETATM   13  C11 UNL     1      26.959   0.922  53.304  1.00  0.00     0.194 C 
HETATM   14  O2  UNL     1      26.492   0.225  54.442  1.00  0.00    -0.297 OA
HETATM   15  C14 UNL     1      25.327  -0.565  54.527  1.00  0.00     0.181 C 
HETATM   16  C15 UNL     1      24.233  -0.243  53.863  1.00  0.00     0.092 C 
HETATM   17  C16 UNL     1      23.879   1.059  53.221  1.00  0.00     0.054 C 
HETATM   18  C17 UNL     1      24.760   1.573  52.372  1.00  0.00     0.025 A 
HETATM   19  O3  UNL     1      23.135  -1.004  53.579  1.00  0.00    -0.347 OA
HETATM   20  C18 UNL     1      21.821  -0.688  54.038  1.00  0.00     0.201 C 
HETATM   21  C19 UNL     1      20.881  -0.643  52.827  1.00  0.00     0.194 C 
HETATM   22  O4  UNL     1      19.604  -0.347  53.221  1.00  0.00    -0.384 OA
HETATM   23  C20 UNL     1      18.673  -0.270  52.217  1.00  0.00     0.214 C 
HETATM   24  H5  UNL     1      22.715   3.112  51.493  1.00  0.00     0.167 HD
ENDROOT
BRANCH  13  25
HETATM   25  O1  UNL     1      28.317   1.013  53.080  1.00  0.00    -0.330 OA
BRANCH  25  26
HETATM   26  C12 UNL     1      29.312   0.528  53.947  1.00  0.00     0.173 C 
HETATM   27  C13 UNL     1      29.768  -0.852  53.456  1.00  0.00     0.034 C 
ENDBRANCH  25  26
ENDBRANCH  13  25
TORSDOF 2
ENDMDL
MODEL 2
REMARK VINA RESULT:      -8.6      2.247      3.903
REMARK  2 active torsions:
REMARK  status: ('A' for Active; 'I' for Inactive)
REMARK    1  A    between atoms: C11_13  and  O1_14 
REMARK    2  A    between atoms: O1_14  and  C12_15 
ROOT
HETATM    1  C1  UNL     1      18.713   0.359  50.405  1.00  0.00     0.031 C 
HETATM    2  C2  UNL     1      19.472   1.447  50.480  1.00  0.00     0.010 C 
HETATM    3  C3  UNL     1      19.887   1.102  51.752  1.00  0.00    -0.069 C 
HETATM    4  C4  UNL     1      20.246   0.819  52.791  1.00  0.00    -0.086 C 
HETATM    5  C5  UNL     1      20.713   0.473  54.069  1.00  0.00     0.139 A 
HETATM    6  C6  UNL     1      20.631  -0.883  54.656  1.00  0.00     0.023 A 
HETATM    7  C7  UNL     1      21.654  -0.702  53.879  1.00  0.00     0.028 A 
HETATM    8  N1  UNL     1      22.815  -0.679  53.068  1.00  0.00    -0.343 N 
HETATM    9  C8  UNL     1      24.146  -0.282  53.337  1.00  0.00     0.134 A 
HETATM   10  N2  UNL     1      24.669  -0.754  54.377  1.00  0.00    -0.267 NA
HETATM   11  C9  UNL     1      26.038  -0.318  54.613  1.00  0.00     0.195 A 
HETATM   12  C10 UNL     1      26.292   0.567  53.451  1.00  0.00     0.034 A 
HETATM   13  C11 UNL     1      27.390   1.261  53.123  1.00  0.00     0.194 C 
HETATM   14  O2  UNL     1      27.598   2.093  51.999  1.00  0.00    -0.297 OA
HETATM   15  C14 UNL     1      26.644   2.928  51.379  1.00  0.00     0.181 C 
HETATM   16  C15 UNL     1      25.375   2.572  51.300  1.00  0.00     0.092 C 
HETATM   17  C16 UNL     1      24.768   1.222  51.497  1.00  0.00     0.054 C 
HETATM   18  C17 UNL     1      25.060   0.588  52.626  1.00  0.00     0.025 A 
HETATM   19  O3  UNL     1      24.277   3.336  51.022  1.00  0.00    -0.347 OA
HETATM   20  C18 UNL     1      23.436   3.118  49.889  1.00  0.00     0.201 C 
HETATM   21  C19 UNL     1      21.990   2.972  50.379  1.00  0.00     0.194 C 
HETATM   22  O4  UNL     1      21.144   2.765  49.322  1.00  0.00    -0.384 OA
HETATM   23  C20 UNL     1      19.819   2.611  49.641  1.00  0.00     0.214 C 
HETATM   24  H5  UNL     1      22.914  -0.966  52.073  1.00  0.00     0.167 HD
ENDROOT
BRANCH  13  25
HETATM   25  O1  UNL     1      28.408   1.099  54.038  1.00  0.00    -0.330 OA
BRANCH  25  26
HETATM   26  C12 UNL     1      29.682   0.580  53.746  1.00  0.00     0.173 C 
HETATM   27  C13 UNL     1      29.584  -0.947  53.639  1.00  0.00     0.034 C 
ENDBRANCH  25  26
ENDBRANCH  13  25
TORSDOF 2
ENDMDL
MODEL 3
REMARK VINA RESULT:      -8.3      2.376      3.199
REMARK  2 active torsions:
REMARK  status: ('A' for Active; 'I' for Inactive)
REMARK    1  A    between atoms: C11_13  and  O1_14 
REMARK    2  A    between atoms: O1_14  and  C12_15 
ROOT
HETATM    1  C1  UNL     1      20.938   6.652  50.275  1.00  0.00     0.031 C 
HETATM    2  C2  UNL     1      20.635   5.358  50.293  1.00  0.00     0.010 C 
HETATM    3  C3  UNL     1      21.889   5.031  49.813  1.00  0.00    -0.069 C 
HETATM    4  C4  UNL     1      22.922   4.752  49.435  1.00  0.00    -0.086 C 
HETATM    5  C5  UNL     1      24.201   4.389  48.984  1.00  0.00     0.139 A 
HETATM    6  C6  UNL     1      25.392   5.266  49.039  1.00  0.00     0.023 A 
HETATM    7  C7  UNL     1      25.150   4.631  50.143  1.00  0.00     0.028 A 
HETATM    8  N1  UNL     1      25.034   4.023  51.417  1.00  0.00    -0.343 N 
HETATM    9  C8  UNL     1      25.508   2.788  51.919  1.00  0.00     0.134 A 
HETATM   10  N2  UNL     1      26.720   2.531  51.713  1.00  0.00    -0.267 NA
HETATM   11  C9  UNL     1      27.164   1.251  52.247  1.00  0.00     0.195 A 
HETATM   12  C10 UNL     1      25.925   0.723  52.870  1.00  0.00     0.034 A 
HETATM   13  C11 UNL     1      25.715  -0.427  53.523  1.00  0.00     0.194 C 
HETATM   14  O2  UNL     1      24.517  -0.896  54.110  1.00  0.00    -0.297 OA
HETATM   15  C14 UNL     1      23.208  -0.702  53.623  1.00  0.00     0.181 C 
HETATM   16  C15 UNL     1      22.864   0.418  53.014  1.00  0.00     0.092 C 
HETATM   17  C16 UNL     1      23.574   1.732  53.004  1.00  0.00     0.054 C 
HETATM   18  C17 UNL     1      24.853   1.724  52.652  1.00  0.00     0.025 A 
HETATM   19  O3  UNL     1      21.776   0.679  52.230  1.00  0.00    -0.347 OA
HETATM   20  C18 UNL     1      20.790   1.657  52.559  1.00  0.00     0.201 C 
HETATM   21  C19 UNL     1      20.644   2.617  51.371  1.00  0.00     0.194 C 
HETATM   22  O4  UNL     1      19.701   3.573  51.640  1.00  0.00    -0.384 OA
HETATM   23  C20 UNL     1      19.490   4.497  50.649  1.00  0.00     0.214 C 
HETATM   24  H5  UNL     1      24.556   4.386  52.267  1.00  0.00     0.167 HD
ENDROOT
BRANCH  13  25
HETATM   25  O1  UNL     1      26.851  -1.206  53.597  1.00  0.00    -0.330 OA
BRANCH  25  26
HETATM   26  C12 UNL     1      27.185  -2.232  52.695  1.00  0.00     0.173 C 
HETATM   27  C13 UNL     1      28.606  -2.721  53.004  1.00  0.00     0.034 C 
ENDBRANCH  25  26
ENDBRANCH  13  25
TORSDOF 2
ENDMDL
MODEL 4
REMARK VINA RESULT:      -8.3      1.867      6.528
REMARK  2 active torsions:
REMARK  status: ('A' for Active; 'I' for Inactive)
REMARK    1  A    between atoms: C11_13  and  O1_14 
REMARK    2  A    between atoms: O1_14  and  C12_15 
ROOT
HETATM    1  C1  UNL     1      26.552   3.220  49.666  1.00  0.00     0.031 C 
HETATM    2  C2  UNL     1      26.329   2.843  50.921  1.00  0.00     0.010 C 
HETATM    3  C3  UNL     1      25.069   3.410  50.895  1.00  0.00    -0.069 C 
HETATM    4  C4  UNL     1      24.026   3.858  50.877  1.00  0.00    -0.086 C 
HETATM    5  C5  UNL     1      22.727   4.391  50.866  1.00  0.00     0.139 A 
HETATM    6  C6  UNL     1      21.968   4.728  49.641  1.00  0.00     0.023 A 
HETATM    7  C7  UNL     1      21.896   3.479  49.982  1.00  0.00     0.028 A 
HETATM    8  N1  UNL     1      21.712   2.093  50.207  1.00  0.00    -0.343 N 
HETATM    9  C8  UNL     1      20.775   1.381  50.993  1.00  0.00     0.134 A 
HETATM   10  N2  UNL     1      19.568   1.696  50.842  1.00  0.00    -0.267 NA
HETATM   11  C9  UNL     1      18.640   0.938  51.670  1.00  0.00     0.195 A 
HETATM   12  C10 UNL     1      19.549   0.030  52.410  1.00  0.00     0.034 A 
HETATM   13  C11 UNL     1      19.268  -0.908  53.325  1.00  0.00     0.194 C 
HETATM   14  O2  UNL     1      20.164  -1.762  54.009  1.00  0.00    -0.297 OA
HETATM   15  C14 UNL     1      21.466  -1.442  54.446  1.00  0.00     0.181 C 
HETATM   16  C15 UNL     1      22.243  -0.637  53.745  1.00  0.00     0.092 C 
HETATM   17  C16 UNL     1      22.099  -0.202  52.324  1.00  0.00     0.054 C 
HETATM   18  C17 UNL     1      20.933   0.323  51.968  1.00  0.00     0.025 A 
HETATM   19  O3  UNL     1      23.381   0.018  54.125  1.00  0.00    -0.347 OA
HETATM   20  C18 UNL     1      24.654  -0.206  53.519  1.00  0.00     0.201 C 
HETATM   21  C19 UNL     1      25.212   1.144  53.052  1.00  0.00     0.194 C 
HETATM   22  O4  UNL     1      26.439   0.980  52.466  1.00  0.00    -0.384 OA
HETATM   23  C20 UNL     1      27.035   2.123  51.999  1.00  0.00     0.214 C 
HETATM   24  H5  UNL     1      22.255   1.296  49.816  1.00  0.00     0.167 HD
ENDROOT
BRANCH  13  25
HETATM   25  O1  UNL     1      17.917  -0.999  53.588  1.00  0.00    -0.330 OA
BRANCH  25  26
HETATM   26  C12 UNL     1      17.043  -1.933  53.003  1.00  0.00     0.173 C 
HETATM   27  C13 UNL     1      17.326  -3.318  53.598  1.00  0.00     0.034 C 
ENDBRANCH  25  26
ENDBRANCH  13  25
TORSDOF 2
ENDMDL
MODEL 5
REMARK VINA RESULT:      -8.0      2.812      4.945
REMARK  2 active torsions:
REMARK  status: ('A' for Active; 'I' for Inactive)
REMARK    1  A    between atoms: C11_13  and  O1_14 
REMARK    2  A    between atoms: O1_14  and  C12_15 
ROOT
HETATM    1  C1  UNL     1      18.347  -2.363  53.243  1.00  0.00     0.031 C 
HETATM    2  C2  UNL     1      18.229  -1.069  52.967  1.00  0.00     0.010 C 
HETATM    3  C3  UNL     1      19.390  -0.788  53.663  1.00  0.00    -0.069 C 
HETATM    4  C4  UNL     1      20.351  -0.550  54.218  1.00  0.00    -0.086 C 
HETATM    5  C5  UNL     1      21.547  -0.242  54.886  1.00  0.00     0.139 A 
HETATM    6  C6  UNL     1      22.596  -1.228  55.229  1.00  0.00     0.023 A 
HETATM    7  C7  UNL     1      22.673  -0.772  54.017  1.00  0.00     0.028 A 
HETATM    8  N1  UNL     1      22.902  -0.384  52.675  1.00  0.00    -0.343 N 
HETATM    9  C8  UNL     1      23.629   0.693  52.115  1.00  0.00     0.134 A 
HETATM   10  N2  UNL     1      24.797   0.862  52.547  1.00  0.00    -0.267 NA
HETATM   11  C9  UNL     1      25.507   1.980  51.944  1.00  0.00     0.195 A 
HETATM   12  C10 UNL     1      24.504   2.511  50.989  1.00  0.00     0.034 A 
HETATM   13  C11 UNL     1      24.588   3.546  50.142  1.00  0.00     0.194 C 
HETATM   14  O2  UNL     1      23.609   4.022  49.239  1.00  0.00    -0.297 OA
HETATM   15  C14 UNL     1      22.213   4.044  49.444  1.00  0.00     0.181 C 
HETATM   16  C15 UNL     1      21.606   3.085  50.118  1.00  0.00     0.092 C 
HETATM   17  C16 UNL     1      22.117   1.730  50.481  1.00  0.00     0.054 C 
HETATM   18  C17 UNL     1      23.287   1.673  51.105  1.00  0.00     0.025 A 
HETATM   19  O3  UNL     1      20.355   3.071  50.668  1.00  0.00    -0.347 OA
HETATM   20  C18 UNL     1      19.336   2.152  50.274  1.00  0.00     0.201 C 
HETATM   21  C19 UNL     1      18.824   1.430  51.527  1.00  0.00     0.194 C 
HETATM   22  O4  UNL     1      17.837   0.540  51.198  1.00  0.00    -0.384 OA
HETATM   23  C20 UNL     1      17.306  -0.174  52.241  1.00  0.00     0.214 C 
HETATM   24  H5  UNL     1      22.565  -0.841  51.802  1.00  0.00     0.167 HD
ENDROOT
BRANCH  13  25
HETATM   25  O1  UNL     1      25.807   4.186  50.212  1.00  0.00    -0.330 OA
BRANCH  25  26
HETATM   26  C12 UNL     1      26.827   4.086  49.248  1.00  0.00     0.173 C 
HETATM   27  C13 UNL     1      27.103   5.481  48.673  1.00  0.00     0.034 C 
ENDBRANCH  25  26
ENDBRANCH  13  25
TORSDOF 2
ENDMDL
MODEL 6
REMARK VINA RESULT:      -8.0      4.867      6.774
REMARK  2 active torsions:
REMARK  status: ('A' for Active; 'I' for Inactive)
REMARK    1  A    between atoms: C11_13  and  O1_14 
REMARK    2  A    between atoms: O1_14  and  C12_15 
ROOT
HETATM    1  C1  UNL     1      22.008   0.800  52.111  1.00  0.00     0.031 C 
HETATM    2  C2  UNL     1      21.956   2.108  52.335  1.00  0.00     0.010 C 
HETATM    3  C3  UNL     1      23.335   2.188  52.346  1.00  0.00    -0.069 C 
HETATM    4  C4  UNL     1      24.467   2.267  52.340  1.00  0.00    -0.086 C 
HETATM    5  C5  UNL     1      25.866   2.383  52.318  1.00  0.00     0.139 A 
HETATM    6  C6  UNL     1      26.785   1.378  51.738  1.00  0.00     0.023 A 
HETATM    7  C7  UNL     1      26.290   2.205  50.872  1.00  0.00     0.028 A 
HETATM    8  N1  UNL     1      25.846   3.018  49.800  1.00  0.00    -0.343 N 
HETATM    9  C8  UNL     1      26.328   4.244  49.283  1.00  0.00     0.134 A 
HETATM   10  N2  UNL     1      27.561   4.304  49.049  1.00  0.00    -0.267 NA
HETATM   11  C9  UNL     1      28.011   5.583  48.519  1.00  0.00     0.195 A 
HETATM   12  C10 UNL     1      26.749   6.359  48.456  1.00  0.00     0.034 A 
HETATM   13  C11 UNL     1      26.534   7.617  48.045  1.00  0.00     0.194 C 
HETATM   14  O2  UNL     1      25.311   8.325  47.994  1.00  0.00    -0.297 OA
HETATM   15  C14 UNL     1      24.243   8.230  48.910  1.00  0.00     0.181 C 
HETATM   16  C15 UNL     1      23.939   7.082  49.489  1.00  0.00     0.092 C 
HETATM   17  C16 UNL     1      24.359   5.702  49.104  1.00  0.00     0.054 C 
HETATM   18  C17 UNL     1      25.660   5.486  48.955  1.00  0.00     0.025 A 
HETATM   19  O3  UNL     1      23.167   6.844  50.590  1.00  0.00    -0.347 OA
HETATM   20  C18 UNL     1      21.969   6.069  50.555  1.00  0.00     0.201 C 
HETATM   21  C19 UNL     1      22.078   4.960  51.609  1.00  0.00     0.194 C 
HETATM   22  O4  UNL     1      20.946   4.190  51.616  1.00  0.00    -0.384 OA
HETATM   23  C20 UNL     1      20.933   3.157  52.517  1.00  0.00     0.214 C 
HETATM   24  H5  UNL     1      25.044   2.858  49.156  1.00  0.00     0.167 HD
ENDROOT
BRANCH  13  25
HETATM   25  O1  UNL     1      27.692   8.242  47.634  1.00  0.00    -0.330 OA
BRANCH  25  26
HETATM   26  C12 UNL     1      28.135   9.498  48.084  1.00  0.00     0.173 C 
HETATM   27  C13 UNL     1      28.283   9.453  49.611  1.00  0.00     0.034 C 
ENDBRANCH  25  26
ENDBRANCH  13  25
TORSDOF 2
ENDMDL
MODEL 7
REMARK VINA RESULT:      -7.8      3.910      6.812
REMARK  2 active torsions:
REMARK  status: ('A' for Active; 'I' for Inactive)
REMARK    1  A    between atoms: C11_13  and  O1_14 
REMARK    2  A    between atoms: O1_14  and  C12_15 
ROOT
HETATM    1  C1  UNL     1      22.198  -1.177  54.772  1.00  0.00     0.031 C 
HETATM    2  C2  UNL     1      23.066  -0.682  53.897  1.00  0.00     0.010 C 
HETATM    3  C3  UNL     1      22.046  -0.387  53.013  1.00  0.00    -0.069 C 
HETATM    4  C4  UNL     1      21.214  -0.126  52.287  1.00  0.00    -0.086 C 
HETATM    5  C5  UNL     1      20.194   0.220  51.385  1.00  0.00     0.139 A 
HETATM    6  C6  UNL     1      18.763   0.343  51.742  1.00  0.00     0.023 A 
HETATM    7  C7  UNL     1      19.465   1.403  51.994  1.00  0.00     0.028 A 
HETATM    8  N1  UNL     1      20.077   2.635  52.332  1.00  0.00    -0.343 N 
HETATM    9  C8  UNL     1      20.331   3.802  51.573  1.00  0.00     0.134 A 
HETATM   10  N2  UNL     1      19.363   4.262  50.917  1.00  0.00    -0.267 NA
HETATM   11  C9  UNL     1      19.670   5.461  50.151  1.00  0.00     0.195 A 
HETATM   12  C10 UNL     1      21.100   5.684  50.475  1.00  0.00     0.034 A 
HETATM   13  C11 UNL     1      21.934   6.647  50.061  1.00  0.00     0.194 C 
HETATM   14  O2  UNL     1      23.296   6.831  50.397  1.00  0.00    -0.297 OA
HETATM   15  C14 UNL     1      24.254   5.820  50.618  1.00  0.00     0.181 C 
HETATM   16  C15 UNL     1      23.921   4.677  51.191  1.00  0.00     0.092 C 
HETATM   17  C16 UNL     1      22.692   4.347  51.972  1.00  0.00     0.054 C 
HETATM   18  C17 UNL     1      21.524   4.603  51.397  1.00  0.00     0.025 A 
HETATM   19  O3  UNL     1      24.602   3.494  51.223  1.00  0.00    -0.347 OA
HETATM   20  C18 UNL     1      25.060   2.886  52.431  1.00  0.00     0.201 C 
HETATM   21  C19 UNL     1      24.528   1.448  52.482  1.00  0.00     0.194 C 
HETATM   22  O4  UNL     1      24.947   0.821  53.625  1.00  0.00    -0.384 OA
HETATM   23  C20 UNL     1      24.524  -0.473  53.785  1.00  0.00     0.214 C 
HETATM   24  H5  UNL     1      20.472   2.932  53.248  1.00  0.00     0.167 HD
ENDROOT
BRANCH  13  25
HETATM   25  O1  UNL     1      21.326   7.537  49.202  1.00  0.00    -0.330 OA
BRANCH  25  26
HETATM   26  C12 UNL     1      21.214   8.922  49.421  1.00  0.00     0.173 C 
HETATM   27  C13 UNL     1      19.786   9.238  49.882  1.00  0.00     0.034 C 
ENDBRANCH  25  26
ENDBRANCH  13  25
TORSDOF 2
ENDMDL
MODEL 8
REMARK VINA RESULT:      -7.7      3.518      6.603
REMARK  2 active torsions:
REMARK  status: ('A' for Active; 'I' for Inactive)
REMARK    1  A    between atoms: C11_13  and  O1_14 
REMARK    2  A    between atoms: O1_14  and  C12_15 
ROOT
HETATM    1  C1  UNL     1      25.327   7.553  47.202  1.00  0.00     0.031 C 
HETATM    2  C2  UNL     1      25.949   6.877  48.162  1.00  0.00     0.010 C 
HETATM    3  C3  UNL     1      24.904   7.108  49.037  1.00  0.00    -0.069 C 
HETATM    4  C4  UNL     1      24.044   7.278  49.757  1.00  0.00    -0.086 C 
HETATM    5  C5  UNL     1      22.980   7.464  50.654  1.00  0.00     0.139 A 
HETATM    6  C6  UNL     1      21.608   7.855  50.261  1.00  0.00     0.023 A 
HETATM    7  C7  UNL     1      21.845   6.584  50.165  1.00  0.00     0.028 A 
HETATM    8  N1  UNL     1      21.932   5.180  50.000  1.00  0.00    -0.343 N 
HETATM    9  C8  UNL     1      21.727   4.110  50.903  1.00  0.00     0.134 A 
HETATM   10  N2  UNL     1      20.665   4.141  51.572  1.00  0.00    -0.267 NA
HETATM   11  C9  UNL     1      20.496   3.021  52.487  1.00  0.00     0.195 A 
HETATM   12  C10 UNL     1      21.726   2.230  52.246  1.00  0.00     0.034 A 
HETATM   13  C11 UNL     1      22.131   1.080  52.803  1.00  0.00     0.194 C 
HETATM   14  O2  UNL     1      23.314   0.349  52.544  1.00  0.00    -0.297 OA
HETATM   15  C14 UNL     1      24.584   0.881  52.239  1.00  0.00     0.181 C 
HETATM   16  C15 UNL     1      24.710   1.982  51.521  1.00  0.00     0.092 C 
HETATM   17  C16 UNL     1      23.693   2.657  50.660  1.00  0.00     0.054 C 
HETATM   18  C17 UNL     1      22.523   2.942  51.218  1.00  0.00     0.025 A 
HETATM   19  O3  UNL     1      25.793   2.801  51.373  1.00  0.00    -0.347 OA
HETATM   20  C18 UNL     1      26.436   3.031  50.119  1.00  0.00     0.201 C 
HETATM   21  C19 UNL     1      26.496   4.544  49.876  1.00  0.00     0.194 C 
HETATM   22  O4  UNL     1      27.111   4.815  48.683  1.00  0.00    -0.384 OA
HETATM   23  C20 UNL     1      27.215   6.142  48.353  1.00  0.00     0.214 C 
HETATM   24  H5  UNL     1      22.173   4.642  49.142  1.00  0.00     0.167 HD
ENDROOT
BRANCH  13  25
HETATM   25  O1  UNL     1      21.238   0.606  53.740  1.00  0.00    -0.330 OA
BRANCH  25  26
HETATM   26  C12 UNL     1      21.558  -0.279  54.785  1.00  0.00     0.173 C 
HETATM   27  C13 UNL     1      21.348  -1.719  54.298  1.00  0.00     0.034 C 
ENDBRANCH  25  26
ENDBRANCH  13  25
TORSDOF 2
ENDMDL
MODEL 9
REMARK VINA RESULT:      -7.7      2.173      7.286
REMARK  2 active torsions:
REMARK  status: ('A' for Active; 'I' for Inactive)
REMARK    1  A    between atoms: C11_13  and  O1_14 
REMARK    2  A    between atoms: O1_14  and  C12_15 
ROOT
HETATM    1  C1  UNL     1      26.558   1.537  52.131  1.00  0.00     0.031 C 
HETATM    2  C2  UNL     1      25.655   1.032  52.965  1.00  0.00     0.010 C 
HETATM    3  C3  UNL     1      24.906   2.192  52.897  1.00  0.00    -0.069 C 
HETATM    4  C4  UNL     1      24.277   3.133  52.835  1.00  0.00    -0.086 C 
HETATM    5  C5  UNL     1      23.477   4.285  52.755  1.00  0.00     0.139 A 
HETATM    6  C6  UNL     1      23.576   5.304  51.686  1.00  0.00     0.023 A 
HETATM    7  C7  UNL     1      22.849   4.277  51.373  1.00  0.00     0.028 A 
HETATM    8  N1  UNL     1      22.030   3.237  50.870  1.00  0.00    -0.343 N 
HETATM    9  C8  UNL     1      20.639   2.998  50.972  1.00  0.00     0.134 A 
HETATM   10  N2  UNL     1      19.885   3.964  50.694  1.00  0.00    -0.267 NA
HETATM   11  C9  UNL     1      18.464   3.673  50.813  1.00  0.00     0.195 A 
HETATM   12  C10 UNL     1      18.469   2.253  51.241  1.00  0.00     0.034 A 
HETATM   13  C11 UNL     1      17.443   1.433  51.509  1.00  0.00     0.194 C 
HETATM   14  O2  UNL     1      17.486   0.078  51.910  1.00  0.00    -0.297 OA
HETATM   15  C14 UNL     1      18.446  -0.522  52.752  1.00  0.00     0.181 C 
HETATM   16  C15 UNL     1      19.710  -0.143  52.726  1.00  0.00     0.092 C 
HETATM   17  C16 UNL     1      20.424   0.658  51.687  1.00  0.00     0.054 C 
HETATM   18  C17 UNL     1      19.883   1.821  51.344  1.00  0.00     0.025 A 
HETATM   19  O3  UNL     1      20.703  -0.374  53.635  1.00  0.00    -0.347 OA
HETATM   20  C18 UNL     1      21.892  -1.103  53.329  1.00  0.00     0.201 C 
HETATM   21  C19 UNL     1      23.102  -0.237  53.702  1.00  0.00     0.194 C 
HETATM   22  O4  UNL     1      24.269  -0.900  53.431  1.00  0.00    -0.384 OA
HETATM   23  C20 UNL     1      25.423  -0.217  53.717  1.00  0.00     0.214 C 
HETATM   24  H5  UNL     1      22.308   2.413  50.299  1.00  0.00     0.167 HD
ENDROOT
BRANCH  13  25
HETATM   25  O1  UNL     1      16.221   2.052  51.356  1.00  0.00    -0.330 OA
BRANCH  25  26
HETATM   26  C12 UNL     1      15.235   2.149  52.354  1.00  0.00     0.173 C 
HETATM   27  C13 UNL     1      15.092   3.618  52.770  1.00  0.00     0.034 C 
ENDBRANCH  25  26
ENDBRANCH  13  25
TORSDOF 2
ENDMDL
