MODEL 1
REMARK VINA RESULT:      -9.0      0.000      0.000
REMARK  4 active torsions:
REMARK  status: ('A' for Active; 'I' for Inactive)
REMARK    1  A    between atoms: O1_1  and  C1_2 
REMARK    2  A    between atoms: C3_5  and  N1_6 
REMARK    3  A    between atoms: C4_8  and  C5_9 
REMARK    4  A    between atoms: C11_15  and  C12_16 
ROOT
HETATM    1  N1  UNL     1      26.663   1.378  52.406  1.00  0.00    -0.236 N 
HETATM    2  N2  UNL     1      27.084   2.345  51.486  1.00  0.00    -0.173 NA
HETATM    3  C4  UNL     1      26.102   3.016  51.044  1.00  0.00     0.067 C 
HETATM    4  C10 UNL     1      24.841   2.534  51.657  1.00  0.00     0.094 C 
HETATM    5  C11 UNL     1      25.388   1.813  52.872  1.00  0.00     0.151 C 
ENDROOT
BRANCH   1   6
HETATM    6  C3  UNL     1      27.490   0.178  52.740  1.00  0.00     0.192 A 
HETATM    7  S1  UNL     1      29.123   0.510  53.642  1.00  0.00    -0.058 SA
HETATM    8  C2  UNL     1      29.480  -1.311  53.669  1.00  0.00     0.111 A 
HETATM    9  C1  UNL     1      28.370  -1.824  53.030  1.00  0.00     0.171 A 
HETATM   10  N3  UNL     1      27.483  -0.939  52.636  1.00  0.00    -0.198 NA
BRANCH   9  11
HETATM   11  O1  UNL     1      28.162  -3.200  52.796  1.00  0.00    -0.344 OA
HETATM   12  H1  UNL     1      27.315  -3.669  53.149  1.00  0.00     0.219 HD
ENDBRANCH   9  11
ENDBRANCH   1   6
BRANCH   5  13
HETATM   13  C12 UNL     1      24.474   0.735  53.313  1.00  0.00    -0.033 A 
HETATM   14  C13 UNL     1      23.312   0.478  52.610  1.00  0.00     0.012 A 
HETATM   15  C14 UNL     1      22.420  -0.516  52.963  1.00  0.00     0.043 A 
HETATM   16  C15 UNL     1      22.724  -1.288  54.086  1.00  0.00     0.116 A 
HETATM   17  F1  UNL     1      21.859  -2.260  54.439  1.00  0.00    -0.206 F 
HETATM   18  C16 UNL     1      23.896  -1.025  54.791  1.00  0.00     0.043 A 
HETATM   19  C17 UNL     1      24.778  -0.019  54.415  1.00  0.00     0.012 A 
ENDBRANCH   5  13
BRANCH   3  20
HETATM   20  C5  UNL     1      26.221   4.098  50.068  1.00  0.00    -0.013 A 
HETATM   21  C6  UNL     1      25.280   4.999  49.846  1.00  0.00    -0.010 A 
HETATM   22  C7  UNL     1      25.787   5.913  48.792  1.00  0.00     0.055 A 
HETATM   23  C8  UNL     1      27.127   5.416  48.445  1.00  0.00    -0.022 A 
HETATM   24  C9  UNL     1      27.374   4.364  49.188  1.00  0.00     0.009 A 
ENDBRANCH   3  20
TORSDOF 4
ENDMDL
MODEL 2
REMARK VINA RESULT:      -8.9      0.120      1.283
REMARK  4 active torsions:
REMARK  status: ('A' for Active; 'I' for Inactive)
REMARK    1  A    between atoms: O1_1  and  C1_2 
REMARK    2  A    between atoms: C3_5  and  N1_6 
REMARK    3  A    between atoms: C4_8  and  C5_9 
REMARK    4  A    between atoms: C11_15  and  C12_16 
ROOT
HETATM    1  N1  UNL     1      26.662   1.340  52.417  1.00  0.00    -0.236 N 
HETATM    2  N2  UNL     1      27.078   2.300  51.488  1.00  0.00    -0.173 NA
HETATM    3  C4  UNL     1      26.096   2.974  51.052  1.00  0.00     0.067 C 
HETATM    4  C10 UNL     1      24.839   2.501  51.680  1.00  0.00     0.094 C 
HETATM    5  C11 UNL     1      25.393   1.784  52.893  1.00  0.00     0.151 C 
ENDROOT
BRANCH   1   6
HETATM    6  C3  UNL     1      27.486   0.137  52.748  1.00  0.00     0.192 A 
HETATM    7  S1  UNL     1      29.101   0.461  53.685  1.00  0.00    -0.058 SA
HETATM    8  C2  UNL     1      29.464  -1.360  53.691  1.00  0.00     0.111 A 
HETATM    9  C1  UNL     1      28.367  -1.867  53.025  1.00  0.00     0.171 A 
HETATM   10  N3  UNL     1      27.485  -0.978  52.627  1.00  0.00    -0.198 NA
BRANCH   9  11
HETATM   11  O1  UNL     1      28.167  -3.240  52.766  1.00  0.00    -0.344 OA
HETATM   12  H1  UNL     1      27.252  -3.583  52.439  1.00  0.00     0.219 HD
ENDBRANCH   9  11
ENDBRANCH   1   6
BRANCH   5  13
HETATM   13  C12 UNL     1      24.479   0.711  53.348  1.00  0.00    -0.033 A 
HETATM   14  C13 UNL     1      24.792  -0.044  54.462  1.00  0.00     0.012 A 
HETATM   15  C14 UNL     1      23.982  -1.055  54.941  1.00  0.00     0.043 A 
HETATM   16  C15 UNL     1      22.793  -1.309  54.256  1.00  0.00     0.116 A 
HETATM   17  F1  UNL     1      21.995  -2.294  54.717  1.00  0.00    -0.206 F 
HETATM   18  C16 UNL     1      22.481  -0.544  53.134  1.00  0.00     0.043 A 
HETATM   19  C17 UNL     1      23.314   0.466  52.671  1.00  0.00     0.012 A 
ENDBRANCH   5  13
BRANCH   3  20
HETATM   20  C5  UNL     1      26.211   4.051  50.070  1.00  0.00    -0.013 A 
HETATM   21  C6  UNL     1      27.259   4.225  49.283  1.00  0.00    -0.010 A 
HETATM   22  C7  UNL     1      26.984   5.416  48.442  1.00  0.00     0.055 A 
HETATM   23  C8  UNL     1      25.655   5.893  48.850  1.00  0.00    -0.022 A 
HETATM   24  C9  UNL     1      25.210   5.098  49.794  1.00  0.00     0.009 A 
ENDBRANCH   3  20
TORSDOF 4
ENDMDL
MODEL 3
REMARK VINA RESULT:      -8.6      1.653      2.041
REMARK  4 active torsions:
REMARK  status: ('A' for Active; 'I' for Inactive)
REMARK    1  A    between atoms: O1_1  and  C1_2 
REMARK    2  A    between atoms: C3_5  and  N1_6 
REMARK    3  A    between atoms: C4_8  and  C5_9 
REMARK    4  A    between atoms: C11_15  and  C12_16 
ROOT
HETATM    1  N1  UNL     1      26.149   2.379  51.462  1.00  0.00    -0.236 N 
HETATM    2  N2  UNL     1      26.965   3.239  50.720  1.00  0.00    -0.173 NA
HETATM    3  C4  UNL     1      26.272   4.049  50.033  1.00  0.00     0.067 C 
HETATM    4  C10 UNL     1      24.828   3.796  50.253  1.00  0.00     0.094 C 
HETATM    5  C11 UNL     1      24.883   3.028  51.558  1.00  0.00     0.151 C 
ENDROOT
BRANCH   1   6
HETATM    6  C3  UNL     1      26.639   1.069  51.991  1.00  0.00     0.192 A 
HETATM    7  S1  UNL     1      27.976   1.153  53.330  1.00  0.00    -0.058 SA
HETATM    8  C2  UNL     1      28.011  -0.701  53.416  1.00  0.00     0.111 A 
HETATM    9  C1  UNL     1      27.062  -1.043  52.474  1.00  0.00     0.171 A 
HETATM   10  N3  UNL     1      26.481  -0.035  51.863  1.00  0.00    -0.198 NA
BRANCH   9  11
HETATM   11  O1  UNL     1      26.709  -2.372  52.158  1.00  0.00    -0.344 OA
HETATM   12  H1  UNL     1      25.915  -2.829  52.629  1.00  0.00     0.219 HD
ENDBRANCH   9  11
ENDBRANCH   1   6
BRANCH   5  13
HETATM   13  C12 UNL     1      23.718   2.124  51.698  1.00  0.00    -0.033 A 
HETATM   14  C13 UNL     1      22.975   1.770  50.587  1.00  0.00     0.012 A 
HETATM   15  C14 UNL     1      21.882   0.928  50.648  1.00  0.00     0.043 A 
HETATM   16  C15 UNL     1      21.525   0.421  51.898  1.00  0.00     0.116 A 
HETATM   17  F1  UNL     1      20.459  -0.402  51.967  1.00  0.00    -0.206 F 
HETATM   18  C16 UNL     1      22.277   0.781  53.014  1.00  0.00     0.043 A 
HETATM   19  C17 UNL     1      23.373   1.630  52.927  1.00  0.00     0.012 A 
ENDBRANCH   5  13
BRANCH   3  20
HETATM   20  C5  UNL     1      26.838   5.072  49.154  1.00  0.00    -0.013 A 
HETATM   21  C6  UNL     1      26.182   6.149  48.756  1.00  0.00    -0.010 A 
HETATM   22  C7  UNL     1      27.100   6.924  47.884  1.00  0.00     0.055 A 
HETATM   23  C8  UNL     1      28.351   6.153  47.838  1.00  0.00    -0.022 A 
HETATM   24  C9  UNL     1      28.194   5.080  48.576  1.00  0.00     0.009 A 
ENDBRANCH   3  20
TORSDOF 4
ENDMDL
MODEL 4
REMARK VINA RESULT:      -8.6      3.379      6.409
REMARK  4 active torsions:
REMARK  status: ('A' for Active; 'I' for Inactive)
REMARK    1  A    between atoms: O1_1  and  C1_2 
REMARK    2  A    between atoms: C3_5  and  N1_6 
REMARK    3  A    between atoms: C4_8  and  C5_9 
REMARK    4  A    between atoms: C11_15  and  C12_16 
ROOT
HETATM    1  N1  UNL     1      23.884   1.585  52.314  1.00  0.00    -0.236 N 
HETATM    2  N2  UNL     1      22.503   1.394  52.185  1.00  0.00    -0.173 NA
HETATM    3  C4  UNL     1      22.127   0.343  52.788  1.00  0.00     0.067 C 
HETATM    4  C10 UNL     1      23.292  -0.324  53.418  1.00  0.00     0.094 C 
HETATM    5  C11 UNL     1      24.278   0.826  53.454  1.00  0.00     0.151 C 
ENDROOT
BRANCH   1   6
HETATM    6  C3  UNL     1      24.664   2.445  51.370  1.00  0.00     0.192 A 
HETATM    7  S1  UNL     1      23.682   3.250  49.964  1.00  0.00    -0.058 SA
HETATM    8  C2  UNL     1      25.235   4.050  49.336  1.00  0.00     0.111 A 
HETATM    9  C1  UNL     1      26.171   3.597  50.244  1.00  0.00     0.171 A 
HETATM   10  N3  UNL     1      25.709   2.809  51.188  1.00  0.00    -0.198 NA
BRANCH   9  11
HETATM   11  O1  UNL     1      27.540   3.935  50.198  1.00  0.00    -0.344 OA
HETATM   12  H1  UNL     1      28.241   3.240  49.899  1.00  0.00     0.219 HD
ENDBRANCH   9  11
ENDBRANCH   1   6
BRANCH   5  13
HETATM   13  C12 UNL     1      25.675   0.335  53.435  1.00  0.00    -0.033 A 
HETATM   14  C13 UNL     1      26.647   0.977  54.180  1.00  0.00     0.012 A 
HETATM   15  C14 UNL     1      27.966   0.568  54.211  1.00  0.00     0.043 A 
HETATM   16  C15 UNL     1      28.315  -0.547  53.448  1.00  0.00     0.116 A 
HETATM   17  F1  UNL     1      29.601  -0.953  53.472  1.00  0.00    -0.206 F 
HETATM   18  C16 UNL     1      27.332  -1.190  52.700  1.00  0.00     0.043 A 
HETATM   19  C17 UNL     1      26.011  -0.759  52.685  1.00  0.00     0.012 A 
ENDBRANCH   5  13
BRANCH   3  20
HETATM   20  C5  UNL     1      20.743  -0.124  52.836  1.00  0.00    -0.013 A 
HETATM   21  C6  UNL     1      20.281  -0.975  53.737  1.00  0.00    -0.010 A 
HETATM   22  C7  UNL     1      18.843  -1.189  53.441  1.00  0.00     0.055 A 
HETATM   23  C8  UNL     1      18.550  -0.358  52.264  1.00  0.00    -0.022 A 
HETATM   24  C9  UNL     1      19.656   0.257  51.917  1.00  0.00     0.009 A 
ENDBRANCH   3  20
TORSDOF 4
ENDMDL
MODEL 5
REMARK VINA RESULT:      -8.4      3.163      6.288
REMARK  4 active torsions:
REMARK  status: ('A' for Active; 'I' for Inactive)
REMARK    1  A    between atoms: O1_1  and  C1_2 
REMARK    2  A    between atoms: C3_5  and  N1_6 
REMARK    3  A    between atoms: C4_8  and  C5_9 
REMARK    4  A    between atoms: C11_15  and  C12_16 
ROOT
HETATM    1  N1  UNL     1      25.130   1.173  52.326  1.00  0.00    -0.236 N 
HETATM    2  N2  UNL     1      24.192   0.360  52.971  1.00  0.00    -0.173 NA
HETATM    3  C4  UNL     1      23.013   0.623  52.584  1.00  0.00     0.067 C 
HETATM    4  C10 UNL     1      23.041   1.713  51.580  1.00  0.00     0.094 C 
HETATM    5  C11 UNL     1      24.489   1.644  51.142  1.00  0.00     0.151 C 
ENDROOT
BRANCH   1   6
HETATM    6  C3  UNL     1      26.498   1.412  52.881  1.00  0.00     0.192 A 
HETATM    7  S1  UNL     1      27.111   0.162  54.166  1.00  0.00    -0.058 SA
HETATM    8  C2  UNL     1      28.708   1.095  54.315  1.00  0.00     0.111 A 
HETATM    9  C1  UNL     1      28.514   2.128  53.421  1.00  0.00     0.171 A 
HETATM   10  N3  UNL     1      27.357   2.128  52.798  1.00  0.00    -0.198 NA
BRANCH   9  11
HETATM   11  O1  UNL     1      29.467   3.137  53.164  1.00  0.00    -0.344 OA
HETATM   12  H1  UNL     1      30.447   3.020  53.461  1.00  0.00     0.219 HD
ENDBRANCH   9  11
ENDBRANCH   1   6
BRANCH   5  13
HETATM   13  C12 UNL     1      24.964   2.956  50.646  1.00  0.00    -0.033 A 
HETATM   14  C13 UNL     1      26.048   3.025  49.791  1.00  0.00     0.012 A 
HETATM   15  C14 UNL     1      26.537   4.214  49.287  1.00  0.00     0.043 A 
HETATM   16  C15 UNL     1      25.893   5.392  49.670  1.00  0.00     0.116 A 
HETATM   17  F1  UNL     1      26.364   6.558  49.184  1.00  0.00    -0.206 F 
HETATM   18  C16 UNL     1      24.801   5.317  50.532  1.00  0.00     0.043 A 
HETATM   19  C17 UNL     1      24.328   4.107  51.025  1.00  0.00     0.012 A 
ENDBRANCH   5  13
BRANCH   3  20
HETATM   20  C5  UNL     1      21.817  -0.059  53.075  1.00  0.00    -0.013 A 
HETATM   21  C6  UNL     1      20.582   0.294  52.758  1.00  0.00    -0.010 A 
HETATM   22  C7  UNL     1      19.666  -0.641  53.456  1.00  0.00     0.055 A 
HETATM   23  C8  UNL     1      20.532  -1.562  54.206  1.00  0.00    -0.022 A 
HETATM   24  C9  UNL     1      21.778  -1.220  53.982  1.00  0.00     0.009 A 
ENDBRANCH   3  20
TORSDOF 4
ENDMDL
MODEL 6
REMARK VINA RESULT:      -8.4      3.496      4.813
REMARK  4 active torsions:
REMARK  status: ('A' for Active; 'I' for Inactive)
REMARK    1  A    between atoms: O1_1  and  C1_2 
REMARK    2  A    between atoms: C3_5  and  N1_6 
REMARK    3  A    between atoms: C4_8  and  C5_9 
REMARK    4  A    between atoms: C11_15  and  C12_16 
ROOT
HETATM    1  N1  UNL     1      23.409   1.478  52.542  1.00  0.00    -0.236 N 
HETATM    2  N2  UNL     1      22.656   2.609  52.210  1.00  0.00    -0.173 NA
HETATM    3  C4  UNL     1      23.404   3.571  51.859  1.00  0.00     0.067 C 
HETATM    4  C10 UNL     1      24.826   3.160  51.929  1.00  0.00     0.094 C 
HETATM    5  C11 UNL     1      24.675   1.653  51.910  1.00  0.00     0.151 C 
ENDROOT
BRANCH   1   6
HETATM    6  C3  UNL     1      22.867   0.378  53.399  1.00  0.00     0.192 A 
HETATM    7  S1  UNL     1      21.080  -0.149  53.053  1.00  0.00    -0.058 SA
HETATM    8  C2  UNL     1      21.190  -1.415  54.406  1.00  0.00     0.111 A 
HETATM    9  C1  UNL     1      22.481  -1.232  54.858  1.00  0.00     0.171 A 
HETATM   10  N3  UNL     1      23.169  -0.297  54.242  1.00  0.00    -0.198 NA
BRANCH   9  11
HETATM   11  O1  UNL     1      23.062  -1.975  55.907  1.00  0.00    -0.344 OA
HETATM   12  H1  UNL     1      22.481  -2.327  56.683  1.00  0.00     0.219 HD
ENDBRANCH   9  11
ENDBRANCH   1   6
BRANCH   5  13
HETATM   13  C12 UNL     1      25.815   0.990  52.583  1.00  0.00    -0.033 A 
HETATM   14  C13 UNL     1      26.321  -0.197  52.087  1.00  0.00     0.012 A 
HETATM   15  C14 UNL     1      27.385  -0.863  52.663  1.00  0.00     0.043 A 
HETATM   16  C15 UNL     1      27.965  -0.296  53.799  1.00  0.00     0.116 A 
HETATM   17  F1  UNL     1      29.004  -0.939  54.368  1.00  0.00    -0.206 F 
HETATM   18  C16 UNL     1      27.452   0.901  54.294  1.00  0.00     0.043 A 
HETATM   19  C17 UNL     1      26.379   1.552  53.697  1.00  0.00     0.012 A 
ENDBRANCH   5  13
BRANCH   3  20
HETATM   20  C5  UNL     1      22.912   4.887  51.453  1.00  0.00    -0.013 A 
HETATM   21  C6  UNL     1      21.631   5.189  51.324  1.00  0.00    -0.010 A 
HETATM   22  C7  UNL     1      21.556   6.609  50.901  1.00  0.00     0.055 A 
HETATM   23  C8  UNL     1      22.948   7.071  50.804  1.00  0.00    -0.022 A 
HETATM   24  C9  UNL     1      23.731   6.068  51.126  1.00  0.00     0.009 A 
ENDBRANCH   3  20
TORSDOF 4
ENDMDL
MODEL 7
REMARK VINA RESULT:      -8.3      3.791      6.397
REMARK  4 active torsions:
REMARK  status: ('A' for Active; 'I' for Inactive)
REMARK    1  A    between atoms: O1_1  and  C1_2 
REMARK    2  A    between atoms: C3_5  and  N1_6 
REMARK    3  A    between atoms: C4_8  and  C5_9 
REMARK    4  A    between atoms: C11_15  and  C12_16 
ROOT
HETATM    1  N1  UNL     1      24.174   0.511  53.169  1.00  0.00    -0.236 N 
HETATM    2  N2  UNL     1      25.155  -0.456  53.417  1.00  0.00    -0.173 NA
HETATM    3  C4  UNL     1      26.291  -0.075  53.002  1.00  0.00     0.067 C 
HETATM    4  C10 UNL     1      26.181   1.271  52.389  1.00  0.00     0.094 C 
HETATM    5  C11 UNL     1      24.875   1.740  52.995  1.00  0.00     0.151 C 
ENDROOT
BRANCH   1   6
HETATM    6  C3  UNL     1      22.716   0.180  53.126  1.00  0.00     0.192 A 
HETATM    7  S1  UNL     1      22.044  -0.832  54.579  1.00  0.00    -0.058 SA
HETATM    8  C2  UNL     1      20.351  -0.803  53.818  1.00  0.00     0.111 A 
HETATM    9  C1  UNL     1      20.574  -0.076  52.666  1.00  0.00     0.171 A 
HETATM   10  N3  UNL     1      21.809   0.332  52.484  1.00  0.00    -0.198 NA
BRANCH   9  11
HETATM   11  O1  UNL     1      19.571   0.230  51.722  1.00  0.00    -0.344 OA
HETATM   12  H1  UNL     1      19.608   1.110  51.186  1.00  0.00     0.219 HD
ENDBRANCH   9  11
ENDBRANCH   1   6
BRANCH   5  13
HETATM   13  C12 UNL     1      24.205   2.733  52.124  1.00  0.00    -0.033 A 
HETATM   14  C13 UNL     1      24.204   2.564  50.752  1.00  0.00     0.012 A 
HETATM   15  C14 UNL     1      23.593   3.448  49.883  1.00  0.00     0.043 A 
HETATM   16  C15 UNL     1      22.951   4.557  50.436  1.00  0.00     0.116 A 
HETATM   17  F1  UNL     1      22.353   5.426  49.596  1.00  0.00    -0.206 F 
HETATM   18  C16 UNL     1      22.954   4.722  51.819  1.00  0.00     0.043 A 
HETATM   19  C17 UNL     1      23.577   3.819  52.672  1.00  0.00     0.012 A 
ENDBRANCH   5  13
BRANCH   3  20
HETATM   20  C5  UNL     1      27.515  -0.867  53.117  1.00  0.00    -0.013 A 
HETATM   21  C6  UNL     1      27.581  -2.164  52.868  1.00  0.00    -0.010 A 
HETATM   22  C7  UNL     1      28.985  -2.583  53.100  1.00  0.00     0.055 A 
HETATM   23  C8  UNL     1      29.702  -1.367  53.510  1.00  0.00    -0.022 A 
HETATM   24  C9  UNL     1      28.844  -0.374  53.518  1.00  0.00     0.009 A 
ENDBRANCH   3  20
TORSDOF 4
ENDMDL
MODEL 8
REMARK VINA RESULT:      -8.3      3.369      5.606
REMARK  4 active torsions:
REMARK  status: ('A' for Active; 'I' for Inactive)
REMARK    1  A    between atoms: O1_1  and  C1_2 
REMARK    2  A    between atoms: C3_5  and  N1_6 
REMARK    3  A    between atoms: C4_8  and  C5_9 
REMARK    4  A    between atoms: C11_15  and  C12_16 
ROOT
HETATM    1  N1  UNL     1      24.867   1.266  52.148  1.00  0.00    -0.236 N 
HETATM    2  N2  UNL     1      26.257   1.189  52.289  1.00  0.00    -0.173 NA
HETATM    3  C4  UNL     1      26.599   0.130  52.897  1.00  0.00     0.067 C 
HETATM    4  C10 UNL     1      25.396  -0.660  53.255  1.00  0.00     0.094 C 
HETATM    5  C11 UNL     1      24.386  -0.068  52.293  1.00  0.00     0.151 C 
ENDROOT
BRANCH   1   6
HETATM    6  C3  UNL     1      24.159   2.559  51.896  1.00  0.00     0.192 A 
HETATM    7  S1  UNL     1      23.835   2.997  50.081  1.00  0.00    -0.058 SA
HETATM    8  C2  UNL     1      23.013   4.576  50.607  1.00  0.00     0.111 A 
HETATM    9  C1  UNL     1      23.119   4.503  51.981  1.00  0.00     0.171 A 
HETATM   10  N3  UNL     1      23.718   3.431  52.447  1.00  0.00    -0.198 NA
BRANCH   9  11
HETATM   11  O1  UNL     1      22.630   5.491  52.862  1.00  0.00    -0.344 OA
HETATM   12  H1  UNL     1      22.144   5.224  53.731  1.00  0.00     0.219 HD
ENDBRANCH   9  11
ENDBRANCH   1   6
BRANCH   5  13
HETATM   13  C12 UNL     1      23.007  -0.189  52.821  1.00  0.00    -0.033 A 
HETATM   14  C13 UNL     1      21.924   0.054  51.997  1.00  0.00     0.012 A 
HETATM   15  C14 UNL     1      20.614  -0.047  52.424  1.00  0.00     0.043 A 
HETATM   16  C15 UNL     1      20.393  -0.412  53.753  1.00  0.00     0.116 A 
HETATM   17  F1  UNL     1      19.118  -0.512  54.178  1.00  0.00    -0.206 F 
HETATM   18  C16 UNL     1      21.489  -0.655  54.578  1.00  0.00     0.043 A 
HETATM   19  C17 UNL     1      22.798  -0.547  54.125  1.00  0.00     0.012 A 
ENDBRANCH   5  13
BRANCH   3  20
HETATM   20  C5  UNL     1      27.983  -0.235  53.196  1.00  0.00    -0.013 A 
HETATM   21  C6  UNL     1      28.923   0.636  53.521  1.00  0.00    -0.010 A 
HETATM   22  C7  UNL     1      30.173  -0.130  53.743  1.00  0.00     0.055 A 
HETATM   23  C8  UNL     1      29.826  -1.538  53.503  1.00  0.00    -0.022 A 
HETATM   24  C9  UNL     1      28.554  -1.594  53.186  1.00  0.00     0.009 A 
ENDBRANCH   3  20
TORSDOF 4
ENDMDL
MODEL 9
REMARK VINA RESULT:      -8.1      3.580      6.560
REMARK  4 active torsions:
REMARK  status: ('A' for Active; 'I' for Inactive)
REMARK    1  A    between atoms: O1_1  and  C1_2 
REMARK    2  A    between atoms: C3_5  and  N1_6 
REMARK    3  A    between atoms: C4_8  and  C5_9 
REMARK    4  A    between atoms: C11_15  and  C12_16 
ROOT
HETATM    1  N1  UNL     1      23.695   1.205  52.074  1.00  0.00    -0.236 N 
HETATM    2  N2  UNL     1      22.601   0.425  52.464  1.00  0.00    -0.173 NA
HETATM    3  C4  UNL     1      21.528   0.837  51.927  1.00  0.00     0.067 C 
HETATM    4  C10 UNL     1      21.809   2.013  51.070  1.00  0.00     0.094 C 
HETATM    5  C11 UNL     1      23.301   1.850  50.865  1.00  0.00     0.151 C 
ENDROOT
BRANCH   1   6
HETATM    6  C3  UNL     1      24.964   1.256  52.863  1.00  0.00     0.192 A 
HETATM    7  S1  UNL     1      25.477  -0.349  53.729  1.00  0.00    -0.058 SA
HETATM    8  C2  UNL     1      26.985   0.496  54.405  1.00  0.00     0.111 A 
HETATM    9  C1  UNL     1      26.848   1.768  53.890  1.00  0.00     0.171 A 
HETATM   10  N3  UNL     1      25.784   1.967  53.146  1.00  0.00    -0.198 NA
BRANCH   9  11
HETATM   11  O1  UNL     1      27.766   2.815  54.122  1.00  0.00    -0.344 OA
HETATM   12  H1  UNL     1      28.243   2.901  55.032  1.00  0.00     0.219 HD
ENDBRANCH   9  11
ENDBRANCH   1   6
BRANCH   5  13
HETATM   13  C12 UNL     1      23.953   3.154  50.603  1.00  0.00    -0.033 A 
HETATM   14  C13 UNL     1      23.535   4.288  51.274  1.00  0.00     0.012 A 
HETATM   15  C14 UNL     1      24.103   5.532  51.080  1.00  0.00     0.043 A 
HETATM   16  C15 UNL     1      25.148   5.629  50.160  1.00  0.00     0.116 A 
HETATM   17  F1  UNL     1      25.708   6.840  49.965  1.00  0.00    -0.206 F 
HETATM   18  C16 UNL     1      25.566   4.484  49.487  1.00  0.00     0.043 A 
HETATM   19  C17 UNL     1      24.978   3.243  49.699  1.00  0.00     0.012 A 
ENDBRANCH   5  13
BRANCH   3  20
HETATM   20  C5  UNL     1      20.217   0.226  52.140  1.00  0.00    -0.013 A 
HETATM   21  C6  UNL     1      19.223   0.287  51.270  1.00  0.00    -0.010 A 
HETATM   22  C7  UNL     1      18.078  -0.450  51.859  1.00  0.00     0.055 A 
HETATM   23  C8  UNL     1      18.546  -0.933  53.167  1.00  0.00    -0.022 A 
HETATM   24  C9  UNL     1      19.787  -0.537  53.325  1.00  0.00     0.009 A 
ENDBRANCH   3  20
TORSDOF 4
ENDMDL
