MODEL 1
REMARK VINA RESULT:      -9.9      0.000      0.000
REMARK  1 active torsions:
REMARK  status: ('A' for Active; 'I' for Inactive)
REMARK    1  A    between atoms: C4_5  and  C5_6 
ROOT
HETATM    1  C5  UNL     1      24.337   2.477  52.084  1.00  0.00     0.076 C 
HETATM    2  C6  UNL     1      23.377   3.300  52.828  1.00  0.00     0.181 C 
HETATM    3  O1  UNL     1      22.192   3.720  52.161  1.00  0.00    -0.389 OA
HETATM    4  C7  UNL     1      21.587   2.544  51.947  1.00  0.00     0.186 C 
HETATM    5  C8  UNL     1      20.277   2.224  51.387  1.00  0.00     0.140 C 
HETATM    6  N1  UNL     1      20.295   0.779  51.389  1.00  0.00    -0.419 N 
HETATM    7  C9  UNL     1      20.215  -0.008  52.497  1.00  0.00     0.116 C 
HETATM    8  C10 UNL     1      21.138  -0.185  53.609  1.00  0.00     0.046 C 
HETATM    9  C11 UNL     1      22.547  -0.551  53.499  1.00  0.00     0.177 C 
HETATM   10  O2  UNL     1      23.488   0.237  52.906  1.00  0.00    -0.351 OA
HETATM   11  C12 UNL     1      24.780   0.579  53.300  1.00  0.00     0.074 A 
HETATM   12  C13 UNL     1      25.331   1.767  52.920  1.00  0.00    -0.007 A 
HETATM   13  C14 UNL     1      26.589   1.797  53.559  1.00  0.00     0.176 A 
HETATM   14  N2  UNL     1      27.778   2.437  53.151  1.00  0.00    -0.268 NA
HETATM   15  C15 UNL     1      28.880   1.940  53.716  1.00  0.00     0.227 C 
HETATM   16  N3  UNL     1      29.128   0.864  54.613  1.00  0.00    -0.254 NA
HETATM   17  C16 UNL     1      28.089   0.123  54.948  1.00  0.00     0.127 C 
HETATM   18  C17 UNL     1      26.890   0.549  54.242  1.00  0.00    -0.009 A 
HETATM   19  C18 UNL     1      25.770  -0.160  54.116  1.00  0.00     0.048 A 
HETATM   20  H10 UNL     1      20.297   0.359  50.439  1.00  0.00     0.153 HD
ENDROOT
BRANCH   1  21
HETATM   21  C4  UNL     1      25.026   3.369  51.090  1.00  0.00    -0.046 A 
HETATM   22  C3  UNL     1      25.973   2.774  50.273  1.00  0.00     0.011 A 
HETATM   23  C2  UNL     1      26.705   3.437  49.308  1.00  0.00     0.044 A 
HETATM   24  C1  UNL     1      26.443   4.791  49.176  1.00  0.00     0.138 A 
HETATM   25  F1  UNL     1      27.113   5.544  48.248  1.00  0.00    -0.204 F 
HETATM   26  C20 UNL     1      25.505   5.454  49.964  1.00  0.00     0.073 A 
HETATM   27  C19 UNL     1      24.829   4.716  50.894  1.00  0.00     0.034 A 
HETATM   28 CL1  UNL     1      25.160   7.161  49.814  1.00  0.00    -0.081 Cl
ENDBRANCH   1  21
TORSDOF 1
ENDMDL
MODEL 2
REMARK VINA RESULT:      -9.5      3.131      5.184
REMARK  1 active torsions:
REMARK  status: ('A' for Active; 'I' for Inactive)
REMARK    1  A    between atoms: C4_5  and  C5_6 
ROOT
HETATM    1  C5  UNL     1      24.136   1.859  51.917  1.00  0.00     0.076 C 
HETATM    2  C6  UNL     1      24.049   3.273  52.297  1.00  0.00     0.181 C 
HETATM    3  O1  UNL     1      24.766   4.225  51.518  1.00  0.00    -0.389 OA
HETATM    4  C7  UNL     1      24.137   4.116  50.339  1.00  0.00     0.186 C 
HETATM    5  C8  UNL     1      24.289   4.868  49.097  1.00  0.00     0.140 C 
HETATM    6  N1  UNL     1      23.356   4.194  48.223  1.00  0.00    -0.419 N 
HETATM    7  C9  UNL     1      22.000   4.266  48.314  1.00  0.00     0.116 C 
HETATM    8  C10 UNL     1      21.087   3.789  49.343  1.00  0.00     0.046 C 
HETATM    9  C11 UNL     1      21.008   2.421  49.847  1.00  0.00     0.177 C 
HETATM   10  O2  UNL     1      22.018   1.808  50.527  1.00  0.00    -0.351 OA
HETATM   11  C12 UNL     1      22.007   1.027  51.680  1.00  0.00     0.074 A 
HETATM   12  C13 UNL     1      23.092   0.988  52.505  1.00  0.00    -0.007 A 
HETATM   13  C14 UNL     1      22.691   0.173  53.585  1.00  0.00     0.176 A 
HETATM   14  N2  UNL     1      23.478  -0.651  54.416  1.00  0.00    -0.268 NA
HETATM   15  C15 UNL     1      22.785  -1.603  55.045  1.00  0.00     0.227 C 
HETATM   16  N3  UNL     1      21.420  -2.004  55.025  1.00  0.00    -0.254 NA
HETATM   17  C16 UNL     1      20.632  -1.373  54.176  1.00  0.00     0.127 C 
HETATM   18  C17 UNL     1      21.382  -0.420  53.370  1.00  0.00    -0.009 A 
HETATM   19  C18 UNL     1      20.960   0.140  52.238  1.00  0.00     0.048 A 
HETATM   20  H10 UNL     1      23.808   3.688  47.437  1.00  0.00     0.153 HD
ENDROOT
BRANCH   1  21
HETATM   21  C4  UNL     1      25.505   1.369  52.295  1.00  0.00    -0.046 A 
HETATM   22  C3  UNL     1      25.768   0.028  52.074  1.00  0.00     0.011 A 
HETATM   23  C2  UNL     1      26.966  -0.596  52.362  1.00  0.00     0.044 A 
HETATM   24  C1  UNL     1      27.950   0.213  52.909  1.00  0.00     0.138 A 
HETATM   25  F1  UNL     1      29.177  -0.304  53.232  1.00  0.00    -0.204 F 
HETATM   26  C20 UNL     1      27.754   1.569  53.158  1.00  0.00     0.073 A 
HETATM   27  C19 UNL     1      26.536   2.099  52.841  1.00  0.00     0.034 A 
HETATM   28 CL1  UNL     1      28.982   2.606  53.847  1.00  0.00    -0.081 Cl
ENDBRANCH   1  21
TORSDOF 1
ENDMDL
MODEL 3
REMARK VINA RESULT:      -9.4      2.206      5.504
REMARK  1 active torsions:
REMARK  status: ('A' for Active; 'I' for Inactive)
REMARK    1  A    between atoms: C4_5  and  C5_6 
ROOT
HETATM    1  C5  UNL     1      24.912   3.141  51.077  1.00  0.00     0.076 C 
HETATM    2  C6  UNL     1      26.119   2.461  50.594  1.00  0.00     0.181 C 
HETATM    3  O1  UNL     1      27.349   2.720  51.260  1.00  0.00    -0.389 OA
HETATM    4  C7  UNL     1      27.095   2.212  52.474  1.00  0.00     0.186 C 
HETATM    5  C8  UNL     1      27.951   2.048  53.645  1.00  0.00     0.140 C 
HETATM    6  N1  UNL     1      27.031   1.498  54.615  1.00  0.00    -0.419 N 
HETATM    7  C9  UNL     1      26.520   0.237  54.586  1.00  0.00     0.116 C 
HETATM    8  C10 UNL     1      25.613  -0.403  53.644  1.00  0.00     0.046 C 
HETATM    9  C11 UNL     1      24.298   0.096  53.251  1.00  0.00     0.177 C 
HETATM   10  O2  UNL     1      24.105   1.261  52.571  1.00  0.00    -0.351 OA
HETATM   11  C12 UNL     1      23.290   1.565  51.483  1.00  0.00     0.074 A 
HETATM   12  C13 UNL     1      23.635   2.555  50.610  1.00  0.00    -0.007 A 
HETATM   13  C14 UNL     1      22.632   2.520  49.617  1.00  0.00     0.176 A 
HETATM   14  N2  UNL     1      22.141   3.570  48.814  1.00  0.00    -0.268 NA
HETATM   15  C15 UNL     1      20.934   3.335  48.296  1.00  0.00     0.227 C 
HETATM   16  N3  UNL     1      20.002   2.267  48.415  1.00  0.00    -0.254 NA
HETATM   17  C16 UNL     1      20.319   1.297  49.252  1.00  0.00     0.127 C 
HETATM   18  C17 UNL     1      21.567   1.586  49.943  1.00  0.00    -0.009 A 
HETATM   19  C18 UNL     1      22.000   0.982  51.049  1.00  0.00     0.048 A 
HETATM   20  H10 UNL     1      26.835   2.132  55.413  1.00  0.00     0.153 HD
ENDROOT
BRANCH   1  21
HETATM   21  C4  UNL     1      25.008   4.584  50.669  1.00  0.00    -0.046 A 
HETATM   22  C3  UNL     1      24.206   5.479  51.357  1.00  0.00     0.011 A 
HETATM   23  C2  UNL     1      24.161   6.839  51.117  1.00  0.00     0.044 A 
HETATM   24  C1  UNL     1      24.993   7.301  50.110  1.00  0.00     0.138 A 
HETATM   25  F1  UNL     1      25.027   8.632  49.789  1.00  0.00    -0.204 F 
HETATM   26  C20 UNL     1      25.825   6.457  49.377  1.00  0.00     0.073 A 
HETATM   27  C19 UNL     1      25.802   5.127  49.685  1.00  0.00     0.034 A 
HETATM   28 CL1  UNL     1      26.882   7.020  48.104  1.00  0.00    -0.081 Cl
ENDBRANCH   1  21
TORSDOF 1
ENDMDL
MODEL 4
REMARK VINA RESULT:      -9.0      1.329      1.420
REMARK  1 active torsions:
REMARK  status: ('A' for Active; 'I' for Inactive)
REMARK    1  A    between atoms: C4_5  and  C5_6 
ROOT
HETATM    1  C5  UNL     1      22.998   2.307  52.154  1.00  0.00     0.076 C 
HETATM    2  C6  UNL     1      22.017   3.011  52.987  1.00  0.00     0.181 C 
HETATM    3  O1  UNL     1      20.770   3.369  52.402  1.00  0.00    -0.389 OA
HETATM    4  C7  UNL     1      20.248   2.160  52.152  1.00  0.00     0.186 C 
HETATM    5  C8  UNL     1      18.939   1.766  51.639  1.00  0.00     0.140 C 
HETATM    6  N1  UNL     1      19.068   0.329  51.559  1.00  0.00    -0.419 N 
HETATM    7  C9  UNL     1      19.107  -0.517  52.624  1.00  0.00     0.116 C 
HETATM    8  C10 UNL     1      20.097  -0.677  53.680  1.00  0.00     0.046 C 
HETATM    9  C11 UNL     1      21.523  -0.924  53.483  1.00  0.00     0.177 C 
HETATM   10  O2  UNL     1      22.368  -0.034  52.890  1.00  0.00    -0.351 OA
HETATM   11  C12 UNL     1      23.648   0.389  53.241  1.00  0.00     0.074 A 
HETATM   12  C13 UNL     1      24.086   1.636  52.901  1.00  0.00    -0.007 A 
HETATM   13  C14 UNL     1      25.370   1.733  53.480  1.00  0.00     0.176 A 
HETATM   14  N2  UNL     1      26.483   2.486  53.052  1.00  0.00    -0.268 NA
HETATM   15  C15 UNL     1      27.648   2.050  53.535  1.00  0.00     0.227 C 
HETATM   16  N3  UNL     1      28.024   0.953  54.358  1.00  0.00    -0.254 NA
HETATM   17  C16 UNL     1      27.064   0.115  54.701  1.00  0.00     0.127 C 
HETATM   18  C17 UNL     1      25.801   0.480  54.077  1.00  0.00    -0.009 A 
HETATM   19  C18 UNL     1      24.733  -0.310  53.966  1.00  0.00     0.048 A 
HETATM   20  H10 UNL     1      19.053  -0.040  50.589  1.00  0.00     0.153 HD
ENDROOT
BRANCH   1  21
HETATM   21  C4  UNL     1      23.564   3.300  51.179  1.00  0.00    -0.046 A 
HETATM   22  C3  UNL     1      23.737   2.863  49.876  1.00  0.00     0.011 A 
HETATM   23  C2  UNL     1      24.246   3.635  48.850  1.00  0.00     0.044 A 
HETATM   24  C1  UNL     1      24.594   4.933  49.188  1.00  0.00     0.138 A 
HETATM   25  F1  UNL     1      25.108   5.785  48.245  1.00  0.00    -0.204 F 
HETATM   26  C20 UNL     1      24.447   5.439  50.477  1.00  0.00     0.073 A 
HETATM   27  C19 UNL     1      23.935   4.601  51.428  1.00  0.00     0.034 A 
HETATM   28 CL1  UNL     1      24.880   7.073  50.923  1.00  0.00    -0.081 Cl
ENDBRANCH   1  21
TORSDOF 1
ENDMDL
MODEL 5
REMARK VINA RESULT:      -8.7      4.182      6.574
REMARK  1 active torsions:
REMARK  status: ('A' for Active; 'I' for Inactive)
REMARK    1  A    between atoms: C4_5  and  C5_6 
ROOT
HETATM    1  C5  UNL     1      21.570   1.844  50.791  1.00  0.00     0.076 C 
HETATM    2  C6  UNL     1      21.968   1.418  49.445  1.00  0.00     0.181 C 
HETATM    3  O1  UNL     1      21.779   2.328  48.368  1.00  0.00    -0.389 OA
HETATM    4  C7  UNL     1      22.621   3.312  48.712  1.00  0.00     0.186 C 
HETATM    5  C8  UNL     1      23.011   4.533  48.012  1.00  0.00     0.140 C 
HETATM    6  N1  UNL     1      23.894   5.159  48.970  1.00  0.00    -0.419 N 
HETATM    7  C9  UNL     1      25.144   4.725  49.288  1.00  0.00     0.116 C 
HETATM    8  C10 UNL     1      25.591   3.511  49.956  1.00  0.00     0.046 C 
HETATM    9  C11 UNL     1      25.139   3.038  51.260  1.00  0.00     0.177 C 
HETATM   10  O2  UNL     1      23.857   2.652  51.521  1.00  0.00    -0.351 OA
HETATM   11  C12 UNL     1      23.352   1.554  52.213  1.00  0.00     0.074 A 
HETATM   12  C13 UNL     1      22.133   1.032  51.895  1.00  0.00    -0.007 A 
HETATM   13  C14 UNL     1      21.996  -0.093  52.736  1.00  0.00     0.176 A 
HETATM   14  N2  UNL     1      20.821  -0.676  53.255  1.00  0.00    -0.268 NA
HETATM   15  C15 UNL     1      21.027  -1.435  54.334  1.00  0.00     0.227 C 
HETATM   16  N3  UNL     1      22.175  -1.752  55.111  1.00  0.00    -0.254 NA
HETATM   17  C16 UNL     1      23.299  -1.146  54.779  1.00  0.00     0.127 C 
HETATM   18  C17 UNL     1      23.086  -0.202  53.692  1.00  0.00    -0.009 A 
HETATM   19  C18 UNL     1      23.921   0.772  53.335  1.00  0.00     0.048 A 
HETATM   20  H10 UNL     1      23.524   6.046  49.362  1.00  0.00     0.153 HD
ENDROOT
BRANCH   1  21
HETATM   21  C4  UNL     1      20.069   1.837  50.846  1.00  0.00    -0.046 A 
HETATM   22  C3  UNL     1      19.465   2.923  51.458  1.00  0.00     0.011 A 
HETATM   23  C2  UNL     1      18.100   3.084  51.601  1.00  0.00     0.044 A 
HETATM   24  C1  UNL     1      17.315   2.067  51.082  1.00  0.00     0.138 A 
HETATM   25  F1  UNL     1      15.949   2.127  51.170  1.00  0.00    -0.204 F 
HETATM   26  C20 UNL     1      17.855   0.948  50.454  1.00  0.00     0.073 A 
HETATM   27  C19 UNL     1      19.216   0.874  50.358  1.00  0.00     0.034 A 
HETATM   28 CL1  UNL     1      16.882  -0.345  49.792  1.00  0.00    -0.081 Cl
ENDBRANCH   1  21
TORSDOF 1
ENDMDL
MODEL 6
REMARK VINA RESULT:      -8.7      3.494      5.917
REMARK  1 active torsions:
REMARK  status: ('A' for Active; 'I' for Inactive)
REMARK    1  A    between atoms: C4_5  and  C5_6 
ROOT
HETATM    1  C5  UNL     1      23.354   2.240  51.913  1.00  0.00     0.076 C 
HETATM    2  C6  UNL     1      23.279   3.629  52.381  1.00  0.00     0.181 C 
HETATM    3  O1  UNL     1      24.189   4.575  51.831  1.00  0.00    -0.389 OA
HETATM    4  C7  UNL     1      23.798   4.591  50.549  1.00  0.00     0.186 C 
HETATM    5  C8  UNL     1      24.234   5.410  49.422  1.00  0.00     0.140 C 
HETATM    6  N1  UNL     1      23.451   4.866  48.335  1.00  0.00    -0.419 N 
HETATM    7  C9  UNL     1      22.110   5.032  48.172  1.00  0.00     0.116 C 
HETATM    8  C10 UNL     1      20.987   4.556  48.967  1.00  0.00     0.046 C 
HETATM    9  C11 UNL     1      20.730   3.168  49.337  1.00  0.00     0.177 C 
HETATM   10  O2  UNL     1      21.550   2.438  50.146  1.00  0.00    -0.351 OA
HETATM   11  C12 UNL     1      21.266   1.585  51.211  1.00  0.00     0.074 A 
HETATM   12  C13 UNL     1      22.165   1.412  52.221  1.00  0.00    -0.007 A 
HETATM   13  C14 UNL     1      21.513   0.559  53.137  1.00  0.00     0.176 A 
HETATM   14  N2  UNL     1      22.071  -0.374  54.035  1.00  0.00    -0.268 NA
HETATM   15  C15 UNL     1      21.214  -1.312  54.442  1.00  0.00     0.227 C 
HETATM   16  N3  UNL     1      19.858  -1.608  54.131  1.00  0.00    -0.254 NA
HETATM   17  C16 UNL     1      19.290  -0.867  53.200  1.00  0.00     0.127 C 
HETATM   18  C17 UNL     1      20.238   0.080  52.630  1.00  0.00    -0.009 A 
HETATM   19  C18 UNL     1      20.080   0.743  51.486  1.00  0.00     0.048 A 
HETATM   20  H10 UNL     1      24.018   4.381  47.613  1.00  0.00     0.153 HD
ENDROOT
BRANCH   1  21
HETATM   21  C4  UNL     1      24.591   1.627  52.505  1.00  0.00    -0.046 A 
HETATM   22  C3  UNL     1      25.282   2.391  53.430  1.00  0.00     0.011 A 
HETATM   23  C2  UNL     1      26.438   1.991  54.072  1.00  0.00     0.044 A 
HETATM   24  C1  UNL     1      26.906   0.730  53.741  1.00  0.00     0.138 A 
HETATM   25  F1  UNL     1      28.045   0.234  54.320  1.00  0.00    -0.204 F 
HETATM   26  C20 UNL     1      26.261  -0.092  52.820  1.00  0.00     0.073 A 
HETATM   27  C19 UNL     1      25.124   0.388  52.234  1.00  0.00     0.034 A 
HETATM   28 CL1  UNL     1      26.835  -1.687  52.389  1.00  0.00    -0.081 Cl
ENDBRANCH   1  21
TORSDOF 1
ENDMDL
MODEL 7
REMARK VINA RESULT:      -8.5      3.381      5.783
REMARK  1 active torsions:
REMARK  status: ('A' for Active; 'I' for Inactive)
REMARK    1  A    between atoms: C4_5  and  C5_6 
ROOT
HETATM    1  C5  UNL     1      23.640   2.648  50.997  1.00  0.00     0.076 C 
HETATM    2  C6  UNL     1      23.416   2.839  52.434  1.00  0.00     0.181 C 
HETATM    3  O1  UNL     1      22.862   1.761  53.178  1.00  0.00    -0.389 OA
HETATM    4  C7  UNL     1      23.837   0.848  53.071  1.00  0.00     0.186 C 
HETATM    5  C8  UNL     1      23.986  -0.474  53.672  1.00  0.00     0.140 C 
HETATM    6  N1  UNL     1      25.226  -0.932  53.088  1.00  0.00    -0.419 N 
HETATM    7  C9  UNL     1      26.463  -0.453  53.394  1.00  0.00     0.116 C 
HETATM    8  C10 UNL     1      27.061   0.855  53.170  1.00  0.00     0.046 C 
HETATM    9  C11 UNL     1      27.156   1.542  51.886  1.00  0.00     0.177 C 
HETATM   10  O2  UNL     1      26.074   1.969  51.176  1.00  0.00    -0.351 OA
HETATM   11  C12 UNL     1      25.825   3.170  50.514  1.00  0.00     0.074 A 
HETATM   12  C13 UNL     1      24.550   3.633  50.369  1.00  0.00    -0.007 A 
HETATM   13  C14 UNL     1      24.696   4.884  49.733  1.00  0.00     0.176 A 
HETATM   14  N2  UNL     1      23.803   5.549  48.866  1.00  0.00    -0.268 NA
HETATM   15  C15 UNL     1      24.382   6.479  48.104  1.00  0.00     0.227 C 
HETATM   16  N3  UNL     1      25.724   6.920  47.937  1.00  0.00    -0.254 NA
HETATM   17  C16 UNL     1      26.649   6.265  48.612  1.00  0.00     0.127 C 
HETATM   18  C17 UNL     1      26.072   5.151  49.350  1.00  0.00    -0.009 A 
HETATM   19  C18 UNL     1      26.751   4.128  49.869  1.00  0.00     0.048 A 
HETATM   20  H10 UNL     1      25.113  -1.739  52.445  1.00  0.00     0.153 HD
ENDROOT
BRANCH   1  21
HETATM   21  C4  UNL     1      22.298   2.666  50.321  1.00  0.00    -0.046 A 
HETATM   22  C3  UNL     1      22.097   1.738  49.313  1.00  0.00     0.011 A 
HETATM   23  C2  UNL     1      20.931   1.612  48.583  1.00  0.00     0.044 A 
HETATM   24  C1  UNL     1      19.914   2.494  48.913  1.00  0.00     0.138 A 
HETATM   25  F1  UNL     1      18.715   2.455  48.251  1.00  0.00    -0.204 F 
HETATM   26  C20 UNL     1      20.048   3.452  49.914  1.00  0.00     0.073 A 
HETATM   27  C19 UNL     1      21.238   3.503  50.583  1.00  0.00     0.034 A 
HETATM   28 CL1  UNL     1      18.778   4.574  50.345  1.00  0.00    -0.081 Cl
ENDBRANCH   1  21
TORSDOF 1
ENDMDL
MODEL 8
REMARK VINA RESULT:      -8.3      4.523      7.802
REMARK  1 active torsions:
REMARK  status: ('A' for Active; 'I' for Inactive)
REMARK    1  A    between atoms: C4_5  and  C5_6 
ROOT
HETATM    1  C5  UNL     1      20.641   1.395  51.878  1.00  0.00     0.076 C 
HETATM    2  C6  UNL     1      20.550   2.765  52.397  1.00  0.00     0.181 C 
HETATM    3  O1  UNL     1      21.695   3.603  52.289  1.00  0.00    -0.389 OA
HETATM    4  C7  UNL     1      21.806   3.715  50.959  1.00  0.00     0.186 C 
HETATM    5  C8  UNL     1      22.711   4.510  50.133  1.00  0.00     0.140 C 
HETATM    6  N1  UNL     1      22.329   4.111  48.798  1.00  0.00    -0.419 N 
HETATM    7  C9  UNL     1      21.168   4.454  48.177  1.00  0.00     0.116 C 
HETATM    8  C10 UNL     1      19.787   4.101  48.473  1.00  0.00     0.046 C 
HETATM    9  C11 UNL     1      19.264   2.745  48.613  1.00  0.00     0.177 C 
HETATM   10  O2  UNL     1      19.645   1.887  49.602  1.00  0.00    -0.351 OA
HETATM   11  C12 UNL     1      18.900   1.041  50.421  1.00  0.00     0.074 A 
HETATM   12  C13 UNL     1      19.341   0.718  51.670  1.00  0.00    -0.007 A 
HETATM   13  C14 UNL     1      18.310  -0.075  52.218  1.00  0.00     0.176 A 
HETATM   14  N2  UNL     1      18.396  -1.104  53.179  1.00  0.00    -0.268 NA
HETATM   15  C15 UNL     1      17.352  -1.937  53.173  1.00  0.00     0.227 C 
HETATM   16  N3  UNL     1      16.182  -2.043  52.372  1.00  0.00    -0.254 NA
HETATM   17  C16 UNL     1      16.079  -1.202  51.361  1.00  0.00     0.127 C 
HETATM   18  C17 UNL     1      17.266  -0.367  51.249  1.00  0.00    -0.009 A 
HETATM   19  C18 UNL     1      17.612   0.351  50.182  1.00  0.00     0.048 A 
HETATM   20  H10 UNL     1      23.065   3.582  48.292  1.00  0.00     0.153 HD
ENDROOT
BRANCH   1  21
HETATM   21  C4  UNL     1      21.501   0.606  52.825  1.00  0.00    -0.046 A 
HETATM   22  C3  UNL     1      20.916   0.217  54.018  1.00  0.00     0.011 A 
HETATM   23  C2  UNL     1      21.553  -0.508  55.006  1.00  0.00     0.044 A 
HETATM   24  C1  UNL     1      22.870  -0.853  54.745  1.00  0.00     0.138 A 
HETATM   25  F1  UNL     1      23.596  -1.573  55.658  1.00  0.00    -0.204 F 
HETATM   26  C20 UNL     1      23.521  -0.495  53.567  1.00  0.00     0.073 A 
HETATM   27  C19 UNL     1      22.810   0.223  52.648  1.00  0.00     0.034 A 
HETATM   28 CL1  UNL     1      25.181  -0.921  53.220  1.00  0.00    -0.081 Cl
ENDBRANCH   1  21
TORSDOF 1
ENDMDL
MODEL 9
REMARK VINA RESULT:      -8.3      3.957      6.827
REMARK  1 active torsions:
REMARK  status: ('A' for Active; 'I' for Inactive)
REMARK    1  A    between atoms: C4_5  and  C5_6 
ROOT
HETATM    1  C5  UNL     1      25.107   5.953  50.004  1.00  0.00     0.076 C 
HETATM    2  C6  UNL     1      25.225   4.746  49.178  1.00  0.00     0.181 C 
HETATM    3  O1  UNL     1      26.339   3.888  49.395  1.00  0.00    -0.389 OA
HETATM    4  C7  UNL     1      26.096   3.463  50.642  1.00  0.00     0.186 C 
HETATM    5  C8  UNL     1      26.785   2.481  51.475  1.00  0.00     0.140 C 
HETATM    6  N1  UNL     1      26.041   2.560  52.711  1.00  0.00    -0.419 N 
HETATM    7  C9  UNL     1      24.774   2.098  52.897  1.00  0.00     0.116 C 
HETATM    8  C10 UNL     1      23.507   2.534  52.328  1.00  0.00     0.046 C 
HETATM    9  C11 UNL     1      22.975   3.893  52.369  1.00  0.00     0.177 C 
HETATM   10  O2  UNL     1      23.564   4.954  51.747  1.00  0.00    -0.351 OA
HETATM   11  C12 UNL     1      23.025   5.981  50.976  1.00  0.00     0.074 A 
HETATM   12  C13 UNL     1      23.767   6.583  50.003  1.00  0.00    -0.007 A 
HETATM   13  C14 UNL     1      22.882   7.500  49.395  1.00  0.00     0.176 A 
HETATM   14  N2  UNL     1      23.171   8.725  48.759  1.00  0.00    -0.268 NA
HETATM   15  C15 UNL     1      22.125   9.549  48.674  1.00  0.00     0.227 C 
HETATM   16  N3  UNL     1      20.779   9.482  49.130  1.00  0.00    -0.254 NA
HETATM   17  C16 UNL     1      20.451   8.428  49.852  1.00  0.00     0.127 C 
HETATM   18  C17 UNL     1      21.605   7.571  50.085  1.00  0.00    -0.009 A 
HETATM   19  C18 UNL     1      21.688   6.616  51.009  1.00  0.00     0.048 A 
HETATM   20  H10 UNL     1      26.589   2.942  53.506  1.00  0.00     0.153 HD
ENDROOT
BRANCH   1  21
HETATM   21  C4  UNL     1      26.148   6.929  49.536  1.00  0.00    -0.046 A 
HETATM   22  C3  UNL     1      26.337   8.058  50.314  1.00  0.00     0.011 A 
HETATM   23  C2  UNL     1      27.245   9.061  50.037  1.00  0.00     0.044 A 
HETATM   24  C1  UNL     1      28.004   8.887  48.890  1.00  0.00     0.138 A 
HETATM   25  F1  UNL     1      28.935   9.822  48.521  1.00  0.00    -0.204 F 
HETATM   26  C20 UNL     1      27.866   7.776  48.061  1.00  0.00     0.073 A 
HETATM   27  C19 UNL     1      26.942   6.836  48.415  1.00  0.00     0.034 A 
HETATM   28 CL1  UNL     1      28.813   7.538  46.610  1.00  0.00    -0.081 Cl
ENDBRANCH   1  21
TORSDOF 1
ENDMDL
