MODEL 1
REMARK VINA RESULT:      -9.4      0.000      0.000
REMARK  4 active torsions:
REMARK  status: ('A' for Active; 'I' for Inactive)
REMARK    1  A    between atoms: C5_5  and  N1_6 
REMARK    2  A    between atoms: N1_6  and  C6_7 
REMARK    3  A    between atoms: N2_12  and  C10_13 
REMARK    4  A    between atoms: C10_13  and  N3_14 
ROOT
HETATM    1  C6  UNL     1      23.340   4.646  50.710  1.00  0.00     0.204 C 
HETATM    2  C7  UNL     1      22.200   5.411  51.331  1.00  0.00     0.214 C 
HETATM    3  O1  UNL     1      21.242   4.663  51.948  1.00  0.00    -0.386 OA
HETATM    4  C8  UNL     1      20.812   3.568  51.209  1.00  0.00     0.187 C 
HETATM    5  C9  UNL     1      21.979   2.673  50.818  1.00  0.00     0.147 C 
HETATM    6  N2  UNL     1      23.230   3.273  51.074  1.00  0.00    -0.373 N 
ENDROOT
BRANCH   6   7
HETATM    7  C10 UNL     1      24.401   2.497  51.092  1.00  0.00     0.242 C 
BRANCH   7   8
HETATM    8  N3  UNL     1      24.666   1.862  52.341  1.00  0.00    -0.373 N 
HETATM    9  C11 UNL     1      25.039   2.650  53.432  1.00  0.00     0.290 C 
HETATM   10  O2  UNL     1      26.127   2.017  54.103  1.00  0.00    -0.359 OA
HETATM   11  C12 UNL     1      26.935   1.545  53.096  1.00  0.00     0.180 A 
HETATM   12  C13 UNL     1      28.308   1.180  53.520  1.00  0.00     0.042 A 
HETATM   13  C18 UNL     1      26.402   0.208  52.719  1.00  0.00    -0.016 A 
HETATM   14  C14 UNL     1      28.459  -0.148  53.373  1.00  0.00     0.069 A 
HETATM   15  N4  UNL     1      29.469  -1.020  53.594  1.00  0.00    -0.242 NA
HETATM   16  C17 UNL     1      27.299  -0.717  52.889  1.00  0.00     0.017 A 
HETATM   17  C15 UNL     1      29.325  -2.337  53.351  1.00  0.00     0.233 A 
HETATM   18  N5  UNL     1      28.171  -2.883  52.873  1.00  0.00    -0.253 NA
HETATM   19  C16 UNL     1      27.114  -2.054  52.629  1.00  0.00     0.132 A 
HETATM   20  C19 UNL     1      25.033   0.496  52.301  1.00  0.00     0.159 C 
ENDBRANCH   7   8
ENDBRANCH   6   7
BRANCH   1  21
HETATM   21  N1  UNL     1      24.626   5.224  51.053  1.00  0.00    -0.367 N 
HETATM   22  H6  UNL     1      24.918   5.346  52.050  1.00  0.00     0.161 HD
BRANCH  21  23
HETATM   23  C5  UNL     1      25.612   5.681  50.136  1.00  0.00     0.029 A 
HETATM   24  C4  UNL     1      25.839   7.027  49.831  1.00  0.00     0.029 A 
HETATM   25  C3  UNL     1      26.792   7.432  48.942  1.00  0.00     0.009 A 
HETATM   26  C2  UNL     1      27.591   6.544  48.291  1.00  0.00    -0.062 A 
HETATM   27  C1  UNL     1      28.614   7.017  47.335  1.00  0.00     0.048 C 
HETATM   28  C21 UNL     1      27.421   5.213  48.543  1.00  0.00     0.009 A 
HETATM   29  C20 UNL     1      26.454   4.823  49.443  1.00  0.00     0.029 A 
ENDBRANCH  21  23
ENDBRANCH   1  21
TORSDOF 4
ENDMDL
MODEL 2
REMARK VINA RESULT:      -9.0      2.414      5.599
REMARK  4 active torsions:
REMARK  status: ('A' for Active; 'I' for Inactive)
REMARK    1  A    between atoms: C5_5  and  N1_6 
REMARK    2  A    between atoms: N1_6  and  C6_7 
REMARK    3  A    between atoms: N2_12  and  C10_13 
REMARK    4  A    between atoms: C10_13  and  N3_14 
ROOT
HETATM    1  C6  UNL     1      22.070   3.086  51.604  1.00  0.00     0.204 C 
HETATM    2  C7  UNL     1      21.085   4.077  51.041  1.00  0.00     0.214 C 
HETATM    3  O1  UNL     1      21.618   5.205  50.492  1.00  0.00    -0.386 OA
HETATM    4  C8  UNL     1      22.599   5.808  51.268  1.00  0.00     0.187 C 
HETATM    5  C9  UNL     1      23.717   4.831  51.602  1.00  0.00     0.147 C 
HETATM    6  N2  UNL     1      23.390   3.501  51.265  1.00  0.00    -0.373 N 
ENDROOT
BRANCH   6   7
HETATM    7  C10 UNL     1      24.393   2.520  51.189  1.00  0.00     0.242 C 
BRANCH   7   8
HETATM    8  N3  UNL     1      24.697   1.893  52.433  1.00  0.00    -0.373 N 
HETATM    9  C11 UNL     1      25.127   2.686  53.500  1.00  0.00     0.290 C 
HETATM   10  O2  UNL     1      26.230   2.042  54.134  1.00  0.00    -0.359 OA
HETATM   11  C12 UNL     1      26.989   1.545  53.101  1.00  0.00     0.180 A 
HETATM   12  C13 UNL     1      28.372   1.162  53.474  1.00  0.00     0.042 A 
HETATM   13  C18 UNL     1      26.420   0.214  52.760  1.00  0.00    -0.016 A 
HETATM   14  C14 UNL     1      28.495  -0.170  53.335  1.00  0.00     0.069 A 
HETATM   15  N4  UNL     1      29.499  -1.057  53.525  1.00  0.00    -0.242 NA
HETATM   16  C17 UNL     1      27.308  -0.724  52.904  1.00  0.00     0.017 A 
HETATM   17  C15 UNL     1      29.324  -2.374  53.303  1.00  0.00     0.233 A 
HETATM   18  N5  UNL     1      28.142  -2.905  52.877  1.00  0.00    -0.253 NA
HETATM   19  C16 UNL     1      27.090  -2.060  52.667  1.00  0.00     0.132 A 
HETATM   20  C19 UNL     1      25.040   0.521  52.393  1.00  0.00     0.159 C 
ENDBRANCH   7   8
ENDBRANCH   6   7
BRANCH   1  21
HETATM   21  N1  UNL     1      21.772   1.731  51.179  1.00  0.00    -0.367 N 
HETATM   22  H6  UNL     1      22.295   1.281  50.393  1.00  0.00     0.161 HD
BRANCH  21  23
HETATM   23  C5  UNL     1      20.784   0.875  51.738  1.00  0.00     0.029 A 
HETATM   24  C4  UNL     1      20.947   0.157  52.928  1.00  0.00     0.029 A 
HETATM   25  C3  UNL     1      19.980  -0.660  53.436  1.00  0.00     0.009 A 
HETATM   26  C2  UNL     1      18.783  -0.830  52.812  1.00  0.00    -0.062 A 
HETATM   27  C1  UNL     1      17.756  -1.723  53.389  1.00  0.00     0.048 C 
HETATM   28  C21 UNL     1      18.558  -0.159  51.645  1.00  0.00     0.009 A 
HETATM   29  C20 UNL     1      19.547   0.662  51.147  1.00  0.00     0.029 A 
ENDBRANCH  21  23
ENDBRANCH   1  21
TORSDOF 4
ENDMDL
MODEL 3
REMARK VINA RESULT:      -8.8      2.393      6.391
REMARK  4 active torsions:
REMARK  status: ('A' for Active; 'I' for Inactive)
REMARK    1  A    between atoms: C5_5  and  N1_6 
REMARK    2  A    between atoms: N1_6  and  C6_7 
REMARK    3  A    between atoms: N2_12  and  C10_13 
REMARK    4  A    between atoms: C10_13  and  N3_14 
ROOT
HETATM    1  C6  UNL     1      23.126   1.714  53.114  1.00  0.00     0.204 C 
HETATM    2  C7  UNL     1      22.900   0.245  52.866  1.00  0.00     0.214 C 
HETATM    3  O1  UNL     1      21.795  -0.076  52.135  1.00  0.00    -0.386 OA
HETATM    4  C8  UNL     1      20.639   0.584  52.531  1.00  0.00     0.187 C 
HETATM    5  C9  UNL     1      20.833   2.093  52.518  1.00  0.00     0.147 C 
HETATM    6  N2  UNL     1      22.183   2.463  52.351  1.00  0.00    -0.373 N 
ENDROOT
BRANCH   6   7
HETATM    7  C10 UNL     1      22.522   3.778  51.988  1.00  0.00     0.242 C 
BRANCH   7   8
HETATM    8  N3  UNL     1      22.847   3.941  50.610  1.00  0.00    -0.373 N 
HETATM    9  C11 UNL     1      22.903   2.809  49.792  1.00  0.00     0.290 C 
HETATM   10  O2  UNL     1      24.063   2.897  48.968  1.00  0.00    -0.359 OA
HETATM   11  C12 UNL     1      25.048   3.380  49.796  1.00  0.00     0.180 A 
HETATM   12  C13 UNL     1      26.429   3.209  49.286  1.00  0.00     0.042 A 
HETATM   13  C18 UNL     1      24.930   4.863  49.771  1.00  0.00    -0.016 A 
HETATM   14  C14 UNL     1      26.947   4.427  49.044  1.00  0.00     0.069 A 
HETATM   15  N4  UNL     1      28.134   4.880  48.582  1.00  0.00    -0.242 NA
HETATM   16  C17 UNL     1      26.028   5.411  49.343  1.00  0.00     0.017 A 
HETATM   17  C15 UNL     1      28.373   6.198  48.435  1.00  0.00     0.233 A 
HETATM   18  N5  UNL     1      27.453   7.158  48.735  1.00  0.00    -0.253 NA
HETATM   19  C16 UNL     1      26.234   6.763  49.206  1.00  0.00     0.132 A 
HETATM   20  C19 UNL     1      23.573   5.102  50.255  1.00  0.00     0.159 C 
ENDBRANCH   7   8
ENDBRANCH   6   7
BRANCH   1  21
HETATM   21  N1  UNL     1      24.501   2.098  52.855  1.00  0.00    -0.367 N 
HETATM   22  H6  UNL     1      24.739   3.041  52.470  1.00  0.00     0.161 HD
BRANCH  21  23
HETATM   23  C5  UNL     1      25.652   1.293  53.075  1.00  0.00     0.029 A 
HETATM   24  C4  UNL     1      26.214   1.050  54.333  1.00  0.00     0.029 A 
HETATM   25  C3  UNL     1      27.323   0.275  54.510  1.00  0.00     0.009 A 
HETATM   26  C2  UNL     1      27.958  -0.319  53.463  1.00  0.00    -0.062 A 
HETATM   27  C1  UNL     1      29.156  -1.154  53.690  1.00  0.00     0.048 C 
HETATM   28  C21 UNL     1      27.461  -0.124  52.207  1.00  0.00     0.009 A 
HETATM   29  C20 UNL     1      26.341   0.663  52.048  1.00  0.00     0.029 A 
ENDBRANCH  21  23
ENDBRANCH   1  21
TORSDOF 4
ENDMDL
MODEL 4
REMARK VINA RESULT:      -8.7      1.510      2.209
REMARK  4 active torsions:
REMARK  status: ('A' for Active; 'I' for Inactive)
REMARK    1  A    between atoms: C5_5  and  N1_6 
REMARK    2  A    between atoms: N1_6  and  C6_7 
REMARK    3  A    between atoms: N2_12  and  C10_13 
REMARK    4  A    between atoms: C10_13  and  N3_14 
ROOT
HETATM    1  C6  UNL     1      23.115   5.181  50.461  1.00  0.00     0.204 C 
HETATM    2  C7  UNL     1      22.218   6.291  49.977  1.00  0.00     0.214 C 
HETATM    3  O1  UNL     1      20.941   6.280  50.454  1.00  0.00    -0.386 OA
HETATM    4  C8  UNL     1      20.326   5.036  50.409  1.00  0.00     0.187 C 
HETATM    5  C9  UNL     1      21.149   3.986  51.141  1.00  0.00     0.147 C 
HETATM    6  N2  UNL     1      22.438   4.448  51.478  1.00  0.00    -0.373 N 
ENDROOT
BRANCH   6   7
HETATM    7  C10 UNL     1      23.214   3.761  52.427  1.00  0.00     0.242 C 
BRANCH   7   8
HETATM    8  N3  UNL     1      23.894   2.618  51.913  1.00  0.00    -0.373 N 
HETATM    9  C11 UNL     1      23.204   1.406  51.826  1.00  0.00     0.290 C 
HETATM   10  O2  UNL     1      24.052   0.362  52.299  1.00  0.00    -0.359 OA
HETATM   11  C12 UNL     1      24.680   0.890  53.402  1.00  0.00     0.180 A 
HETATM   12  C13 UNL     1      25.325  -0.109  54.288  1.00  0.00     0.042 A 
HETATM   13  C18 UNL     1      25.875   1.619  52.898  1.00  0.00    -0.016 A 
HETATM   14  C14 UNL     1      26.655   0.087  54.251  1.00  0.00     0.069 A 
HETATM   15  N4  UNL     1      27.719  -0.504  54.840  1.00  0.00    -0.242 NA
HETATM   16  C17 UNL     1      26.967   1.133  53.408  1.00  0.00     0.017 A 
HETATM   17  C15 UNL     1      28.977  -0.084  54.602  1.00  0.00     0.233 A 
HETATM   18  N5  UNL     1      29.268   0.953  53.765  1.00  0.00    -0.253 NA
HETATM   19  C16 UNL     1      28.236   1.591  53.140  1.00  0.00     0.132 A 
HETATM   20  C19 UNL     1      25.307   2.619  51.999  1.00  0.00     0.159 C 
ENDBRANCH   7   8
ENDBRANCH   6   7
BRANCH   1  21
HETATM   21  N1  UNL     1      24.409   5.682  50.886  1.00  0.00    -0.367 N 
HETATM   22  H6  UNL     1      24.602   5.905  51.889  1.00  0.00     0.161 HD
BRANCH  21  23
HETATM   23  C5  UNL     1      25.529   5.929  50.047  1.00  0.00     0.029 A 
HETATM   24  C4  UNL     1      26.265   4.928  49.402  1.00  0.00     0.029 A 
HETATM   25  C3  UNL     1      27.339   5.198  48.606  1.00  0.00     0.009 A 
HETATM   26  C2  UNL     1      27.768   6.470  48.384  1.00  0.00    -0.062 A 
HETATM   27  C1  UNL     1      28.935   6.728  47.515  1.00  0.00     0.048 C 
HETATM   28  C21 UNL     1      27.094   7.496  48.983  1.00  0.00     0.009 A 
HETATM   29  C20 UNL     1      26.012   7.203  49.785  1.00  0.00     0.029 A 
ENDBRANCH  21  23
ENDBRANCH   1  21
TORSDOF 4
ENDMDL
MODEL 5
REMARK VINA RESULT:      -8.6      2.563      6.442
REMARK  4 active torsions:
REMARK  status: ('A' for Active; 'I' for Inactive)
REMARK    1  A    between atoms: C5_5  and  N1_6 
REMARK    2  A    between atoms: N1_6  and  C6_7 
REMARK    3  A    between atoms: N2_12  and  C10_13 
REMARK    4  A    between atoms: C10_13  and  N3_14 
ROOT
HETATM    1  C6  UNL     1      26.905   1.529  52.684  1.00  0.00     0.204 C 
HETATM    2  C7  UNL     1      28.386   1.464  52.955  1.00  0.00     0.214 C 
HETATM    3  O1  UNL     1      28.798   0.476  53.799  1.00  0.00    -0.386 OA
HETATM    4  C8  UNL     1      28.037   0.361  54.955  1.00  0.00     0.187 C 
HETATM    5  C9  UNL     1      26.564   0.167  54.629  1.00  0.00     0.147 C 
HETATM    6  N2  UNL     1      26.277   0.391  53.267  1.00  0.00    -0.373 N 
ENDROOT
BRANCH   6   7
HETATM    7  C10 UNL     1      25.064  -0.051  52.713  1.00  0.00     0.242 C 
BRANCH   7   8
HETATM    8  N3  UNL     1      23.918   0.218  53.517  1.00  0.00    -0.373 N 
HETATM    9  C11 UNL     1      23.213  -0.856  54.066  1.00  0.00     0.290 C 
HETATM   10  O2  UNL     1      21.816  -0.620  53.898  1.00  0.00    -0.359 OA
HETATM   11  C12 UNL     1      21.697  -0.100  52.630  1.00  0.00     0.180 A 
HETATM   12  C13 UNL     1      20.322  -0.121  52.077  1.00  0.00     0.042 A 
HETATM   13  C18 UNL     1      21.920   1.365  52.752  1.00  0.00    -0.016 A 
HETATM   14  C14 UNL     1      19.905   1.149  51.928  1.00  0.00     0.069 A 
HETATM   15  N4  UNL     1      18.769   1.730  51.479  1.00  0.00    -0.242 NA
HETATM   16  C17 UNL     1      20.882   2.030  52.341  1.00  0.00     0.017 A 
HETATM   17  C15 UNL     1      18.630   3.069  51.449  1.00  0.00     0.233 A 
HETATM   18  N5  UNL     1      19.607   3.927  51.861  1.00  0.00    -0.253 NA
HETATM   19  C16 UNL     1      20.779   3.401  52.326  1.00  0.00     0.132 A 
HETATM   20  C19 UNL     1      23.266   1.457  53.311  1.00  0.00     0.159 C 
ENDBRANCH   7   8
ENDBRANCH   6   7
BRANCH   1  21
HETATM   21  N1  UNL     1      26.623   1.673  51.269  1.00  0.00    -0.367 N 
HETATM   22  H6  UNL     1      26.802   0.892  50.597  1.00  0.00     0.161 HD
BRANCH  21  23
HETATM   23  C5  UNL     1      26.096   2.829  50.632  1.00  0.00     0.029 A 
HETATM   24  C4  UNL     1      24.790   3.300  50.810  1.00  0.00     0.029 A 
HETATM   25  C3  UNL     1      24.313   4.412  50.181  1.00  0.00     0.009 A 
HETATM   26  C2  UNL     1      25.084   5.143  49.331  1.00  0.00    -0.062 A 
HETATM   27  C1  UNL     1      24.536   6.343  48.665  1.00  0.00     0.048 C 
HETATM   28  C21 UNL     1      26.369   4.739  49.111  1.00  0.00     0.009 A 
HETATM   29  C20 UNL     1      26.833   3.613  49.756  1.00  0.00     0.029 A 
ENDBRANCH  21  23
ENDBRANCH   1  21
TORSDOF 4
ENDMDL
MODEL 6
REMARK VINA RESULT:      -8.5      3.164      4.503
REMARK  4 active torsions:
REMARK  status: ('A' for Active; 'I' for Inactive)
REMARK    1  A    between atoms: C5_5  and  N1_6 
REMARK    2  A    between atoms: N1_6  and  C6_7 
REMARK    3  A    between atoms: N2_12  and  C10_13 
REMARK    4  A    between atoms: C10_13  and  N3_14 
ROOT
HETATM    1  C6  UNL     1      19.848   1.423  51.658  1.00  0.00     0.204 C 
HETATM    2  C7  UNL     1      18.566   1.900  51.026  1.00  0.00     0.214 C 
HETATM    3  O1  UNL     1      17.420   1.324  51.489  1.00  0.00    -0.386 OA
HETATM    4  C8  UNL     1      17.481  -0.059  51.598  1.00  0.00     0.187 C 
HETATM    5  C9  UNL     1      18.652  -0.493  52.466  1.00  0.00     0.147 C 
HETATM    6  N2  UNL     1      19.535   0.568  52.754  1.00  0.00    -0.373 N 
ENDROOT
BRANCH   6   7
HETATM    7  C10 UNL     1      20.476   0.450  53.790  1.00  0.00     0.242 C 
BRANCH   7   8
HETATM    8  N3  UNL     1      21.360  -0.661  53.657  1.00  0.00    -0.373 N 
HETATM    9  C11 UNL     1      21.331  -1.665  54.629  1.00  0.00     0.290 C 
HETATM   10  O2  UNL     1      22.672  -2.013  54.966  1.00  0.00    -0.359 OA
HETATM   11  C12 UNL     1      23.345  -0.815  55.020  1.00  0.00     0.180 A 
HETATM   12  C13 UNL     1      24.655  -0.868  55.712  1.00  0.00     0.042 A 
HETATM   13  C18 UNL     1      23.783  -0.514  53.630  1.00  0.00    -0.016 A 
HETATM   14  C14 UNL     1      25.622  -0.621  54.810  1.00  0.00     0.069 A 
HETATM   15  N4  UNL     1      26.971  -0.541  54.862  1.00  0.00    -0.242 NA
HETATM   16  C17 UNL     1      25.076  -0.410  53.562  1.00  0.00     0.017 A 
HETATM   17  C15 UNL     1      27.701  -0.275  53.761  1.00  0.00     0.233 A 
HETATM   18  N5  UNL     1      27.145  -0.069  52.533  1.00  0.00    -0.253 NA
HETATM   19  C16 UNL     1      25.786  -0.137  52.416  1.00  0.00     0.132 A 
HETATM   20  C19 UNL     1      22.529  -0.462  52.885  1.00  0.00     0.159 C 
ENDBRANCH   7   8
ENDBRANCH   6   7
BRANCH   1  21
HETATM   21  N1  UNL     1      20.709   2.530  52.027  1.00  0.00    -0.367 N 
HETATM   22  H6  UNL     1      20.376   3.288  52.666  1.00  0.00     0.161 HD
BRANCH  21  23
HETATM   23  C5  UNL     1      22.049   2.730  51.596  1.00  0.00     0.029 A 
HETATM   24  C4  UNL     1      23.106   3.077  52.446  1.00  0.00     0.029 A 
HETATM   25  C3  UNL     1      24.381   3.265  52.000  1.00  0.00     0.009 A 
HETATM   26  C2  UNL     1      24.711   3.124  50.688  1.00  0.00    -0.062 A 
HETATM   27  C1  UNL     1      26.103   3.335  50.238  1.00  0.00     0.048 C 
HETATM   28  C21 UNL     1      23.728   2.787  49.803  1.00  0.00     0.009 A 
HETATM   29  C20 UNL     1      22.445   2.602  50.272  1.00  0.00     0.029 A 
ENDBRANCH  21  23
ENDBRANCH   1  21
TORSDOF 4
ENDMDL
MODEL 7
REMARK VINA RESULT:      -8.5      2.288      7.077
REMARK  4 active torsions:
REMARK  status: ('A' for Active; 'I' for Inactive)
REMARK    1  A    between atoms: C5_5  and  N1_6 
REMARK    2  A    between atoms: N1_6  and  C6_7 
REMARK    3  A    between atoms: N2_12  and  C10_13 
REMARK    4  A    between atoms: C10_13  and  N3_14 
ROOT
HETATM    1  C6  UNL     1      23.747   2.336  52.091  1.00  0.00     0.204 C 
HETATM    2  C7  UNL     1      23.005   1.250  51.355  1.00  0.00     0.214 C 
HETATM    3  O1  UNL     1      21.786   1.594  50.850  1.00  0.00    -0.386 OA
HETATM    4  C8  UNL     1      20.976   2.288  51.739  1.00  0.00     0.187 C 
HETATM    5  C9  UNL     1      21.675   3.533  52.266  1.00  0.00     0.147 C 
HETATM    6  N2  UNL     1      23.044   3.566  51.934  1.00  0.00    -0.373 N 
ENDROOT
BRANCH   6   7
HETATM    7  C10 UNL     1      23.774   4.763  52.039  1.00  0.00     0.242 C 
BRANCH   7   8
HETATM    8  N3  UNL     1      23.746   5.572  50.866  1.00  0.00    -0.373 N 
HETATM    9  C11 UNL     1      23.615   4.951  49.621  1.00  0.00     0.290 C 
HETATM   10  O2  UNL     1      24.536   5.551  48.712  1.00  0.00    -0.359 OA
HETATM   11  C12 UNL     1      25.687   5.729  49.442  1.00  0.00     0.180 A 
HETATM   12  C13 UNL     1      26.903   5.986  48.632  1.00  0.00     0.042 A 
HETATM   13  C18 UNL     1      25.545   7.033  50.143  1.00  0.00    -0.016 A 
HETATM   14  C14 UNL     1      27.326   7.237  48.889  1.00  0.00     0.069 A 
HETATM   15  N4  UNL     1      28.356   7.998  48.456  1.00  0.00    -0.242 NA
HETATM   16  C17 UNL     1      26.495   7.852  49.802  1.00  0.00     0.017 A 
HETATM   17  C15 UNL     1      28.533   9.258  48.899  1.00  0.00     0.233 A 
HETATM   18  N5  UNL     1      27.701   9.852  49.802  1.00  0.00    -0.253 NA
HETATM   19  C16 UNL     1      26.641   9.133  50.278  1.00  0.00     0.132 A 
HETATM   20  C19 UNL     1      24.346   6.851  50.955  1.00  0.00     0.159 C 
ENDBRANCH   7   8
ENDBRANCH   6   7
BRANCH   1  21
HETATM   21  N1  UNL     1      25.134   2.416  51.676  1.00  0.00    -0.367 N 
HETATM   22  H6  UNL     1      25.438   3.068  50.916  1.00  0.00     0.161 HD
BRANCH  21  23
HETATM   23  C5  UNL     1      26.214   1.662  52.211  1.00  0.00     0.029 A 
HETATM   24  C4  UNL     1      27.327   2.222  52.848  1.00  0.00     0.029 A 
HETATM   25  C3  UNL     1      28.349   1.470  53.347  1.00  0.00     0.009 A 
HETATM   26  C2  UNL     1      28.352   0.112  53.258  1.00  0.00    -0.062 A 
HETATM   27  C1  UNL     1      29.476  -0.673  53.810  1.00  0.00     0.048 C 
HETATM   28  C21 UNL     1      27.296  -0.500  52.647  1.00  0.00     0.009 A 
HETATM   29  C20 UNL     1      26.273   0.276  52.148  1.00  0.00     0.029 A 
ENDBRANCH  21  23
ENDBRANCH   1  21
TORSDOF 4
ENDMDL
MODEL 8
REMARK VINA RESULT:      -8.3      3.393      6.713
REMARK  4 active torsions:
REMARK  status: ('A' for Active; 'I' for Inactive)
REMARK    1  A    between atoms: C5_5  and  N1_6 
REMARK    2  A    between atoms: N1_6  and  C6_7 
REMARK    3  A    between atoms: N2_12  and  C10_13 
REMARK    4  A    between atoms: C10_13  and  N3_14 
ROOT
HETATM    1  C6  UNL     1      20.563   2.450  51.274  1.00  0.00     0.204 C 
HETATM    2  C7  UNL     1      20.718   3.235  49.997  1.00  0.00     0.214 C 
HETATM    3  O1  UNL     1      21.780   4.088  49.944  1.00  0.00    -0.386 OA
HETATM    4  C8  UNL     1      21.938   4.874  51.078  1.00  0.00     0.187 C 
HETATM    5  C9  UNL     1      22.039   4.019  52.332  1.00  0.00     0.147 C 
HETATM    6  N2  UNL     1      21.708   2.669  52.094  1.00  0.00    -0.373 N 
ENDROOT
BRANCH   6   7
HETATM    7  C10 UNL     1      22.052   1.676  53.028  1.00  0.00     0.242 C 
BRANCH   7   8
HETATM    8  N3  UNL     1      23.101   0.809  52.604  1.00  0.00    -0.373 N 
HETATM    9  C11 UNL     1      23.067  -0.532  52.994  1.00  0.00     0.290 C 
HETATM   10  O2  UNL     1      24.373  -0.919  53.416  1.00  0.00    -0.359 OA
HETATM   11  C12 UNL     1      24.842   0.152  54.139  1.00  0.00     0.180 A 
HETATM   12  C13 UNL     1      26.017  -0.143  54.995  1.00  0.00     0.042 A 
HETATM   13  C18 UNL     1      25.448   1.091  53.158  1.00  0.00    -0.016 A 
HETATM   14  C14 UNL     1      27.068   0.552  54.525  1.00  0.00     0.069 A 
HETATM   15  N4  UNL     1      28.364   0.677  54.891  1.00  0.00    -0.242 NA
HETATM   16  C17 UNL     1      26.705   1.290  53.418  1.00  0.00     0.017 A 
HETATM   17  C15 UNL     1      29.213   1.468  54.207  1.00  0.00     0.233 A 
HETATM   18  N5  UNL     1      28.838   2.191  53.113  1.00  0.00    -0.253 NA
HETATM   19  C16 UNL     1      27.541   2.107  52.694  1.00  0.00     0.132 A 
HETATM   20  C19 UNL     1      24.336   1.413  52.268  1.00  0.00     0.159 C 
ENDBRANCH   7   8
ENDBRANCH   6   7
BRANCH   1  21
HETATM   21  N1  UNL     1      20.309   1.046  51.014  1.00  0.00    -0.367 N 
HETATM   22  H6  UNL     1      21.018   0.445  50.535  1.00  0.00     0.161 HD
BRANCH  21  23
HETATM   23  C5  UNL     1      19.128   0.331  51.353  1.00  0.00     0.029 A 
HETATM   24  C4  UNL     1      18.963  -0.402  52.534  1.00  0.00     0.029 A 
HETATM   25  C3  UNL     1      17.817  -1.081  52.828  1.00  0.00     0.009 A 
HETATM   26  C2  UNL     1      16.750  -1.089  51.984  1.00  0.00    -0.062 A 
HETATM   27  C1  UNL     1      15.522  -1.834  52.333  1.00  0.00     0.048 C 
HETATM   28  C21 UNL     1      16.843  -0.393  50.813  1.00  0.00     0.009 A 
HETATM   29  C20 UNL     1      18.009   0.286  50.533  1.00  0.00     0.029 A 
ENDBRANCH  21  23
ENDBRANCH   1  21
TORSDOF 4
ENDMDL
MODEL 9
REMARK VINA RESULT:      -8.2      2.448      3.768
REMARK  4 active torsions:
REMARK  status: ('A' for Active; 'I' for Inactive)
REMARK    1  A    between atoms: C5_5  and  N1_6 
REMARK    2  A    between atoms: N1_6  and  C6_7 
REMARK    3  A    between atoms: N2_12  and  C10_13 
REMARK    4  A    between atoms: C10_13  and  N3_14 
ROOT
HETATM    1  C6  UNL     1      22.929   5.674  50.227  1.00  0.00     0.204 C 
HETATM    2  C7  UNL     1      23.856   5.980  51.375  1.00  0.00     0.214 C 
HETATM    3  O1  UNL     1      23.702   5.211  52.491  1.00  0.00    -0.386 OA
HETATM    4  C8  UNL     1      22.383   5.051  52.895  1.00  0.00     0.187 C 
HETATM    5  C9  UNL     1      21.525   4.490  51.771  1.00  0.00     0.147 C 
HETATM    6  N2  UNL     1      22.192   4.492  50.529  1.00  0.00    -0.373 N 
ENDROOT
BRANCH   6   7
HETATM    7  C10 UNL     1      21.704   3.726  49.457  1.00  0.00     0.242 C 
BRANCH   7   8
HETATM    8  N3  UNL     1      22.166   2.378  49.440  1.00  0.00    -0.373 N 
HETATM    9  C11 UNL     1      21.247   1.353  49.198  1.00  0.00     0.290 C 
HETATM   10  O2  UNL     1      21.491   0.292  50.120  1.00  0.00    -0.359 OA
HETATM   11  C12 UNL     1      21.751   0.918  51.316  1.00  0.00     0.180 A 
HETATM   12  C13 UNL     1      21.666   0.040  52.508  1.00  0.00     0.042 A 
HETATM   13  C18 UNL     1      23.204   1.239  51.317  1.00  0.00    -0.016 A 
HETATM   14  C14 UNL     1      22.894  -0.065  53.046  1.00  0.00     0.069 A 
HETATM   15  N4  UNL     1      23.412  -0.714  54.113  1.00  0.00    -0.242 NA
HETATM   16  C17 UNL     1      23.807   0.665  52.314  1.00  0.00     0.017 A 
HETATM   17  C15 UNL     1      24.722  -0.636  54.415  1.00  0.00     0.233 A 
HETATM   18  N5  UNL     1      25.612   0.091  53.680  1.00  0.00    -0.253 NA
HETATM   19  C16 UNL     1      25.151   0.769  52.589  1.00  0.00     0.132 A 
HETATM   20  C19 UNL     1      23.360   2.099  50.147  1.00  0.00     0.159 C 
ENDBRANCH   7   8
ENDBRANCH   6   7
BRANCH   1  21
HETATM   21  N1  UNL     1      23.644   5.594  48.967  1.00  0.00    -0.367 N 
HETATM   22  H6  UNL     1      23.133   5.526  48.057  1.00  0.00     0.161 HD
BRANCH  21  23
HETATM   23  C5  UNL     1      25.055   5.595  48.802  1.00  0.00     0.029 A 
HETATM   24  C4  UNL     1      25.884   4.508  49.100  1.00  0.00     0.029 A 
HETATM   25  C3  UNL     1      27.238   4.543  48.933  1.00  0.00     0.009 A 
HETATM   26  C2  UNL     1      27.875   5.648  48.460  1.00  0.00    -0.062 A 
HETATM   27  C1  UNL     1      29.343   5.653  48.291  1.00  0.00     0.048 C 
HETATM   28  C21 UNL     1      27.125   6.746  48.149  1.00  0.00     0.009 A 
HETATM   29  C20 UNL     1      25.759   6.692  48.325  1.00  0.00     0.029 A 
ENDBRANCH  21  23
ENDBRANCH   1  21
TORSDOF 4
ENDMDL
