MODEL 1
REMARK VINA RESULT:      -9.2      0.000      0.000
REMARK  5 active torsions:
REMARK  status: ('A' for Active; 'I' for Inactive)
REMARK    1  A    between atoms: N1_2  and  O1_3 
REMARK    2  A    between atoms: O1_3  and  C2_4 
REMARK    3  A    between atoms: C2_4  and  C3_5 
REMARK    4  A    between atoms: C8_12  and  N4_13 
REMARK    5  A    between atoms: N4_13  and  C9_14 
ROOT
HETATM    1  C3  UNL     1      21.940  -0.103  52.971  1.00  0.00    -0.026 C 
HETATM    2  C4  UNL     1      23.087   0.305  52.456  1.00  0.00     0.024 C 
HETATM    3  C5  UNL     1      23.568   1.351  51.579  1.00  0.00     0.041 A 
HETATM    4  C6  UNL     1      23.051   1.840  50.374  1.00  0.00     0.089 A 
HETATM    5  N2  UNL     1      23.658   2.866  49.788  1.00  0.00    -0.240 NA
HETATM    6  C7  UNL     1      24.742   3.483  50.262  1.00  0.00     0.236 A 
HETATM    7  N3  UNL     1      25.334   3.089  51.431  1.00  0.00    -0.224 NA
HETATM    8  C8  UNL     1      24.705   2.034  52.028  1.00  0.00     0.142 A 
HETATM    9  C15 UNL     1      21.889   1.363  49.635  1.00  0.00     0.153 C 
HETATM   10  N5  UNL     1      20.901   2.168  49.788  1.00  0.00    -0.224 NA
HETATM   11  C16 UNL     1      20.915   3.335  50.547  1.00  0.00     0.248 C 
HETATM   12  O2  UNL     1      21.643   4.355  50.652  1.00  0.00    -0.271 OA
HETATM   13  C17 UNL     1      19.766   3.413  51.501  1.00  0.00     0.110 C 
HETATM   14  C18 UNL     1      18.600   2.544  50.999  1.00  0.00     0.046 C 
HETATM   15  C19 UNL     1      18.833   1.183  51.587  1.00  0.00     0.273 C 
HETATM   16  N6  UNL     1      20.236   1.276  52.059  1.00  0.00     0.093 N 
HETATM   17  C20 UNL     1      20.505   0.179  52.961  1.00  0.00     0.308 C 
HETATM   18  C21 UNL     1      20.174   2.571  52.708  1.00  0.00     0.286 C 
ENDROOT
BRANCH   8  19
HETATM   19  N4  UNL     1      25.327   1.613  53.258  1.00  0.00    -0.340 N 
HETATM   20  H9  UNL     1      24.745   1.836  54.072  1.00  0.00     0.167 HD
BRANCH  19  21
HETATM   21  C9  UNL     1      26.590   0.965  53.371  1.00  0.00     0.035 A 
HETATM   22  C10 UNL     1      27.710   1.677  53.791  1.00  0.00     0.032 A 
HETATM   23  C11 UNL     1      28.893   0.961  53.861  1.00  0.00     0.046 A 
HETATM   24  C12 UNL     1      28.980  -0.379  53.539  1.00  0.00     0.138 A 
HETATM   25  F1  UNL     1      30.151  -1.054  53.618  1.00  0.00    -0.204 F 
HETATM   26  C13 UNL     1      27.884  -1.082  53.127  1.00  0.00     0.074 A 
HETATM   27 CL1  UNL     1      27.931  -2.767  52.708  1.00  0.00    -0.081 Cl
HETATM   28  C14 UNL     1      26.684  -0.374  53.052  1.00  0.00     0.056 A 
ENDBRANCH  19  21
ENDBRANCH   8  19
BRANCH   1  29
HETATM   29  C2  UNL     1      22.005  -1.294  53.866  1.00  0.00     0.230 C 
BRANCH  29  30
HETATM   30  O1  UNL     1      22.139  -0.983  55.200  1.00  0.00    -0.302 OA
BRANCH  30  31
HETATM   31  N1  UNL     1      23.042  -1.818  55.748  1.00  0.00    -0.210 NA
HETATM   32  C1  UNL     1      24.400  -1.267  55.680  1.00  0.00     0.140 C 
HETATM   33  H4  UNL     1      22.853  -1.935  56.771  1.00  0.00     0.153 HD
ENDBRANCH  30  31
ENDBRANCH  29  30
ENDBRANCH   1  29
TORSDOF 5
ENDMDL
MODEL 2
REMARK VINA RESULT:      -9.1      1.659      2.052
REMARK  5 active torsions:
REMARK  status: ('A' for Active; 'I' for Inactive)
REMARK    1  A    between atoms: N1_2  and  O1_3 
REMARK    2  A    between atoms: O1_3  and  C2_4 
REMARK    3  A    between atoms: C2_4  and  C3_5 
REMARK    4  A    between atoms: C8_12  and  N4_13 
REMARK    5  A    between atoms: N4_13  and  C9_14 
ROOT
HETATM    1  C3  UNL     1      22.423   1.754  52.550  1.00  0.00    -0.026 C 
HETATM    2  C4  UNL     1      23.651   1.655  52.070  1.00  0.00     0.024 C 
HETATM    3  C5  UNL     1      24.499   2.345  51.122  1.00  0.00     0.041 A 
HETATM    4  C6  UNL     1      24.224   2.841  49.843  1.00  0.00     0.089 A 
HETATM    5  N2  UNL     1      25.177   3.502  49.194  1.00  0.00    -0.240 NA
HETATM    6  C7  UNL     1      26.401   3.736  49.670  1.00  0.00     0.236 A 
HETATM    7  N3  UNL     1      26.783   3.297  50.908  1.00  0.00    -0.224 NA
HETATM    8  C8  UNL     1      25.798   2.619  51.569  1.00  0.00     0.142 A 
HETATM    9  C15 UNL     1      22.984   2.733  49.085  1.00  0.00     0.153 C 
HETATM   10  N5  UNL     1      22.356   3.852  49.092  1.00  0.00    -0.224 NA
HETATM   11  C16 UNL     1      22.781   5.017  49.727  1.00  0.00     0.248 C 
HETATM   12  O2  UNL     1      23.829   5.710  49.772  1.00  0.00    -0.271 OA
HETATM   13  C17 UNL     1      21.720   5.618  50.592  1.00  0.00     0.110 C 
HETATM   14  C18 UNL     1      20.328   5.176  50.110  1.00  0.00     0.046 C 
HETATM   15  C19 UNL     1      20.033   3.903  50.848  1.00  0.00     0.273 C 
HETATM   16  N6  UNL     1      21.362   3.537  51.395  1.00  0.00     0.093 N 
HETATM   17  C20 UNL     1      21.191   2.532  52.421  1.00  0.00     0.308 C 
HETATM   18  C21 UNL     1      21.766   4.834  51.903  1.00  0.00     0.286 C 
ENDROOT
BRANCH   8  19
HETATM   19  N4  UNL     1      26.196   2.151  52.872  1.00  0.00    -0.340 N 
HETATM   20  H9  UNL     1      25.596   2.533  53.612  1.00  0.00     0.167 HD
BRANCH  19  21
HETATM   21  C9  UNL     1      27.280   1.268  53.143  1.00  0.00     0.035 A 
HETATM   22  C10 UNL     1      28.476   1.761  53.657  1.00  0.00     0.032 A 
HETATM   23  C11 UNL     1      29.473   0.825  53.878  1.00  0.00     0.046 A 
HETATM   24  C12 UNL     1      29.312  -0.521  53.613  1.00  0.00     0.138 A 
HETATM   25  F1  UNL     1      30.304  -1.413  53.841  1.00  0.00    -0.204 F 
HETATM   26  C13 UNL     1      28.140  -1.009  53.109  1.00  0.00     0.074 A 
HETATM   27 CL1  UNL     1      27.879  -2.689  52.754  1.00  0.00    -0.081 Cl
HETATM   28  C14 UNL     1      27.126  -0.078  52.881  1.00  0.00     0.056 A 
ENDBRANCH  19  21
ENDBRANCH   8  19
BRANCH   1  29
HETATM   29  C2  UNL     1      22.028   0.736  53.565  1.00  0.00     0.230 C 
BRANCH  29  30
HETATM   30  O1  UNL     1      20.696   0.775  53.908  1.00  0.00    -0.302 OA
BRANCH  30  31
HETATM   31  N1  UNL     1      20.404  -0.326  54.627  1.00  0.00    -0.210 NA
HETATM   32  C1  UNL     1      21.451  -1.346  54.506  1.00  0.00     0.140 C 
HETATM   33  H4  UNL     1      20.373  -0.093  55.647  1.00  0.00     0.153 HD
ENDBRANCH  30  31
ENDBRANCH  29  30
ENDBRANCH   1  29
TORSDOF 5
ENDMDL
MODEL 3
REMARK VINA RESULT:      -8.5      6.320      8.104
REMARK  5 active torsions:
REMARK  status: ('A' for Active; 'I' for Inactive)
REMARK    1  A    between atoms: N1_2  and  O1_3 
REMARK    2  A    between atoms: O1_3  and  C2_4 
REMARK    3  A    between atoms: C2_4  and  C3_5 
REMARK    4  A    between atoms: C8_12  and  N4_13 
REMARK    5  A    between atoms: N4_13  and  C9_14 
ROOT
HETATM    1  C3  UNL     1      26.589   4.943  49.133  1.00  0.00    -0.026 C 
HETATM    2  C4  UNL     1      27.604   5.540  48.532  1.00  0.00     0.024 C 
HETATM    3  C5  UNL     1      27.987   6.875  48.128  1.00  0.00     0.041 A 
HETATM    4  C6  UNL     1      27.248   7.888  47.507  1.00  0.00     0.089 A 
HETATM    5  N2  UNL     1      27.827   9.065  47.297  1.00  0.00    -0.240 NA
HETATM    6  C7  UNL     1      29.082   9.369  47.635  1.00  0.00     0.236 A 
HETATM    7  N3  UNL     1      29.898   8.456  48.246  1.00  0.00    -0.224 NA
HETATM    8  C8  UNL     1      29.296   7.249  48.459  1.00  0.00     0.142 A 
HETATM    9  C15 UNL     1      25.870   7.835  47.036  1.00  0.00     0.153 C 
HETATM   10  N5  UNL     1      25.099   8.474  47.838  1.00  0.00    -0.224 NA
HETATM   11  C16 UNL     1      25.500   9.131  48.999  1.00  0.00     0.248 C 
HETATM   12  O2  UNL     1      26.379   9.969  49.324  1.00  0.00    -0.271 OA
HETATM   13  C17 UNL     1      24.677   8.749  50.188  1.00  0.00     0.110 C 
HETATM   14  C18 UNL     1      23.298   8.238  49.737  1.00  0.00     0.046 C 
HETATM   15  C19 UNL     1      23.465   6.761  49.534  1.00  0.00     0.273 C 
HETATM   16  N6  UNL     1      24.939   6.604  49.532  1.00  0.00     0.093 N 
HETATM   17  C20 UNL     1      25.266   5.205  49.701  1.00  0.00     0.308 C 
HETATM   18  C21 UNL     1      25.259   7.427  50.683  1.00  0.00     0.286 C 
ENDROOT
BRANCH   8  19
HETATM   19  N4  UNL     1      30.152   6.283  49.098  1.00  0.00    -0.340 N 
HETATM   20  H9  UNL     1      29.856   6.093  50.062  1.00  0.00     0.167 HD
BRANCH  19  21
HETATM   21  C9  UNL     1      31.279   5.648  48.502  1.00  0.00     0.035 A 
HETATM   22  C10 UNL     1      31.103   4.722  47.478  1.00  0.00     0.032 A 
HETATM   23  C11 UNL     1      32.258   4.152  46.969  1.00  0.00     0.046 A 
HETATM   24  C12 UNL     1      33.519   4.468  47.435  1.00  0.00     0.138 A 
HETATM   25  F1  UNL     1      34.631   3.895  46.918  1.00  0.00    -0.204 F 
HETATM   26  C13 UNL     1      33.697   5.375  48.441  1.00  0.00     0.074 A 
HETATM   27 CL1  UNL     1      35.257   5.812  49.069  1.00  0.00    -0.081 Cl
HETATM   28  C14 UNL     1      32.542   5.958  48.963  1.00  0.00     0.056 A 
ENDBRANCH  19  21
ENDBRANCH   8  19
BRANCH   1  29
HETATM   29  C2  UNL     1      26.706   3.468  49.317  1.00  0.00     0.230 C 
BRANCH  29  30
HETATM   30  O1  UNL     1      26.262   3.020  50.540  1.00  0.00    -0.302 OA
BRANCH  30  31
HETATM   31  N1  UNL     1      27.304   2.995  51.393  1.00  0.00    -0.210 NA
HETATM   32  C1  UNL     1      27.157   1.936  52.397  1.00  0.00     0.140 C 
HETATM   33  H4  UNL     1      28.184   2.756  50.880  1.00  0.00     0.153 HD
ENDBRANCH  30  31
ENDBRANCH  29  30
ENDBRANCH   1  29
TORSDOF 5
ENDMDL
MODEL 4
REMARK VINA RESULT:      -8.5      1.991      4.590
REMARK  5 active torsions:
REMARK  status: ('A' for Active; 'I' for Inactive)
REMARK    1  A    between atoms: N1_2  and  O1_3 
REMARK    2  A    between atoms: O1_3  and  C2_4 
REMARK    3  A    between atoms: C2_4  and  C3_5 
REMARK    4  A    between atoms: C8_12  and  N4_13 
REMARK    5  A    between atoms: N4_13  and  C9_14 
ROOT
HETATM    1  C3  UNL     1      24.121   4.399  50.085  1.00  0.00    -0.026 C 
HETATM    2  C4  UNL     1      24.330   3.776  51.232  1.00  0.00     0.024 C 
HETATM    3  C5  UNL     1      23.765   2.677  51.985  1.00  0.00     0.041 A 
HETATM    4  C6  UNL     1      22.432   2.338  52.242  1.00  0.00     0.089 A 
HETATM    5  N2  UNL     1      22.175   1.224  52.919  1.00  0.00    -0.240 NA
HETATM    6  C7  UNL     1      23.102   0.384  53.385  1.00  0.00     0.236 A 
HETATM    7  N3  UNL     1      24.436   0.615  53.194  1.00  0.00    -0.224 NA
HETATM    8  C8  UNL     1      24.693   1.761  52.497  1.00  0.00     0.142 A 
HETATM    9  C15 UNL     1      21.229   3.064  51.856  1.00  0.00     0.153 C 
HETATM   10  N5  UNL     1      20.649   2.477  50.873  1.00  0.00    -0.224 NA
HETATM   11  C16 UNL     1      21.088   1.313  50.249  1.00  0.00     0.248 C 
HETATM   12  O2  UNL     1      21.452   0.162  50.601  1.00  0.00    -0.271 OA
HETATM   13  C17 UNL     1      21.154   1.449  48.761  1.00  0.00     0.110 C 
HETATM   14  C18 UNL     1      20.195   2.554  48.286  1.00  0.00     0.046 C 
HETATM   15  C19 UNL     1      20.998   3.821  48.313  1.00  0.00     0.273 C 
HETATM   16  N6  UNL     1      22.188   3.427  49.106  1.00  0.00     0.093 N 
HETATM   17  C20 UNL     1      23.224   4.421  48.930  1.00  0.00     0.308 C 
HETATM   18  C21 UNL     1      22.477   2.156  48.471  1.00  0.00     0.286 C 
ENDROOT
BRANCH   8  19
HETATM   19  N4  UNL     1      26.097   2.011  52.297  1.00  0.00    -0.340 N 
HETATM   20  H9  UNL     1      26.255   2.841  51.715  1.00  0.00     0.167 HD
BRANCH  19  21
HETATM   21  C9  UNL     1      27.165   1.228  52.823  1.00  0.00     0.035 A 
HETATM   22  C10 UNL     1      28.200   1.836  53.527  1.00  0.00     0.032 A 
HETATM   23  C11 UNL     1      29.196   0.993  53.991  1.00  0.00     0.046 A 
HETATM   24  C12 UNL     1      29.182  -0.372  53.780  1.00  0.00     0.138 A 
HETATM   25  F1  UNL     1      30.169  -1.173  54.246  1.00  0.00    -0.204 F 
HETATM   26  C13 UNL     1      28.168  -0.973  53.089  1.00  0.00     0.074 A 
HETATM   27 CL1  UNL     1      28.097  -2.683  52.791  1.00  0.00    -0.081 Cl
HETATM   28  C14 UNL     1      27.157  -0.136  52.616  1.00  0.00     0.056 A 
ENDBRANCH  19  21
ENDBRANCH   8  19
BRANCH   1  29
HETATM   29  C2  UNL     1      25.044   5.526  49.768  1.00  0.00     0.230 C 
BRANCH  29  30
HETATM   30  O1  UNL     1      26.010   5.213  48.839  1.00  0.00    -0.302 OA
BRANCH  30  31
HETATM   31  N1  UNL     1      27.221   5.417  49.391  1.00  0.00    -0.210 NA
HETATM   32  C1  UNL     1      28.294   5.321  48.396  1.00  0.00     0.140 C 
HETATM   33  H4  UNL     1      27.289   6.392  49.763  1.00  0.00     0.153 HD
ENDBRANCH  30  31
ENDBRANCH  29  30
ENDBRANCH   1  29
TORSDOF 5
ENDMDL
MODEL 5
REMARK VINA RESULT:      -8.4      3.429      5.135
REMARK  5 active torsions:
REMARK  status: ('A' for Active; 'I' for Inactive)
REMARK    1  A    between atoms: N1_2  and  O1_3 
REMARK    2  A    between atoms: O1_3  and  C2_4 
REMARK    3  A    between atoms: C2_4  and  C3_5 
REMARK    4  A    between atoms: C8_12  and  N4_13 
REMARK    5  A    between atoms: N4_13  and  C9_14 
ROOT
HETATM    1  C3  UNL     1      24.490   0.947  52.376  1.00  0.00    -0.026 C 
HETATM    2  C4  UNL     1      24.255   1.797  51.391  1.00  0.00     0.024 C 
HETATM    3  C5  UNL     1      23.117   2.378  50.712  1.00  0.00     0.041 A 
HETATM    4  C6  UNL     1      21.929   1.793  50.260  1.00  0.00     0.089 A 
HETATM    5  N2  UNL     1      21.000   2.571  49.715  1.00  0.00    -0.240 NA
HETATM    6  C7  UNL     1      21.108   3.892  49.559  1.00  0.00     0.236 A 
HETATM    7  N3  UNL     1      22.225   4.570  49.963  1.00  0.00    -0.224 NA
HETATM    8  C8  UNL     1      23.175   3.765  50.522  1.00  0.00     0.142 A 
HETATM    9  C15 UNL     1      21.546   0.387  50.303  1.00  0.00     0.153 C 
HETATM   10  N5  UNL     1      20.684   0.187  51.234  1.00  0.00    -0.224 NA
HETATM   11  C16 UNL     1      20.175   1.159  52.091  1.00  0.00     0.248 C 
HETATM   12  O2  UNL     1      19.657   2.300  51.984  1.00  0.00    -0.271 OA
HETATM   13  C17 UNL     1      20.261   0.757  53.529  1.00  0.00     0.110 C 
HETATM   14  C18 UNL     1      20.312  -0.775  53.650  1.00  0.00     0.046 C 
HETATM   15  C19 UNL     1      21.768  -1.134  53.592  1.00  0.00     0.273 C 
HETATM   16  N6  UNL     1      22.386   0.122  53.103  1.00  0.00     0.093 N 
HETATM   17  C20 UNL     1      23.814   0.065  53.326  1.00  0.00     0.308 C 
HETATM   18  C21 UNL     1      21.694   1.067  53.958  1.00  0.00     0.286 C 
ENDROOT
BRANCH   8  19
HETATM   19  N4  UNL     1      24.355   4.474  50.946  1.00  0.00    -0.340 N 
HETATM   20  H9  UNL     1      24.350   4.649  51.956  1.00  0.00     0.167 HD
BRANCH  19  21
HETATM   21  C9  UNL     1      25.420   4.896  50.099  1.00  0.00     0.035 A 
HETATM   22  C10 UNL     1      26.382   3.985  49.673  1.00  0.00     0.032 A 
HETATM   23  C11 UNL     1      27.382   4.493  48.860  1.00  0.00     0.046 A 
HETATM   24  C12 UNL     1      27.440   5.820  48.482  1.00  0.00     0.138 A 
HETATM   25  F1  UNL     1      28.429   6.288  47.686  1.00  0.00    -0.204 F 
HETATM   26  C13 UNL     1      26.499   6.718  48.899  1.00  0.00     0.074 A 
HETATM   27 CL1  UNL     1      26.521   8.398  48.458  1.00  0.00    -0.081 Cl
HETATM   28  C14 UNL     1      25.485   6.221  49.718  1.00  0.00     0.056 A 
ENDBRANCH  19  21
ENDBRANCH   8  19
BRANCH   1  29
HETATM   29  C2  UNL     1      25.924   0.687  52.695  1.00  0.00     0.230 C 
BRANCH  29  30
HETATM   30  O1  UNL     1      26.319   1.165  53.924  1.00  0.00    -0.302 OA
BRANCH  30  31
HETATM   31  N1  UNL     1      26.859   2.387  53.757  1.00  0.00    -0.210 NA
HETATM   32  C1  UNL     1      28.305   2.313  53.522  1.00  0.00     0.140 C 
HETATM   33  H4  UNL     1      26.471   2.839  52.896  1.00  0.00     0.153 HD
ENDBRANCH  30  31
ENDBRANCH  29  30
ENDBRANCH   1  29
TORSDOF 5
ENDMDL
MODEL 6
REMARK VINA RESULT:      -8.3      4.088      5.687
REMARK  5 active torsions:
REMARK  status: ('A' for Active; 'I' for Inactive)
REMARK    1  A    between atoms: N1_2  and  O1_3 
REMARK    2  A    between atoms: O1_3  and  C2_4 
REMARK    3  A    between atoms: C2_4  and  C3_5 
REMARK    4  A    between atoms: C8_12  and  N4_13 
REMARK    5  A    between atoms: N4_13  and  C9_14 
ROOT
HETATM    1  C3  UNL     1      24.579   2.060  51.141  1.00  0.00    -0.026 C 
HETATM    2  C4  UNL     1      24.678   2.870  50.101  1.00  0.00     0.024 C 
HETATM    3  C5  UNL     1      23.803   3.515  49.146  1.00  0.00     0.041 A 
HETATM    4  C6  UNL     1      22.704   3.019  48.436  1.00  0.00     0.089 A 
HETATM    5  N2  UNL     1      22.020   3.848  47.655  1.00  0.00    -0.240 NA
HETATM    6  C7  UNL     1      22.300   5.142  47.486  1.00  0.00     0.236 A 
HETATM    7  N3  UNL     1      23.353   5.734  48.128  1.00  0.00    -0.224 NA
HETATM    8  C8  UNL     1      24.050   4.877  48.930  1.00  0.00     0.142 A 
HETATM    9  C15 UNL     1      22.176   1.660  48.430  1.00  0.00     0.153 C 
HETATM   10  N5  UNL     1      21.101   1.596  49.127  1.00  0.00    -0.224 NA
HETATM   11  C16 UNL     1      20.505   2.659  49.802  1.00  0.00     0.248 C 
HETATM   12  O2  UNL     1      20.151   3.835  49.534  1.00  0.00    -0.271 OA
HETATM   13  C17 UNL     1      20.200   2.334  51.229  1.00  0.00     0.110 C 
HETATM   14  C18 UNL     1      20.060   0.813  51.409  1.00  0.00     0.046 C 
HETATM   15  C19 UNL     1      21.441   0.316  51.722  1.00  0.00     0.273 C 
HETATM   16  N6  UNL     1      22.287   1.478  51.358  1.00  0.00     0.093 N 
HETATM   17  C20 UNL     1      23.605   1.300  51.925  1.00  0.00     0.308 C 
HETATM   18  C21 UNL     1      21.513   2.532  51.986  1.00  0.00     0.286 C 
ENDROOT
BRANCH   8  19
HETATM   19  N4  UNL     1      25.162   5.495  49.605  1.00  0.00    -0.340 N 
HETATM   20  H9  UNL     1      24.957   5.665  50.596  1.00  0.00     0.167 HD
BRANCH  19  21
HETATM   21  C9  UNL     1      26.408   5.842  49.010  1.00  0.00     0.035 A 
HETATM   22  C10 UNL     1      27.394   4.877  48.830  1.00  0.00     0.032 A 
HETATM   23  C11 UNL     1      28.574   5.314  48.251  1.00  0.00     0.046 A 
HETATM   24  C12 UNL     1      28.781   6.624  47.866  1.00  0.00     0.138 A 
HETATM   25  F1  UNL     1      29.945   7.023  47.301  1.00  0.00    -0.204 F 
HETATM   26  C13 UNL     1      27.817   7.575  48.042  1.00  0.00     0.074 A 
HETATM   27 CL1  UNL     1      28.020   9.238  47.580  1.00  0.00    -0.081 Cl
HETATM   28  C14 UNL     1      26.622   7.150  48.624  1.00  0.00     0.056 A 
ENDBRANCH  19  21
ENDBRANCH   8  19
BRANCH   1  29
HETATM   29  C2  UNL     1      25.858   1.685  51.809  1.00  0.00     0.230 C 
BRANCH  29  30
HETATM   30  O1  UNL     1      26.972   2.271  51.253  1.00  0.00    -0.302 OA
BRANCH  30  31
HETATM   31  N1  UNL     1      27.759   2.729  52.245  1.00  0.00    -0.210 NA
HETATM   32  C1  UNL     1      28.101   1.668  53.198  1.00  0.00     0.140 C 
HETATM   33  H4  UNL     1      28.678   3.048  51.859  1.00  0.00     0.153 HD
ENDBRANCH  30  31
ENDBRANCH  29  30
ENDBRANCH   1  29
TORSDOF 5
ENDMDL
MODEL 7
REMARK VINA RESULT:      -8.2      7.099      9.126
REMARK  5 active torsions:
REMARK  status: ('A' for Active; 'I' for Inactive)
REMARK    1  A    between atoms: N1_2  and  O1_3 
REMARK    2  A    between atoms: O1_3  and  C2_4 
REMARK    3  A    between atoms: C2_4  and  C3_5 
REMARK    4  A    between atoms: C8_12  and  N4_13 
REMARK    5  A    between atoms: N4_13  and  C9_14 
ROOT
HETATM    1  C3  UNL     1      27.498   5.822  48.551  1.00  0.00    -0.026 C 
HETATM    2  C4  UNL     1      28.667   6.164  48.037  1.00  0.00     0.024 C 
HETATM    3  C5  UNL     1      29.330   7.358  47.559  1.00  0.00     0.041 A 
HETATM    4  C6  UNL     1      28.863   8.397  46.746  1.00  0.00     0.089 A 
HETATM    5  N2  UNL     1      29.666   9.427  46.501  1.00  0.00    -0.240 NA
HETATM    6  C7  UNL     1      30.907   9.555  46.975  1.00  0.00     0.236 A 
HETATM    7  N3  UNL     1      31.468   8.601  47.778  1.00  0.00    -0.224 NA
HETATM    8  C8  UNL     1      30.637   7.546  48.026  1.00  0.00     0.142 A 
HETATM    9  C15 UNL     1      27.563   8.518  46.099  1.00  0.00     0.153 C 
HETATM   10  N5  UNL     1      26.832   9.369  46.722  1.00  0.00    -0.224 NA
HETATM   11  C16 UNL     1      27.207  10.086  47.856  1.00  0.00     0.248 C 
HETATM   12  O2  UNL     1      28.179  10.799  48.213  1.00  0.00    -0.271 OA
HETATM   13  C17 UNL     1      26.196   9.993  48.954  1.00  0.00     0.110 C 
HETATM   14  C18 UNL     1      24.810   9.669  48.373  1.00  0.00     0.046 C 
HETATM   15  C19 UNL     1      24.729   8.170  48.342  1.00  0.00     0.273 C 
HETATM   16  N6  UNL     1      26.140   7.771  48.556  1.00  0.00     0.093 N 
HETATM   17  C20 UNL     1      26.188   6.369  48.906  1.00  0.00     0.308 C 
HETATM   18  C21 UNL     1      26.468   8.663  49.652  1.00  0.00     0.286 C 
ENDROOT
BRANCH   8  19
HETATM   19  N4  UNL     1      31.225   6.535  48.868  1.00  0.00    -0.340 N 
HETATM   20  H9  UNL     1      30.766   6.492  49.785  1.00  0.00     0.167 HD
BRANCH  19  21
HETATM   21  C9  UNL     1      32.307   5.682  48.511  1.00  0.00     0.035 A 
HETATM   22  C10 UNL     1      33.620   6.073  48.757  1.00  0.00     0.032 A 
HETATM   23  C11 UNL     1      34.603   5.179  48.366  1.00  0.00     0.046 A 
HETATM   24  C12 UNL     1      34.321   3.966  47.768  1.00  0.00     0.138 A 
HETATM   25  F1  UNL     1      35.302   3.111  47.397  1.00  0.00    -0.204 F 
HETATM   26  C13 UNL     1      33.033   3.579  47.525  1.00  0.00     0.074 A 
HETATM   27 CL1  UNL     1      32.616   2.068  46.774  1.00  0.00    -0.081 Cl
HETATM   28  C14 UNL     1      32.032   4.469  47.913  1.00  0.00     0.056 A 
ENDBRANCH  19  21
ENDBRANCH   8  19
BRANCH   1  29
HETATM   29  C2  UNL     1      27.324   4.382  48.894  1.00  0.00     0.230 C 
BRANCH  29  30
HETATM   30  O1  UNL     1      26.451   4.156  49.934  1.00  0.00    -0.302 OA
BRANCH  30  31
HETATM   31  N1  UNL     1      27.066   3.389  50.854  1.00  0.00    -0.210 NA
HETATM   32  C1  UNL     1      26.137   2.440  51.478  1.00  0.00     0.140 C 
HETATM   33  H4  UNL     1      27.792   2.790  50.397  1.00  0.00     0.153 HD
ENDBRANCH  30  31
ENDBRANCH  29  30
ENDBRANCH   1  29
TORSDOF 5
ENDMDL
MODEL 8
REMARK VINA RESULT:      -8.0      2.017      4.450
REMARK  5 active torsions:
REMARK  status: ('A' for Active; 'I' for Inactive)
REMARK    1  A    between atoms: N1_2  and  O1_3 
REMARK    2  A    between atoms: O1_3  and  C2_4 
REMARK    3  A    between atoms: C2_4  and  C3_5 
REMARK    4  A    between atoms: C8_12  and  N4_13 
REMARK    5  A    between atoms: N4_13  and  C9_14 
ROOT
HETATM    1  C3  UNL     1      23.292   3.379  49.967  1.00  0.00    -0.026 C 
HETATM    2  C4  UNL     1      23.695   2.781  51.075  1.00  0.00     0.024 C 
HETATM    3  C5  UNL     1      23.165   1.868  52.065  1.00  0.00     0.041 A 
HETATM    4  C6  UNL     1      21.922   1.841  52.707  1.00  0.00     0.089 A 
HETATM    5  N2  UNL     1      21.656   0.844  53.544  1.00  0.00    -0.240 NA
HETATM    6  C7  UNL     1      22.493  -0.155  53.829  1.00  0.00     0.236 A 
HETATM    7  N3  UNL     1      23.735  -0.231  53.262  1.00  0.00    -0.224 NA
HETATM    8  C8  UNL     1      24.002   0.797  52.403  1.00  0.00     0.142 A 
HETATM    9  C15 UNL     1      20.826   2.794  52.585  1.00  0.00     0.153 C 
HETATM   10  N5  UNL     1      19.885   2.303  51.864  1.00  0.00    -0.224 NA
HETATM   11  C16 UNL     1      19.889   1.042  51.273  1.00  0.00     0.248 C 
HETATM   12  O2  UNL     1      20.105  -0.143  51.635  1.00  0.00    -0.271 OA
HETATM   13  C17 UNL     1      19.552   1.090  49.817  1.00  0.00     0.110 C 
HETATM   14  C18 UNL     1      18.733   2.353  49.503  1.00  0.00     0.046 C 
HETATM   15  C19 UNL     1      19.743   3.414  49.176  1.00  0.00     0.273 C 
HETATM   16  N6  UNL     1      21.008   2.808  49.656  1.00  0.00     0.093 N 
HETATM   17  C20 UNL     1      22.124   3.541  49.101  1.00  0.00     0.308 C 
HETATM   18  C21 UNL     1      20.847   1.476  49.106  1.00  0.00     0.286 C 
ENDROOT
BRANCH   8  19
HETATM   19  N4  UNL     1      25.310   0.725  51.805  1.00  0.00    -0.340 N 
HETATM   20  H9  UNL     1      25.301   1.050  50.832  1.00  0.00     0.167 HD
BRANCH  19  21
HETATM   21  C9  UNL     1      26.494   0.265  52.450  1.00  0.00     0.035 A 
HETATM   22  C10 UNL     1      26.832  -1.085  52.420  1.00  0.00     0.032 A 
HETATM   23  C11 UNL     1      27.996  -1.435  53.083  1.00  0.00     0.046 A 
HETATM   24  C12 UNL     1      28.791  -0.516  53.739  1.00  0.00     0.138 A 
HETATM   25  F1  UNL     1      29.925  -0.887  54.378  1.00  0.00    -0.204 F 
HETATM   26  C13 UNL     1      28.464   0.810  53.772  1.00  0.00     0.074 A 
HETATM   27 CL1  UNL     1      29.422   2.011  54.583  1.00  0.00    -0.081 Cl
HETATM   28  C14 UNL     1      27.293   1.178  53.108  1.00  0.00     0.056 A 
ENDBRANCH  19  21
ENDBRANCH   8  19
BRANCH   1  29
HETATM   29  C2  UNL     1      24.289   4.260  49.294  1.00  0.00     0.230 C 
BRANCH  29  30
HETATM   30  O1  UNL     1      24.024   5.605  49.423  1.00  0.00    -0.302 OA
BRANCH  30  31
HETATM   31  N1  UNL     1      24.851   6.119  50.353  1.00  0.00    -0.210 NA
HETATM   32  C1  UNL     1      24.167   7.095  51.207  1.00  0.00     0.140 C 
HETATM   33  H4  UNL     1      25.170   5.367  51.008  1.00  0.00     0.153 HD
ENDBRANCH  30  31
ENDBRANCH  29  30
ENDBRANCH   1  29
TORSDOF 5
ENDMDL
MODEL 9
REMARK VINA RESULT:      -7.8      5.263      8.290
REMARK  5 active torsions:
REMARK  status: ('A' for Active; 'I' for Inactive)
REMARK    1  A    between atoms: N1_2  and  O1_3 
REMARK    2  A    between atoms: O1_3  and  C2_4 
REMARK    3  A    between atoms: C2_4  and  C3_5 
REMARK    4  A    between atoms: C8_12  and  N4_13 
REMARK    5  A    between atoms: N4_13  and  C9_14 
ROOT
HETATM    1  C3  UNL     1      27.774   6.354  48.339  1.00  0.00    -0.026 C 
HETATM    2  C4  UNL     1      26.838   6.022  49.212  1.00  0.00     0.024 C 
HETATM    3  C5  UNL     1      25.589   6.555  49.712  1.00  0.00     0.041 A 
HETATM    4  C6  UNL     1      25.239   7.856  50.091  1.00  0.00     0.089 A 
HETATM    5  N2  UNL     1      23.986   8.098  50.463  1.00  0.00    -0.240 NA
HETATM    6  C7  UNL     1      23.014   7.185  50.506  1.00  0.00     0.236 A 
HETATM    7  N3  UNL     1      23.241   5.882  50.159  1.00  0.00    -0.224 NA
HETATM    8  C8  UNL     1      24.530   5.640  49.778  1.00  0.00     0.142 A 
HETATM    9  C15 UNL     1      26.089   9.038  50.140  1.00  0.00     0.153 C 
HETATM   10  N5  UNL     1      25.835   9.812  49.148  1.00  0.00    -0.224 NA
HETATM   11  C16 UNL     1      24.887   9.576  48.155  1.00  0.00     0.248 C 
HETATM   12  O2  UNL     1      23.671   9.261  48.102  1.00  0.00    -0.271 OA
HETATM   13  C17 UNL     1      25.448   9.731  46.778  1.00  0.00     0.110 C 
HETATM   14  C18 UNL     1      26.677  10.654  46.805  1.00  0.00     0.046 C 
HETATM   15  C19 UNL     1      27.851   9.752  47.046  1.00  0.00     0.273 C 
HETATM   16  N6  UNL     1      27.201   8.491  47.478  1.00  0.00     0.093 N 
HETATM   17  C20 UNL     1      28.164   7.415  47.411  1.00  0.00     0.308 C 
HETATM   18  C21 UNL     1      26.159   8.414  46.472  1.00  0.00     0.286 C 
ENDROOT
BRANCH   8  19
HETATM   19  N4  UNL     1      24.776   4.268  49.415  1.00  0.00    -0.340 N 
HETATM   20  H9  UNL     1      24.765   4.137  48.398  1.00  0.00     0.167 HD
BRANCH  19  21
HETATM   21  C9  UNL     1      25.010   3.196  50.324  1.00  0.00     0.035 A 
HETATM   22  C10 UNL     1      26.310   2.853  50.684  1.00  0.00     0.032 A 
HETATM   23  C11 UNL     1      26.436   1.792  51.566  1.00  0.00     0.046 A 
HETATM   24  C12 UNL     1      25.351   1.103  52.071  1.00  0.00     0.138 A 
HETATM   25  F1  UNL     1      25.503   0.070  52.932  1.00  0.00    -0.204 F 
HETATM   26  C13 UNL     1      24.073   1.437  51.720  1.00  0.00     0.074 A 
HETATM   27 CL1  UNL     1      22.670   0.607  52.320  1.00  0.00    -0.081 Cl
HETATM   28  C14 UNL     1      23.931   2.504  50.832  1.00  0.00     0.056 A 
ENDBRANCH  19  21
ENDBRANCH   8  19
BRANCH   1  29
HETATM   29  C2  UNL     1      28.910   5.399  48.196  1.00  0.00     0.230 C 
BRANCH  29  30
HETATM   30  O1  UNL     1      30.151   5.992  48.258  1.00  0.00    -0.302 OA
BRANCH  30  31
HETATM   31  N1  UNL     1      30.659   5.798  49.490  1.00  0.00    -0.210 NA
HETATM   32  C1  UNL     1      32.121   5.917  49.497  1.00  0.00     0.140 C 
HETATM   33  H4  UNL     1      30.327   6.548  50.139  1.00  0.00     0.153 HD
ENDBRANCH  30  31
ENDBRANCH  29  30
ENDBRANCH   1  29
TORSDOF 5
ENDMDL
