MODEL 1
REMARK VINA RESULT:      -8.0      0.000      0.000
REMARK  6 active torsions:
REMARK  status: ('A' for Active; 'I' for Inactive)
REMARK    1  A    between atoms: C2_2  and  C3_3 
REMARK    2  A    between atoms: C2_2  and  N1_11 
REMARK    3  A    between atoms: C3_3  and  O1_4 
REMARK    4  A    between atoms: O1_4  and  C4_5 
REMARK    5  A    between atoms: N2_12  and  N3_13 
REMARK    6  A    between atoms: N3_13  and  C10_14 
ROOT
HETATM    1  N1  UNL     1      25.506   3.267  50.440  1.00  0.00    -0.136 NA
HETATM    2  N2  UNL     1      26.657   3.085  50.941  1.00  0.00    -0.068 NA
ENDROOT
BRANCH   2   3
HETATM    3  N3  UNL     1      26.743   2.539  52.246  1.00  0.00    -0.260 N 
HETATM    4  H16 UNL     1      26.513   3.257  52.983  1.00  0.00     0.191 HD
BRANCH   3   5
HETATM    5  C10 UNL     1      27.079   1.229  52.671  1.00  0.00     0.049 A 
HETATM    6  C11 UNL     1      27.775   0.899  53.755  1.00  0.00     0.019 A 
HETATM    7  C12 UNL     1      27.881  -0.584  53.801  1.00  0.00     0.083 A 
HETATM    8  C13 UNL     1      29.277  -1.036  53.634  1.00  0.00     0.124 C 
HETATM    9  C15 UNL     1      27.136  -1.001  52.576  1.00  0.00    -0.046 A 
HETATM   10  N4  UNL     1      29.313  -2.301  53.326  1.00  0.00    -0.195 NA
HETATM   11  N5  UNL     1      28.148  -3.055  53.192  1.00  0.00    -0.310 N 
HETATM   12  C14 UNL     1      27.090  -2.476  52.380  1.00  0.00     0.176 C 
HETATM   13  H20 UNL     1      27.986  -3.994  53.630  1.00  0.00     0.182 HD
HETATM   14  C16 UNL     1      26.669   0.033  51.919  1.00  0.00     0.036 A 
ENDBRANCH   3   5
ENDBRANCH   2   3
BRANCH   1  15
HETATM   15  C2  UNL     1      24.301   2.964  51.089  1.00  0.00     0.072 C 
HETATM   16  C1  UNL     1      24.017   4.151  51.613  1.00  0.00     0.045 C 
BRANCH  15  17
HETATM   17  C3  UNL     1      23.519   1.720  51.198  1.00  0.00     0.228 C 
BRANCH  17  18
HETATM   18  O1  UNL     1      23.132   1.434  52.484  1.00  0.00    -0.380 OA
BRANCH  18  19
HETATM   19  C4  UNL     1      22.224   0.386  52.597  1.00  0.00     0.121 C 
HETATM   20  C5  UNL     1      21.391   0.617  53.832  1.00  0.00     0.032 C 
HETATM   21  C6  UNL     1      21.337  -0.550  54.775  1.00  0.00     0.002 C 
HETATM   22  C7  UNL     1      22.697  -1.071  55.160  1.00  0.00     0.000 C 
HETATM   23  C8  UNL     1      23.754  -0.693  54.138  1.00  0.00     0.002 C 
HETATM   24  C9  UNL     1      23.057  -0.867  52.781  1.00  0.00     0.032 C 
ENDBRANCH  18  19
ENDBRANCH  17  18
ENDBRANCH  15  17
ENDBRANCH   1  15
TORSDOF 6
ENDMDL
MODEL 2
REMARK VINA RESULT:      -7.7      1.443      2.115
REMARK  6 active torsions:
REMARK  status: ('A' for Active; 'I' for Inactive)
REMARK    1  A    between atoms: C2_2  and  C3_3 
REMARK    2  A    between atoms: C2_2  and  N1_11 
REMARK    3  A    between atoms: C3_3  and  O1_4 
REMARK    4  A    between atoms: O1_4  and  C4_5 
REMARK    5  A    between atoms: N2_12  and  N3_13 
REMARK    6  A    between atoms: N3_13  and  C10_14 
ROOT
HETATM    1  N1  UNL     1      23.376   3.910  50.666  1.00  0.00    -0.136 NA
HETATM    2  N2  UNL     1      24.378   4.113  51.416  1.00  0.00    -0.068 NA
ENDROOT
BRANCH   2   3
HETATM    3  N3  UNL     1      24.597   3.225  52.500  1.00  0.00    -0.260 N 
HETATM    4  H16 UNL     1      23.898   3.378  53.274  1.00  0.00     0.191 HD
BRANCH   3   5
HETATM    5  C10 UNL     1      25.576   2.214  52.673  1.00  0.00     0.049 A 
HETATM    6  C11 UNL     1      26.028   1.379  51.742  1.00  0.00     0.019 A 
HETATM    7  C12 UNL     1      27.044   0.495  52.373  1.00  0.00     0.083 A 
HETATM    8  C13 UNL     1      26.597  -0.912  52.409  1.00  0.00     0.124 C 
HETATM    9  C15 UNL     1      27.070   0.982  53.784  1.00  0.00    -0.046 A 
HETATM   10  N4  UNL     1      27.312  -1.597  53.255  1.00  0.00    -0.195 NA
HETATM   11  N5  UNL     1      28.342  -1.009  53.987  1.00  0.00    -0.310 N 
HETATM   12  C14 UNL     1      28.031   0.247  54.652  1.00  0.00     0.176 C 
HETATM   13  H20 UNL     1      29.308  -1.403  54.089  1.00  0.00     0.182 HD
HETATM   14  C16 UNL     1      26.230   1.971  53.968  1.00  0.00     0.036 A 
ENDBRANCH   3   5
ENDBRANCH   2   3
BRANCH   1  15
HETATM   15  C2  UNL     1      22.459   2.862  50.831  1.00  0.00     0.072 C 
HETATM   16  C1  UNL     1      22.694   2.174  49.720  1.00  0.00     0.045 C 
BRANCH  15  17
HETATM   17  C3  UNL     1      21.490   2.551  51.897  1.00  0.00     0.228 C 
BRANCH  17  18
HETATM   18  O1  UNL     1      21.971   1.661  52.825  1.00  0.00    -0.380 OA
BRANCH  18  19
HETATM   19  C4  UNL     1      21.543   0.350  52.648  1.00  0.00     0.121 C 
HETATM   20  C5  UNL     1      20.662  -0.018  53.815  1.00  0.00     0.032 C 
HETATM   21  C6  UNL     1      21.049  -1.290  54.513  1.00  0.00     0.002 C 
HETATM   22  C7  UNL     1      22.497  -1.326  54.928  1.00  0.00     0.000 C 
HETATM   23  C8  UNL     1      23.342  -0.371  54.106  1.00  0.00     0.002 C 
HETATM   24  C9  UNL     1      22.795  -0.503  52.678  1.00  0.00     0.032 C 
ENDBRANCH  18  19
ENDBRANCH  17  18
ENDBRANCH  15  17
ENDBRANCH   1  15
TORSDOF 6
ENDMDL
MODEL 3
REMARK VINA RESULT:      -7.2      2.109      3.226
REMARK  6 active torsions:
REMARK  status: ('A' for Active; 'I' for Inactive)
REMARK    1  A    between atoms: C2_2  and  C3_3 
REMARK    2  A    between atoms: C2_2  and  N1_11 
REMARK    3  A    between atoms: C3_3  and  O1_4 
REMARK    4  A    between atoms: O1_4  and  C4_5 
REMARK    5  A    between atoms: N2_12  and  N3_13 
REMARK    6  A    between atoms: N3_13  and  C10_14 
ROOT
HETATM    1  N1  UNL     1      26.516   4.721  48.942  1.00  0.00    -0.136 NA
HETATM    2  N2  UNL     1      27.140   3.841  49.608  1.00  0.00    -0.068 NA
ENDROOT
BRANCH   2   3
HETATM    3  N3  UNL     1      26.644   3.490  50.889  1.00  0.00    -0.260 N 
HETATM    4  H16 UNL     1      25.951   4.201  51.245  1.00  0.00     0.191 HD
BRANCH   3   5
HETATM    5  C10 UNL     1      26.938   2.374  51.712  1.00  0.00     0.049 A 
HETATM    6  C11 UNL     1      26.401   1.160  51.625  1.00  0.00     0.019 A 
HETATM    7  C12 UNL     1      27.008   0.312  52.687  1.00  0.00     0.083 A 
HETATM    8  C13 UNL     1      26.010  -0.093  53.698  1.00  0.00     0.124 C 
HETATM    9  C15 UNL     1      27.952   1.255  53.356  1.00  0.00    -0.046 A 
HETATM   10  N4  UNL     1      26.602  -0.520  54.776  1.00  0.00    -0.195 NA
HETATM   11  N5  UNL     1      27.991  -0.559  54.882  1.00  0.00    -0.310 N 
HETATM   12  C14 UNL     1      28.707   0.642  54.484  1.00  0.00     0.176 C 
HETATM   13  H20 UNL     1      28.545  -1.382  55.224  1.00  0.00     0.182 HD
HETATM   14  C16 UNL     1      27.921   2.443  52.804  1.00  0.00     0.036 A 
ENDBRANCH   3   5
ENDBRANCH   2   3
BRANCH   1  15
HETATM   15  C2  UNL     1      25.359   5.379  49.383  1.00  0.00     0.072 C 
HETATM   16  C1  UNL     1      25.884   6.540  49.759  1.00  0.00     0.045 C 
BRANCH  15  17
HETATM   17  C3  UNL     1      23.946   4.968  49.441  1.00  0.00     0.228 C 
BRANCH  17  18
HETATM   18  O1  UNL     1      23.764   3.729  50.003  1.00  0.00    -0.380 OA
BRANCH  18  19
HETATM   19  C4  UNL     1      22.765   3.670  50.969  1.00  0.00     0.121 C 
HETATM   20  C5  UNL     1      23.356   3.071  52.220  1.00  0.00     0.032 C 
HETATM   21  C6  UNL     1      22.585   1.911  52.780  1.00  0.00     0.002 C 
HETATM   22  C7  UNL     1      22.314   0.829  51.768  1.00  0.00     0.000 C 
HETATM   23  C8  UNL     1      22.381   1.358  50.347  1.00  0.00     0.002 C 
HETATM   24  C9  UNL     1      21.707   2.736  50.417  1.00  0.00     0.032 C 
ENDBRANCH  18  19
ENDBRANCH  17  18
ENDBRANCH  15  17
ENDBRANCH   1  15
TORSDOF 6
ENDMDL
MODEL 4
REMARK VINA RESULT:      -7.1      2.306      4.281
REMARK  6 active torsions:
REMARK  status: ('A' for Active; 'I' for Inactive)
REMARK    1  A    between atoms: C2_2  and  C3_3 
REMARK    2  A    between atoms: C2_2  and  N1_11 
REMARK    3  A    between atoms: C3_3  and  O1_4 
REMARK    4  A    between atoms: O1_4  and  C4_5 
REMARK    5  A    between atoms: N2_12  and  N3_13 
REMARK    6  A    between atoms: N3_13  and  C10_14 
ROOT
HETATM    1  N1  UNL     1      22.196  -0.923  53.118  1.00  0.00    -0.136 NA
HETATM    2  N2  UNL     1      23.356  -1.332  53.428  1.00  0.00    -0.068 NA
ENDROOT
BRANCH   2   3
HETATM    3  N3  UNL     1      24.273  -0.400  53.977  1.00  0.00    -0.260 N 
HETATM    4  H16 UNL     1      23.818   0.205  54.710  1.00  0.00     0.191 HD
BRANCH   3   5
HETATM    5  C10 UNL     1      25.644  -0.183  53.687  1.00  0.00     0.049 A 
HETATM    6  C11 UNL     1      26.377  -0.832  52.787  1.00  0.00     0.019 A 
HETATM    7  C12 UNL     1      27.755  -0.272  52.828  1.00  0.00     0.083 A 
HETATM    8  C13 UNL     1      28.735  -1.271  53.301  1.00  0.00     0.124 C 
HETATM    9  C15 UNL     1      27.650   0.775  53.886  1.00  0.00    -0.046 A 
HETATM   10  N4  UNL     1      29.842  -0.687  53.663  1.00  0.00    -0.195 NA
HETATM   11  N5  UNL     1      30.000   0.694  53.582  1.00  0.00    -0.310 N 
HETATM   12  C14 UNL     1      28.925   1.505  54.131  1.00  0.00     0.176 C 
HETATM   13  H20 UNL     1      30.828   1.181  53.161  1.00  0.00     0.182 HD
HETATM   14  C16 UNL     1      26.441   0.835  54.387  1.00  0.00     0.036 A 
ENDBRANCH   3   5
ENDBRANCH   2   3
BRANCH   1  15
HETATM   15  C2  UNL     1      21.749   0.396  53.280  1.00  0.00     0.072 C 
HETATM   16  C1  UNL     1      21.074   0.272  54.417  1.00  0.00     0.045 C 
BRANCH  15  17
HETATM   17  C3  UNL     1      21.935   1.612  52.471  1.00  0.00     0.228 C 
BRANCH  17  18
HETATM   18  O1  UNL     1      23.231   1.795  52.055  1.00  0.00    -0.380 OA
BRANCH  18  19
HETATM   19  C4  UNL     1      23.557   3.107  51.730  1.00  0.00     0.121 C 
HETATM   20  C5  UNL     1      23.298   3.306  50.258  1.00  0.00     0.032 C 
HETATM   21  C6  UNL     1      24.455   3.879  49.493  1.00  0.00     0.002 C 
HETATM   22  C7  UNL     1      25.740   3.118  49.692  1.00  0.00     0.000 C 
HETATM   23  C8  UNL     1      25.726   2.320  50.984  1.00  0.00     0.002 C 
HETATM   24  C9  UNL     1      25.042   3.245  52.001  1.00  0.00     0.032 C 
ENDBRANCH  18  19
ENDBRANCH  17  18
ENDBRANCH  15  17
ENDBRANCH   1  15
TORSDOF 6
ENDMDL
MODEL 5
REMARK VINA RESULT:      -7.1      2.012      5.237
REMARK  6 active torsions:
REMARK  status: ('A' for Active; 'I' for Inactive)
REMARK    1  A    between atoms: C2_2  and  C3_3 
REMARK    2  A    between atoms: C2_2  and  N1_11 
REMARK    3  A    between atoms: C3_3  and  O1_4 
REMARK    4  A    between atoms: O1_4  and  C4_5 
REMARK    5  A    between atoms: N2_12  and  N3_13 
REMARK    6  A    between atoms: N3_13  and  C10_14 
ROOT
HETATM    1  N1  UNL     1      27.181   0.830  54.138  1.00  0.00    -0.136 NA
HETATM    2  N2  UNL     1      26.889   2.063  54.092  1.00  0.00    -0.068 NA
ENDROOT
BRANCH   2   3
HETATM    3  N3  UNL     1      25.582   2.429  53.683  1.00  0.00    -0.260 N 
HETATM    4  H16 UNL     1      24.889   2.342  54.473  1.00  0.00     0.191 HD
BRANCH   3   5
HETATM    5  C10 UNL     1      25.106   2.871  52.422  1.00  0.00     0.049 A 
HETATM    6  C11 UNL     1      25.658   2.630  51.237  1.00  0.00     0.019 A 
HETATM    7  C12 UNL     1      24.820   3.287  50.198  1.00  0.00     0.083 A 
HETATM    8  C13 UNL     1      25.547   4.380  49.522  1.00  0.00     0.124 C 
HETATM    9  C15 UNL     1      23.734   3.918  51.006  1.00  0.00    -0.046 A 
HETATM   10  N4  UNL     1      24.716   5.157  48.886  1.00  0.00    -0.195 NA
HETATM   11  N5  UNL     1      23.344   4.919  48.893  1.00  0.00    -0.310 N 
HETATM   12  C14 UNL     1      22.735   4.659  50.188  1.00  0.00     0.176 C 
HETATM   13  H20 UNL     1      22.730   4.916  48.042  1.00  0.00     0.182 HD
HETATM   14  C16 UNL     1      23.889   3.685  52.286  1.00  0.00     0.036 A 
ENDBRANCH   3   5
ENDBRANCH   2   3
BRANCH   1  15
HETATM   15  C2  UNL     1      26.299  -0.208  53.810  1.00  0.00     0.072 C 
HETATM   16  C1  UNL     1      26.829  -0.606  52.659  1.00  0.00     0.045 C 
BRANCH  15  17
HETATM   17  C3  UNL     1      25.112  -0.754  54.492  1.00  0.00     0.228 C 
BRANCH  17  18
HETATM   18  O1  UNL     1      23.951  -0.095  54.173  1.00  0.00    -0.380 OA
BRANCH  18  19
HETATM   19  C4  UNL     1      23.102  -0.794  53.323  1.00  0.00     0.121 C 
HETATM   20  C5  UNL     1      22.540   0.178  52.316  1.00  0.00     0.032 C 
HETATM   21  C6  UNL     1      21.043   0.163  52.203  1.00  0.00     0.002 C 
HETATM   22  C7  UNL     1      20.342   0.327  53.526  1.00  0.00     0.000 C 
HETATM   23  C8  UNL     1      21.234  -0.068  54.689  1.00  0.00     0.002 C 
HETATM   24  C9  UNL     1      21.978  -1.317  54.195  1.00  0.00     0.032 C 
ENDBRANCH  18  19
ENDBRANCH  17  18
ENDBRANCH  15  17
ENDBRANCH   1  15
TORSDOF 6
ENDMDL
MODEL 6
REMARK VINA RESULT:      -6.8      2.558      4.818
REMARK  6 active torsions:
REMARK  status: ('A' for Active; 'I' for Inactive)
REMARK    1  A    between atoms: C2_2  and  C3_3 
REMARK    2  A    between atoms: C2_2  and  N1_11 
REMARK    3  A    between atoms: C3_3  and  O1_4 
REMARK    4  A    between atoms: O1_4  and  C4_5 
REMARK    5  A    between atoms: N2_12  and  N3_13 
REMARK    6  A    between atoms: N3_13  and  C10_14 
ROOT
HETATM    1  N1  UNL     1      21.883   0.683  52.210  1.00  0.00    -0.136 NA
HETATM    2  N2  UNL     1      22.894   0.400  52.923  1.00  0.00    -0.068 NA
ENDROOT
BRANCH   2   3
HETATM    3  N3  UNL     1      23.894   1.390  53.091  1.00  0.00    -0.260 N 
HETATM    4  H16 UNL     1      23.475   2.337  53.287  1.00  0.00     0.191 HD
BRANCH   3   5
HETATM    5  C10 UNL     1      25.307   1.284  53.032  1.00  0.00     0.049 A 
HETATM    6  C11 UNL     1      26.007   0.337  52.414  1.00  0.00     0.019 A 
HETATM    7  C12 UNL     1      27.452   0.629  52.616  1.00  0.00     0.083 A 
HETATM    8  C13 UNL     1      28.109  -0.412  53.434  1.00  0.00     0.124 C 
HETATM    9  C15 UNL     1      27.422   1.876  53.436  1.00  0.00    -0.046 A 
HETATM   10  N4  UNL     1      29.250   0.021  53.890  1.00  0.00    -0.195 NA
HETATM   11  N5  UNL     1      29.716   1.301  53.600  1.00  0.00    -0.310 N 
HETATM   12  C14 UNL     1      28.773   2.393  53.786  1.00  0.00     0.176 C 
HETATM   13  H20 UNL     1      30.683   1.527  53.265  1.00  0.00     0.182 HD
HETATM   14  C16 UNL     1      26.193   2.262  53.681  1.00  0.00     0.036 A 
ENDBRANCH   3   5
ENDBRANCH   2   3
BRANCH   1  15
HETATM   15  C2  UNL     1      21.680   1.913  51.571  1.00  0.00     0.072 C 
HETATM   16  C1  UNL     1      20.752   2.435  52.364  1.00  0.00     0.045 C 
BRANCH  15  17
HETATM   17  C3  UNL     1      22.284   2.518  50.371  1.00  0.00     0.228 C 
BRANCH  17  18
HETATM   18  O1  UNL     1      23.544   3.017  50.589  1.00  0.00    -0.380 OA
BRANCH  18  19
HETATM   19  C4  UNL     1      24.316   3.169  49.442  1.00  0.00     0.121 C 
HETATM   20  C5  UNL     1      25.766   3.210  49.853  1.00  0.00     0.032 C 
HETATM   21  C6  UNL     1      26.531   4.387  49.322  1.00  0.00     0.002 C 
HETATM   22  C7  UNL     1      25.874   5.710  49.617  1.00  0.00     0.000 C 
HETATM   23  C8  UNL     1      24.387   5.553  49.878  1.00  0.00     0.002 C 
HETATM   24  C9  UNL     1      23.924   4.508  48.852  1.00  0.00     0.032 C 
ENDBRANCH  18  19
ENDBRANCH  17  18
ENDBRANCH  15  17
ENDBRANCH   1  15
TORSDOF 6
ENDMDL
MODEL 7
REMARK VINA RESULT:      -6.8      2.917      5.119
REMARK  6 active torsions:
REMARK  status: ('A' for Active; 'I' for Inactive)
REMARK    1  A    between atoms: C2_2  and  C3_3 
REMARK    2  A    between atoms: C2_2  and  N1_11 
REMARK    3  A    between atoms: C3_3  and  O1_4 
REMARK    4  A    between atoms: O1_4  and  C4_5 
REMARK    5  A    between atoms: N2_12  and  N3_13 
REMARK    6  A    between atoms: N3_13  and  C10_14 
ROOT
HETATM    1  N1  UNL     1      21.364   1.495  50.321  1.00  0.00    -0.136 NA
HETATM    2  N2  UNL     1      21.811   1.053  51.423  1.00  0.00    -0.068 NA
ENDROOT
BRANCH   2   3
HETATM    3  N3  UNL     1      23.085   1.497  51.858  1.00  0.00    -0.260 N 
HETATM    4  H16 UNL     1      23.207   2.533  51.704  1.00  0.00     0.191 HD
BRANCH   3   5
HETATM    5  C10 UNL     1      24.158   0.776  52.439  1.00  0.00     0.049 A 
HETATM    6  C11 UNL     1      24.082  -0.078  53.456  1.00  0.00     0.019 A 
HETATM    7  C12 UNL     1      25.451  -0.595  53.725  1.00  0.00     0.083 A 
HETATM    8  C13 UNL     1      25.947  -0.164  55.047  1.00  0.00     0.124 C 
HETATM    9  C15 UNL     1      26.273   0.110  52.697  1.00  0.00    -0.046 A 
HETATM   10  N4  UNL     1      27.238  -0.316  55.122  1.00  0.00    -0.195 NA
HETATM   11  N5  UNL     1      27.977  -0.824  54.056  1.00  0.00    -0.310 N 
HETATM   12  C14 UNL     1      27.720  -0.238  52.749  1.00  0.00     0.176 C 
HETATM   13  H20 UNL     1      28.695  -1.585  54.130  1.00  0.00     0.182 HD
HETATM   14  C16 UNL     1      25.540   0.901  51.952  1.00  0.00     0.036 A 
ENDBRANCH   3   5
ENDBRANCH   2   3
BRANCH   1  15
HETATM   15  C2  UNL     1      22.043   2.400  49.494  1.00  0.00     0.072 C 
HETATM   16  C1  UNL     1      22.123   1.679  48.381  1.00  0.00     0.045 C 
BRANCH  15  17
HETATM   17  C3  UNL     1      22.549   3.764  49.723  1.00  0.00     0.228 C 
BRANCH  17  18
HETATM   18  O1  UNL     1      23.744   4.012  49.095  1.00  0.00    -0.380 OA
BRANCH  18  19
HETATM   19  C4  UNL     1      24.535   4.977  49.712  1.00  0.00     0.121 C 
HETATM   20  C5  UNL     1      25.172   5.820  48.636  1.00  0.00     0.032 C 
HETATM   21  C6  UNL     1      26.663   5.954  48.752  1.00  0.00     0.002 C 
HETATM   22  C7  UNL     1      27.376   4.631  48.861  1.00  0.00     0.000 C 
HETATM   23  C8  UNL     1      26.455   3.537  49.368  1.00  0.00     0.002 C 
HETATM   24  C9  UNL     1      25.613   4.216  50.457  1.00  0.00     0.032 C 
ENDBRANCH  18  19
ENDBRANCH  17  18
ENDBRANCH  15  17
ENDBRANCH   1  15
TORSDOF 6
ENDMDL
MODEL 8
REMARK VINA RESULT:      -6.7      3.320      5.760
REMARK  6 active torsions:
REMARK  status: ('A' for Active; 'I' for Inactive)
REMARK    1  A    between atoms: C2_2  and  C3_3 
REMARK    2  A    between atoms: C2_2  and  N1_11 
REMARK    3  A    between atoms: C3_3  and  O1_4 
REMARK    4  A    between atoms: O1_4  and  C4_5 
REMARK    5  A    between atoms: N2_12  and  N3_13 
REMARK    6  A    between atoms: N3_13  and  C10_14 
ROOT
HETATM    1  N1  UNL     1      23.218   3.852  51.947  1.00  0.00    -0.136 NA
HETATM    2  N2  UNL     1      23.589   2.950  52.757  1.00  0.00    -0.068 NA
ENDROOT
BRANCH   2   3
HETATM    3  N3  UNL     1      24.978   2.712  52.907  1.00  0.00    -0.260 N 
HETATM    4  H16 UNL     1      25.540   3.594  52.775  1.00  0.00     0.191 HD
BRANCH   3   5
HETATM    5  C10 UNL     1      25.677   1.512  53.194  1.00  0.00     0.049 A 
HETATM    6  C11 UNL     1      26.329   1.221  54.316  1.00  0.00     0.019 A 
HETATM    7  C12 UNL     1      26.906  -0.142  54.172  1.00  0.00     0.083 A 
HETATM    8  C13 UNL     1      28.382  -0.111  54.161  1.00  0.00     0.124 C 
HETATM    9  C15 UNL     1      26.465  -0.540  52.803  1.00  0.00    -0.046 A 
HETATM   10  N4  UNL     1      28.858  -1.228  53.691  1.00  0.00    -0.195 NA
HETATM   11  N5  UNL     1      28.022  -2.263  53.279  1.00  0.00    -0.310 N 
HETATM   12  C14 UNL     1      26.922  -1.899  52.401  1.00  0.00     0.176 C 
HETATM   13  H20 UNL     1      28.131  -3.270  53.553  1.00  0.00     0.182 HD
HETATM   14  C16 UNL     1      25.757   0.403  52.231  1.00  0.00     0.036 A 
ENDBRANCH   3   5
ENDBRANCH   2   3
BRANCH   1  15
HETATM   15  C2  UNL     1      24.089   4.640  51.181  1.00  0.00     0.072 C 
HETATM   16  C1  UNL     1      23.726   5.850  51.591  1.00  0.00     0.045 C 
BRANCH  15  17
HETATM   17  C3  UNL     1      25.127   4.296  50.194  1.00  0.00     0.228 C 
BRANCH  17  18
HETATM   18  O1  UNL     1      26.015   5.317  49.963  1.00  0.00    -0.380 OA
BRANCH  18  19
HETATM   19  C4  UNL     1      26.458   5.415  48.648  1.00  0.00     0.121 C 
HETATM   20  C5  UNL     1      27.941   5.142  48.630  1.00  0.00     0.032 C 
HETATM   21  C6  UNL     1      28.760   6.191  47.935  1.00  0.00     0.002 C 
HETATM   22  C7  UNL     1      28.498   7.586  48.441  1.00  0.00     0.000 C 
HETATM   23  C8  UNL     1      27.140   7.696  49.110  1.00  0.00     0.002 C 
HETATM   24  C9  UNL     1      26.208   6.850  48.231  1.00  0.00     0.032 C 
ENDBRANCH  18  19
ENDBRANCH  17  18
ENDBRANCH  15  17
ENDBRANCH   1  15
TORSDOF 6
ENDMDL
MODEL 9
REMARK VINA RESULT:      -6.5      2.703      4.843
REMARK  6 active torsions:
REMARK  status: ('A' for Active; 'I' for Inactive)
REMARK    1  A    between atoms: C2_2  and  C3_3 
REMARK    2  A    between atoms: C2_2  and  N1_11 
REMARK    3  A    between atoms: C3_3  and  O1_4 
REMARK    4  A    between atoms: O1_4  and  C4_5 
REMARK    5  A    between atoms: N2_12  and  N3_13 
REMARK    6  A    between atoms: N3_13  and  C10_14 
ROOT
HETATM    1  N1  UNL     1      21.361   0.412  53.397  1.00  0.00    -0.136 NA
HETATM    2  N2  UNL     1      22.352  -0.290  53.761  1.00  0.00    -0.068 NA
ENDROOT
BRANCH   2   3
HETATM    3  N3  UNL     1      23.568  -0.159  53.045  1.00  0.00    -0.260 N 
HETATM    4  H16 UNL     1      23.488  -0.552  52.070  1.00  0.00     0.191 HD
BRANCH   3   5
HETATM    5  C10 UNL     1      24.810   0.398  53.441  1.00  0.00     0.049 A 
HETATM    6  C11 UNL     1      25.187   1.667  53.315  1.00  0.00     0.019 A 
HETATM    7  C12 UNL     1      26.563   1.795  53.865  1.00  0.00     0.083 A 
HETATM    8  C13 UNL     1      27.541   2.140  52.814  1.00  0.00     0.124 C 
HETATM    9  C15 UNL     1      26.868   0.402  54.307  1.00  0.00    -0.046 A 
HETATM   10  N4  UNL     1      28.755   1.905  53.225  1.00  0.00    -0.195 NA
HETATM   11  N5  UNL     1      29.010   1.398  54.498  1.00  0.00    -0.310 N 
HETATM   12  C14 UNL     1      28.220   0.249  54.910  1.00  0.00     0.176 C 
HETATM   13  H20 UNL     1      29.721   1.782  55.166  1.00  0.00     0.182 HD
HETATM   14  C16 UNL     1      25.866  -0.410  54.068  1.00  0.00     0.036 A 
ENDBRANCH   3   5
ENDBRANCH   2   3
BRANCH   1  15
HETATM   15  C2  UNL     1      21.379   1.318  52.327  1.00  0.00     0.072 C 
HETATM   16  C1  UNL     1      20.799   0.578  51.389  1.00  0.00     0.045 C 
BRANCH  15  17
HETATM   17  C3  UNL     1      21.878   2.699  52.206  1.00  0.00     0.228 C 
BRANCH  17  18
HETATM   18  O1  UNL     1      22.565   2.928  51.040  1.00  0.00    -0.380 OA
BRANCH  18  19
HETATM   19  C4  UNL     1      22.664   4.267  50.677  1.00  0.00     0.121 C 
HETATM   20  C5  UNL     1      22.727   4.343  49.173  1.00  0.00     0.032 C 
HETATM   21  C6  UNL     1      23.879   5.142  48.637  1.00  0.00     0.002 C 
HETATM   22  C7  UNL     1      25.214   4.711  49.187  1.00  0.00     0.000 C 
HETATM   23  C8  UNL     1      25.067   3.982  50.510  1.00  0.00     0.002 C 
HETATM   24  C9  UNL     1      23.974   4.759  51.259  1.00  0.00     0.032 C 
ENDBRANCH  18  19
ENDBRANCH  17  18
ENDBRANCH  15  17
ENDBRANCH   1  15
TORSDOF 6
ENDMDL
