MODEL 1
REMARK VINA RESULT:      -7.9      0.000      0.000
REMARK  2 active torsions:
REMARK  status: ('A' for Active; 'I' for Inactive)
REMARK    1  A    between atoms: C2_2  and  C3_3 
REMARK    2  A    between atoms: C3_3  and  N1_4 
ROOT
HETATM    1  N1  UNL     1      23.472   0.537  53.008  1.00  0.00    -0.384 N 
HETATM    2  C4  UNL     1      22.245   1.057  52.383  1.00  0.00     0.075 C 
HETATM    3  C5  UNL     1      22.583   1.351  51.093  1.00  0.00     0.072 A 
HETATM    4  C6  UNL     1      22.799   1.885  49.961  1.00  0.00     0.099 A 
HETATM    5  C7  UNL     1      21.820   1.558  49.091  1.00  0.00     0.092 C 
HETATM    6  N2  UNL     1      20.969   2.351  49.861  1.00  0.00    -0.379 N 
HETATM    7  C8  UNL     1      19.545   2.346  49.582  1.00  0.00     0.150 C 
HETATM    8  C9  UNL     1      22.182   2.753  50.547  1.00  0.00     0.096 A 
HETATM    9  C10 UNL     1      21.784   3.723  51.623  1.00  0.00     0.040 C 
HETATM   10 CL1  UNL     1      20.246   3.365  52.411  1.00  0.00    -0.086 Cl
HETATM   11  C11 UNL     1      22.629   4.760  51.842  1.00  0.00     0.015 C 
HETATM   12  C12 UNL     1      23.725   5.750  51.842  1.00  0.00     0.147 C 
HETATM   13  N3  UNL     1      24.730   5.361  50.903  1.00  0.00    -0.395 N 
HETATM   14  C13 UNL     1      25.601   5.000  49.769  1.00  0.00     0.097 C 
HETATM   15  C14 UNL     1      25.806   3.614  49.563  1.00  0.00     0.016 C 
HETATM   16  C15 UNL     1      24.679   3.167  49.910  1.00  0.00     0.037 C 
HETATM   17  C16 UNL     1      23.158   3.539  49.719  1.00  0.00     0.089 C 
HETATM   18  C17 UNL     1      22.999   3.367  48.258  1.00  0.00     0.021 C 
HETATM   19  N4  UNL     1      24.019   2.367  50.667  1.00  0.00    -0.302 N 
HETATM   20  C18 UNL     1      24.985   1.993  51.772  1.00  0.00     0.243 C 
HETATM   21  O1  UNL     1      26.094   2.630  51.664  1.00  0.00    -0.271 OA
HETATM   22  C19 UNL     1      24.875   1.010  52.947  1.00  0.00     0.225 C 
HETATM   23  H16 UNL     1      25.637   5.197  51.446  1.00  0.00     0.159 HD
ENDROOT
BRANCH   1  24
HETATM   24  C3  UNL     1      23.177  -0.580  53.816  1.00  0.00     0.122 C 
BRANCH  24  25
HETATM   25  C2  UNL     1      21.936  -0.554  54.614  1.00  0.00     0.015 C 
HETATM   26  C1  UNL     1      21.078  -1.755  54.362  1.00  0.00     0.006 C 
ENDBRANCH  24  25
ENDBRANCH   1  24
TORSDOF 2
ENDMDL
MODEL 2
REMARK VINA RESULT:      -7.9      2.287      4.613
REMARK  2 active torsions:
REMARK  status: ('A' for Active; 'I' for Inactive)
REMARK    1  A    between atoms: C2_2  and  C3_3 
REMARK    2  A    between atoms: C3_3  and  N1_4 
ROOT
HETATM    1  N1  UNL     1      25.673   0.928  52.687  1.00  0.00    -0.384 N 
HETATM    2  C4  UNL     1      25.535   2.199  51.956  1.00  0.00     0.075 C 
HETATM    3  C5  UNL     1      24.401   2.785  52.442  1.00  0.00     0.072 A 
HETATM    4  C6  UNL     1      23.268   3.330  52.619  1.00  0.00     0.099 A 
HETATM    5  C7  UNL     1      23.405   4.665  52.759  1.00  0.00     0.092 C 
HETATM    6  N2  UNL     1      23.767   4.697  51.412  1.00  0.00    -0.379 N 
HETATM    7  C8  UNL     1      24.267   5.933  50.837  1.00  0.00     0.150 C 
HETATM    8  C9  UNL     1      23.360   3.304  51.408  1.00  0.00     0.096 A 
HETATM    9  C10 UNL     1      23.584   2.781  50.017  1.00  0.00     0.040 C 
HETATM   10 CL1  UNL     1      25.014   3.420  49.206  1.00  0.00    -0.086 Cl
HETATM   11  C11 UNL     1      22.659   1.908  49.546  1.00  0.00     0.015 C 
HETATM   12  C12 UNL     1      21.513   1.003  49.327  1.00  0.00     0.147 C 
HETATM   13  N3  UNL     1      20.718   0.930  50.512  1.00  0.00    -0.395 N 
HETATM   14  C13 UNL     1      19.848   1.085  51.693  1.00  0.00     0.097 C 
HETATM   15  C14 UNL     1      20.511   1.211  52.938  1.00  0.00     0.016 C 
HETATM   16  C15 UNL     1      21.537   1.852  52.581  1.00  0.00     0.037 C 
HETATM   17  C16 UNL     1      21.896   3.062  51.635  1.00  0.00     0.089 C 
HETATM   18  C17 UNL     1      21.189   4.175  52.307  1.00  0.00     0.021 C 
HETATM   19  N4  UNL     1      22.819   1.911  52.549  1.00  0.00    -0.302 N 
HETATM   20  C18 UNL     1      23.280   0.498  52.839  1.00  0.00     0.243 C 
HETATM   21  O1  UNL     1      22.288  -0.310  52.940  1.00  0.00    -0.271 OA
HETATM   22  C19 UNL     1      24.676  -0.111  53.038  1.00  0.00     0.225 C 
HETATM   23  H16 UNL     1      20.729  -0.084  50.851  1.00  0.00     0.159 HD
ENDROOT
BRANCH   1  24
HETATM   24  C3  UNL     1      27.018   0.716  53.053  1.00  0.00     0.122 C 
BRANCH  24  25
HETATM   25  C2  UNL     1      27.543  -0.661  53.011  1.00  0.00     0.015 C 
HETATM   26  C1  UNL     1      28.975  -0.734  53.442  1.00  0.00     0.006 C 
ENDBRANCH  24  25
ENDBRANCH   1  24
TORSDOF 2
ENDMDL
MODEL 3
REMARK VINA RESULT:      -7.5      1.657      2.075
REMARK  2 active torsions:
REMARK  status: ('A' for Active; 'I' for Inactive)
REMARK    1  A    between atoms: C2_2  and  C3_3 
REMARK    2  A    between atoms: C3_3  and  N1_4 
ROOT
HETATM    1  N1  UNL     1      20.785  -0.007  53.150  1.00  0.00    -0.384 N 
HETATM    2  C4  UNL     1      20.128   0.828  52.130  1.00  0.00     0.075 C 
HETATM    3  C5  UNL     1      21.026   0.938  51.108  1.00  0.00     0.072 A 
HETATM    4  C6  UNL     1      21.828   1.321  50.200  1.00  0.00     0.099 A 
HETATM    5  C7  UNL     1      21.232   1.263  48.991  1.00  0.00     0.092 C 
HETATM    6  N2  UNL     1      20.423   2.316  49.417  1.00  0.00    -0.379 N 
HETATM    7  C8  UNL     1      19.301   2.731  48.596  1.00  0.00     0.150 C 
HETATM    8  C9  UNL     1      21.319   2.365  50.558  1.00  0.00     0.096 A 
HETATM    9  C10 UNL     1      20.832   3.465  51.458  1.00  0.00     0.040 C 
HETATM   10 CL1  UNL     1      19.077   3.633  51.540  1.00  0.00    -0.086 Cl
HETATM   11  C11 UNL     1      21.785   4.205  52.075  1.00  0.00     0.015 C 
HETATM   12  C12 UNL     1      23.030   4.813  52.586  1.00  0.00     0.147 C 
HETATM   13  N3  UNL     1      24.161   4.089  52.098  1.00  0.00    -0.395 N 
HETATM   14  C13 UNL     1      25.263   3.421  51.379  1.00  0.00     0.097 C 
HETATM   15  C14 UNL     1      25.108   2.030  51.165  1.00  0.00     0.016 C 
HETATM   16  C15 UNL     1      23.859   1.966  51.000  1.00  0.00     0.037 C 
HETATM   17  C16 UNL     1      22.730   2.772  50.250  1.00  0.00     0.089 C 
HETATM   18  C17 UNL     1      23.128   2.581  48.837  1.00  0.00     0.021 C 
HETATM   19  N4  UNL     1      22.745   1.445  51.368  1.00  0.00    -0.302 N 
HETATM   20  C18 UNL     1      23.025   0.853  52.733  1.00  0.00     0.243 C 
HETATM   21  O1  UNL     1      24.219   1.115  53.125  1.00  0.00    -0.271 OA
HETATM   22  C19 UNL     1      22.165   0.012  53.689  1.00  0.00     0.225 C 
HETATM   23  H16 UNL     1      24.679   3.684  52.941  1.00  0.00     0.159 HD
ENDROOT
BRANCH   1  24
HETATM   24  C3  UNL     1      19.870  -0.938  53.685  1.00  0.00     0.122 C 
BRANCH  24  25
HETATM   25  C2  UNL     1      18.515  -0.996  53.105  1.00  0.00     0.015 C 
HETATM   26  C1  UNL     1      17.788  -2.245  53.495  1.00  0.00     0.006 C 
ENDBRANCH  24  25
ENDBRANCH   1  24
TORSDOF 2
ENDMDL
MODEL 4
REMARK VINA RESULT:      -7.4      9.531     12.097
REMARK  2 active torsions:
REMARK  status: ('A' for Active; 'I' for Inactive)
REMARK    1  A    between atoms: C2_2  and  C3_3 
REMARK    2  A    between atoms: C3_3  and  N1_4 
ROOT
HETATM    1  N1  UNL     1      30.631   7.786  47.922  1.00  0.00    -0.384 N 
HETATM    2  C4  UNL     1      31.700   8.319  47.060  1.00  0.00     0.075 C 
HETATM    3  C5  UNL     1      32.088   7.277  46.266  1.00  0.00     0.072 A 
HETATM    4  C6  UNL     1      32.709   6.365  45.638  1.00  0.00     0.099 A 
HETATM    5  C7  UNL     1      32.967   6.757  44.373  1.00  0.00     0.092 C 
HETATM    6  N2  UNL     1      33.859   7.681  44.917  1.00  0.00    -0.379 N 
HETATM    7  C8  UNL     1      34.464   8.681  44.055  1.00  0.00     0.150 C 
HETATM    8  C9  UNL     1      33.614   6.982  46.164  1.00  0.00     0.096 A 
HETATM    9  C10 UNL     1      34.429   7.666  47.225  1.00  0.00     0.040 C 
HETATM   10 CL1  UNL     1      34.548   9.418  47.052  1.00  0.00    -0.086 Cl
HETATM   11  C11 UNL     1      34.990   6.866  48.164  1.00  0.00     0.015 C 
HETATM   12  C12 UNL     1      35.455   5.754  49.017  1.00  0.00     0.147 C 
HETATM   13  N3  UNL     1      34.900   4.521  48.553  1.00  0.00    -0.395 N 
HETATM   14  C13 UNL     1      34.462   3.283  47.881  1.00  0.00     0.097 C 
HETATM   15  C14 UNL     1      33.175   3.324  47.289  1.00  0.00     0.016 C 
HETATM   16  C15 UNL     1      33.142   4.525  46.906  1.00  0.00     0.037 C 
HETATM   17  C16 UNL     1      34.106   5.565  46.213  1.00  0.00     0.089 C 
HETATM   18  C17 UNL     1      34.302   4.938  44.887  1.00  0.00     0.021 C 
HETATM   19  N4  UNL     1      32.529   5.653  46.934  1.00  0.00    -0.302 N 
HETATM   20  C18 UNL     1      31.598   5.559  48.125  1.00  0.00     0.243 C 
HETATM   21  O1  UNL     1      31.762   4.460  48.766  1.00  0.00    -0.271 OA
HETATM   22  C19 UNL     1      30.524   6.512  48.670  1.00  0.00     0.225 C 
HETATM   23  H16 UNL     1      34.292   4.121  49.337  1.00  0.00     0.159 HD
ENDROOT
BRANCH   1  24
HETATM   24  C3  UNL     1      29.581   8.720  48.035  1.00  0.00     0.122 C 
BRANCH  24  25
HETATM   25  C2  UNL     1      29.365   9.371  49.341  1.00  0.00     0.015 C 
HETATM   26  C1  UNL     1      27.939   9.282  49.788  1.00  0.00     0.006 C 
ENDBRANCH  24  25
ENDBRANCH   1  24
TORSDOF 2
ENDMDL
MODEL 5
REMARK VINA RESULT:      -7.2      2.147      5.533
REMARK  2 active torsions:
REMARK  status: ('A' for Active; 'I' for Inactive)
REMARK    1  A    between atoms: C2_2  and  C3_3 
REMARK    2  A    between atoms: C3_3  and  N1_4 
ROOT
HETATM    1  N1  UNL     1      26.529   4.293  49.271  1.00  0.00    -0.384 N 
HETATM    2  C4  UNL     1      25.328   5.100  48.994  1.00  0.00     0.075 C 
HETATM    3  C5  UNL     1      24.641   5.156  50.172  1.00  0.00     0.072 A 
HETATM    4  C6  UNL     1      23.787   5.100  51.111  1.00  0.00     0.099 A 
HETATM    5  C7  UNL     1      23.242   6.316  51.324  1.00  0.00     0.092 C 
HETATM    6  N2  UNL     1      22.624   6.178  50.081  1.00  0.00    -0.379 N 
HETATM    7  C8  UNL     1      21.914   7.308  49.509  1.00  0.00     0.150 C 
HETATM    8  C9  UNL     1      23.121   4.816  50.134  1.00  0.00     0.096 A 
HETATM    9  C10 UNL     1      22.690   4.136  48.865  1.00  0.00     0.040 C 
HETATM   10 CL1  UNL     1      22.706   5.165  47.432  1.00  0.00    -0.086 Cl
HETATM   11  C11 UNL     1      22.323   2.836  48.974  1.00  0.00     0.015 C 
HETATM   12  C12 UNL     1      21.994   1.464  49.409  1.00  0.00     0.147 C 
HETATM   13  N3  UNL     1      22.279   1.314  50.801  1.00  0.00    -0.395 N 
HETATM   14  C13 UNL     1      22.397   1.316  52.272  1.00  0.00     0.097 C 
HETATM   15  C14 UNL     1      23.476   2.062  52.804  1.00  0.00     0.016 C 
HETATM   16  C15 UNL     1      23.526   3.009  51.973  1.00  0.00     0.037 C 
HETATM   17  C16 UNL     1      22.522   3.955  51.207  1.00  0.00     0.089 C 
HETATM   18  C17 UNL     1      21.918   4.706  52.330  1.00  0.00     0.021 C 
HETATM   19  N4  UNL     1      24.234   3.679  51.137  1.00  0.00    -0.302 N 
HETATM   20  C18 UNL     1      25.434   2.800  50.853  1.00  0.00     0.243 C 
HETATM   21  O1  UNL     1      25.338   1.666  51.446  1.00  0.00    -0.271 OA
HETATM   22  C19 UNL     1      26.705   3.028  50.021  1.00  0.00     0.225 C 
HETATM   23  H16 UNL     1      23.030   0.560  50.901  1.00  0.00     0.159 HD
ENDROOT
BRANCH   1  24
HETATM   24  C3  UNL     1      27.660   4.869  48.655  1.00  0.00     0.122 C 
BRANCH  24  25
HETATM   25  C2  UNL     1      27.620   6.307  48.331  1.00  0.00     0.015 C 
HETATM   26  C1  UNL     1      28.853   6.758  47.610  1.00  0.00     0.006 C 
ENDBRANCH  24  25
ENDBRANCH   1  24
TORSDOF 2
ENDMDL
MODEL 6
REMARK VINA RESULT:      -6.8      7.176     10.461
REMARK  2 active torsions:
REMARK  status: ('A' for Active; 'I' for Inactive)
REMARK    1  A    between atoms: C2_2  and  C3_3 
REMARK    2  A    between atoms: C3_3  and  N1_4 
ROOT
HETATM    1  N1  UNL     1      26.959   7.949  48.795  1.00  0.00    -0.384 N 
HETATM    2  C4  UNL     1      28.351   7.830  48.329  1.00  0.00     0.075 C 
HETATM    3  C5  UNL     1      29.021   8.876  48.895  1.00  0.00     0.072 A 
HETATM    4  C6  UNL     1      29.712   9.911  49.149  1.00  0.00     0.099 A 
HETATM    5  C7  UNL     1      30.950   9.562  49.556  1.00  0.00     0.092 C 
HETATM    6  N2  UNL     1      31.177   9.121  48.252  1.00  0.00    -0.379 N 
HETATM    7  C8  UNL     1      32.393   8.388  47.949  1.00  0.00     0.150 C 
HETATM    8  C9  UNL     1      29.905   9.753  47.959  1.00  0.00     0.096 A 
HETATM    9  C10 UNL     1      29.628   9.538  46.498  1.00  0.00     0.040 C 
HETATM   10 CL1  UNL     1      30.151   7.975  45.867  1.00  0.00    -0.086 Cl
HETATM   11  C11 UNL     1      29.038  10.565  45.839  1.00  0.00     0.015 C 
HETATM   12  C12 UNL     1      28.407  11.831  45.415  1.00  0.00     0.147 C 
HETATM   13  N3  UNL     1      28.249  12.697  46.541  1.00  0.00    -0.395 N 
HETATM   14  C13 UNL     1      28.323  13.598  47.707  1.00  0.00     0.097 C 
HETATM   15  C14 UNL     1      28.088  12.997  48.968  1.00  0.00     0.016 C 
HETATM   16  C15 UNL     1      28.596  11.859  48.772  1.00  0.00     0.037 C 
HETATM   17  C16 UNL     1      29.884  11.248  48.097  1.00  0.00     0.089 C 
HETATM   18  C17 UNL     1      30.953  11.798  48.960  1.00  0.00     0.021 C 
HETATM   19  N4  UNL     1      28.434  10.586  48.784  1.00  0.00    -0.302 N 
HETATM   20  C18 UNL     1      26.934  10.385  48.797  1.00  0.00     0.243 C 
HETATM   21  O1  UNL     1      26.308  11.503  48.710  1.00  0.00    -0.271 OA
HETATM   22  C19 UNL     1      26.063   9.124  48.906  1.00  0.00     0.225 C 
HETATM   23  H16 UNL     1      27.202  12.875  46.670  1.00  0.00     0.159 HD
ENDROOT
BRANCH   1  24
HETATM   24  C3  UNL     1      26.448   6.682  49.145  1.00  0.00     0.122 C 
BRANCH  24  25
HETATM   25  C2  UNL     1      27.155   5.486  48.652  1.00  0.00     0.015 C 
HETATM   26  C1  UNL     1      26.683   4.234  49.325  1.00  0.00     0.006 C 
ENDBRANCH  24  25
ENDBRANCH   1  24
TORSDOF 2
ENDMDL
MODEL 7
REMARK VINA RESULT:      -6.8      2.145      5.384
REMARK  2 active torsions:
REMARK  status: ('A' for Active; 'I' for Inactive)
REMARK    1  A    between atoms: C2_2  and  C3_3 
REMARK    2  A    between atoms: C3_3  and  N1_4 
ROOT
HETATM    1  N1  UNL     1      24.207   5.041  49.039  1.00  0.00    -0.384 N 
HETATM    2  C4  UNL     1      24.489   4.687  50.440  1.00  0.00     0.075 C 
HETATM    3  C5  UNL     1      24.265   3.343  50.533  1.00  0.00     0.072 A 
HETATM    4  C6  UNL     1      23.876   2.170  50.828  1.00  0.00     0.099 A 
HETATM    5  C7  UNL     1      24.785   1.557  51.614  1.00  0.00     0.092 C 
HETATM    6  N2  UNL     1      24.430   2.464  52.612  1.00  0.00    -0.379 N 
HETATM    7  C8  UNL     1      25.203   2.512  53.840  1.00  0.00     0.150 C 
HETATM    8  C9  UNL     1      23.365   2.844  51.702  1.00  0.00     0.096 A 
HETATM    9  C10 UNL     1      22.583   3.941  52.367  1.00  0.00     0.040 C 
HETATM   10 CL1  UNL     1      23.549   5.068  53.320  1.00  0.00    -0.086 Cl
HETATM   11  C11 UNL     1      21.240   3.922  52.178  1.00  0.00     0.015 C 
HETATM   12  C12 UNL     1      19.844   3.635  51.793  1.00  0.00     0.147 C 
HETATM   13  N3  UNL     1      19.804   2.512  50.911  1.00  0.00    -0.395 N 
HETATM   14  C13 UNL     1      19.839   1.227  50.187  1.00  0.00     0.097 C 
HETATM   15  C14 UNL     1      20.939   1.037  49.316  1.00  0.00     0.016 C 
HETATM   16  C15 UNL     1      21.839   1.647  49.956  1.00  0.00     0.037 C 
HETATM   17  C16 UNL     1      22.330   1.787  51.449  1.00  0.00     0.089 C 
HETATM   18  C17 UNL     1      22.780   0.407  51.736  1.00  0.00     0.021 C 
HETATM   19  N4  UNL     1      22.737   2.564  49.952  1.00  0.00    -0.302 N 
HETATM   20  C18 UNL     1      22.392   3.439  48.764  1.00  0.00     0.243 C 
HETATM   21  O1  UNL     1      21.304   3.059  48.200  1.00  0.00    -0.271 OA
HETATM   22  C19 UNL     1      23.100   4.648  48.135  1.00  0.00     0.225 C 
HETATM   23  H16 UNL     1      19.398   2.843  49.978  1.00  0.00     0.159 HD
ENDROOT
BRANCH   1  24
HETATM   24  C3  UNL     1      25.179   5.941  48.555  1.00  0.00     0.122 C 
BRANCH  24  25
HETATM   25  C2  UNL     1      26.490   5.979  49.230  1.00  0.00     0.015 C 
HETATM   26  C1  UNL     1      27.491   5.083  48.572  1.00  0.00     0.006 C 
ENDBRANCH  24  25
ENDBRANCH   1  24
TORSDOF 2
ENDMDL
MODEL 8
REMARK VINA RESULT:      -6.7      9.786     11.601
REMARK  2 active torsions:
REMARK  status: ('A' for Active; 'I' for Inactive)
REMARK    1  A    between atoms: C2_2  and  C3_3 
REMARK    2  A    between atoms: C3_3  and  N1_4 
ROOT
HETATM    1  N1  UNL     1      32.234   4.153  46.485  1.00  0.00    -0.384 N 
HETATM    2  C4  UNL     1      31.562   5.073  47.417  1.00  0.00     0.075 C 
HETATM    3  C5  UNL     1      31.362   6.228  46.717  1.00  0.00     0.072 A 
HETATM    4  C6  UNL     1      31.321   7.420  46.282  1.00  0.00     0.099 A 
HETATM    5  C7  UNL     1      30.124   7.981  46.557  1.00  0.00     0.092 C 
HETATM    6  N2  UNL     1      30.499   7.954  47.900  1.00  0.00    -0.379 N 
HETATM    7  C8  UNL     1      29.525   8.296  48.919  1.00  0.00     0.150 C 
HETATM    8  C9  UNL     1      31.800   7.562  47.390  1.00  0.00     0.096 A 
HETATM    9  C10 UNL     1      32.702   7.367  48.576  1.00  0.00     0.040 C 
HETATM   10 CL1  UNL     1      31.918   6.670  49.995  1.00  0.00    -0.086 Cl
HETATM   11  C11 UNL     1      33.988   7.766  48.427  1.00  0.00     0.015 C 
HETATM   12  C12 UNL     1      35.291   8.284  47.963  1.00  0.00     0.147 C 
HETATM   13  N3  UNL     1      35.196   8.680  46.593  1.00  0.00    -0.395 N 
HETATM   14  C13 UNL     1      34.950   9.258  45.258  1.00  0.00     0.097 C 
HETATM   15  C14 UNL     1      34.060   8.536  44.426  1.00  0.00     0.016 C 
HETATM   16  C15 UNL     1      33.258   8.089  45.291  1.00  0.00     0.037 C 
HETATM   17  C16 UNL     1      32.515   8.606  46.583  1.00  0.00     0.089 C 
HETATM   18  C17 UNL     1      31.633   9.649  46.012  1.00  0.00     0.021 C 
HETATM   19  N4  UNL     1      32.688   7.062  45.809  1.00  0.00    -0.302 N 
HETATM   20  C18 UNL     1      33.521   5.884  45.353  1.00  0.00     0.243 C 
HETATM   21  O1  UNL     1      34.549   6.264  44.685  1.00  0.00    -0.271 OA
HETATM   22  C19 UNL     1      33.349   4.368  45.533  1.00  0.00     0.225 C 
HETATM   23  H16 UNL     1      35.875   8.075  46.030  1.00  0.00     0.159 HD
ENDROOT
BRANCH   1  24
HETATM   24  C3  UNL     1      31.694   2.855  46.601  1.00  0.00     0.122 C 
BRANCH  24  25
HETATM   25  C2  UNL     1      32.609   1.746  46.929  1.00  0.00     0.015 C 
HETATM   26  C1  UNL     1      31.994   0.408  46.658  1.00  0.00     0.006 C 
ENDBRANCH  24  25
ENDBRANCH   1  24
TORSDOF 2
ENDMDL
MODEL 9
REMARK VINA RESULT:      -6.2      2.902      5.560
REMARK  2 active torsions:
REMARK  status: ('A' for Active; 'I' for Inactive)
REMARK    1  A    between atoms: C2_2  and  C3_3 
REMARK    2  A    between atoms: C3_3  and  N1_4 
ROOT
HETATM    1  N1  UNL     1      25.982   5.364  48.877  1.00  0.00    -0.384 N 
HETATM    2  C4  UNL     1      25.273   4.369  49.699  1.00  0.00     0.075 C 
HETATM    3  C5  UNL     1      24.136   4.062  49.008  1.00  0.00     0.072 A 
HETATM    4  C6  UNL     1      22.948   3.856  48.609  1.00  0.00     0.099 A 
HETATM    5  C7  UNL     1      22.650   2.541  48.678  1.00  0.00     0.092 C 
HETATM    6  N2  UNL     1      22.691   2.677  50.065  1.00  0.00    -0.379 N 
HETATM    7  C8  UNL     1      22.612   1.493  50.900  1.00  0.00     0.150 C 
HETATM    8  C9  UNL     1      22.789   4.098  49.789  1.00  0.00     0.096 A 
HETATM    9  C10 UNL     1      22.882   4.803  51.113  1.00  0.00     0.040 C 
HETATM   10 CL1  UNL     1      23.810   3.945  52.345  1.00  0.00    -0.086 Cl
HETATM   11  C11 UNL     1      22.232   5.988  51.211  1.00  0.00     0.015 C 
HETATM   12  C12 UNL     1      21.442   7.219  51.007  1.00  0.00     0.147 C 
HETATM   13  N3  UNL     1      20.982   7.282  49.655  1.00  0.00    -0.395 N 
HETATM   14  C13 UNL     1      20.377   7.157  48.316  1.00  0.00     0.097 C 
HETATM   15  C14 UNL     1      21.202   6.589  47.315  1.00  0.00     0.016 C 
HETATM   16  C15 UNL     1      21.852   5.757  48.006  1.00  0.00     0.037 C 
HETATM   17  C16 UNL     1      21.575   4.714  49.156  1.00  0.00     0.089 C 
HETATM   18  C17 UNL     1      20.688   3.751  48.466  1.00  0.00     0.021 C 
HETATM   19  N4  UNL     1      23.002   5.327  48.381  1.00  0.00    -0.302 N 
HETATM   20  C18 UNL     1      23.964   6.448  48.049  1.00  0.00     0.243 C 
HETATM   21  O1  UNL     1      23.348   7.477  47.590  1.00  0.00    -0.271 OA
HETATM   22  C19 UNL     1      25.493   6.559  48.150  1.00  0.00     0.225 C 
HETATM   23  H16 UNL     1      21.407   8.156  49.207  1.00  0.00     0.159 HD
ENDROOT
BRANCH   1  24
HETATM   24  C3  UNL     1      27.365   5.086  48.854  1.00  0.00     0.122 C 
BRANCH  24  25
HETATM   25  C2  UNL     1      28.269   6.098  48.277  1.00  0.00     0.015 C 
HETATM   26  C1  UNL     1      29.655   5.567  48.077  1.00  0.00     0.006 C 
ENDBRANCH  24  25
ENDBRANCH   1  24
TORSDOF 2
ENDMDL
