MODEL 1
REMARK VINA RESULT:      -9.3      0.000      0.000
REMARK  4 active torsions:
REMARK  status: ('A' for Active; 'I' for Inactive)
REMARK    1  A    between atoms: C7_7  and  N1_8 
REMARK    2  A    between atoms: C10_11  and  N2_12 
REMARK    3  A    between atoms: N2_12  and  C11_13 
REMARK    4  A    between atoms: C17_21  and  C18_22 
REMARK       I    between atoms: C18_22  and  N5_23 
ROOT
HETATM    1  C11 UNL     1      25.730   4.750  49.592  1.00  0.00     0.723 A 
HETATM    2  N3  UNL     1      26.799   4.119  49.071  1.00  0.00    -0.075 NA
HETATM    3  C12 UNL     1      27.862   4.802  48.561  1.00  0.00     0.146 A 
HETATM    4  C13 UNL     1      27.875   6.182  48.564  1.00  0.00    -0.008 A 
HETATM    5  C14 UNL     1      26.787   6.827  49.094  1.00  0.00     0.112 A 
HETATM    6  N4  UNL     1      25.769   6.095  49.581  1.00  0.00    -0.060 NA
HETATM    7  C15 UNL     1      26.783   8.286  49.104  1.00  0.00     0.091 A 
HETATM    8  C16 UNL     1      27.889   8.933  48.573  1.00  0.00     0.009 A 
HETATM    9  C17 UNL     1      27.620  10.273  48.712  1.00  0.00     0.153 A 
HETATM   10  N6  UNL     1      26.414  10.376  49.296  1.00  0.00    -0.166 NA
HETATM   11  N7  UNL     1      25.888   9.188  49.543  1.00  0.00    -0.271 N 
HETATM   12  C19 UNL     1      24.623   8.824  50.153  1.00  0.00     0.180 C 
HETATM   13  C20 UNL     1      29.075   8.304  47.996  1.00  0.00     0.048 A 
HETATM   14  C21 UNL     1      29.060   6.821  47.994  1.00  0.00     0.047 A 
ENDROOT
BRANCH   1  15
HETATM   15  N2  UNL     1      24.629   4.018  50.120  1.00  0.00    -0.216 N 
HETATM   16  H15 UNL     1      23.727   4.056  49.570  1.00  0.00     0.178 HD
BRANCH  15  17
HETATM   17  C10 UNL     1      24.795   3.285  51.341  1.00  0.00     0.129 C 
HETATM   18  C9  UNL     1      23.719   3.785  52.301  1.00  0.00     0.057 C 
HETATM   19  C8  UNL     1      22.666   2.701  52.185  1.00  0.00     0.275 C 
HETATM   20  N1  UNL     1      23.369   1.482  51.896  1.00  0.00     0.095 N 
HETATM   21  C22 UNL     1      24.588   1.801  51.221  1.00  0.00     0.298 C 
BRANCH  20  22
HETATM   22  C7  UNL     1      23.479   0.569  52.990  1.00  0.00     0.230 C 
HETATM   23  C6  UNL     1      24.915   0.110  53.066  1.00  0.00     0.063 C 
HETATM   24  C5  UNL     1      25.252  -0.458  54.394  1.00  0.00    -0.025 C 
HETATM   25  C4  UNL     1      24.556  -1.075  55.313  1.00  0.00    -0.004 C 
HETATM   26  C3  UNL     1      23.113  -1.371  55.208  1.00  0.00     0.002 C 
HETATM   27  C2  UNL     1      22.219  -1.188  54.225  1.00  0.00    -0.082 C 
HETATM   28  C1  UNL     1      20.802  -1.607  54.445  1.00  0.00     0.043 C 
HETATM   29  C23 UNL     1      22.517  -0.590  52.899  1.00  0.00     0.069 C 
ENDBRANCH  20  22
ENDBRANCH  15  17
ENDBRANCH   1  15
BRANCH   9  30
HETATM   30  C18 UNL     1      28.453  11.397  48.316  1.00  0.00     0.270 C 
HETATM   31  N5  UNL     1      29.216  12.114  49.249  1.00  0.00    -0.365 N 
HETATM   32  H17 UNL     1      29.802  11.899  50.089  1.00  0.00     0.159 HD
HETATM   33  H18 UNL     1      29.383  13.138  49.316  1.00  0.00     0.159 HD
HETATM   34  O1  UNL     1      28.527  11.774  47.121  1.00  0.00    -0.266 OA
ENDBRANCH   9  30
TORSDOF 4
ENDMDL
MODEL 2
REMARK VINA RESULT:      -9.1      4.633      8.871
REMARK  4 active torsions:
REMARK  status: ('A' for Active; 'I' for Inactive)
REMARK    1  A    between atoms: C7_7  and  N1_8 
REMARK    2  A    between atoms: C10_11  and  N2_12 
REMARK    3  A    between atoms: N2_12  and  C11_13 
REMARK    4  A    between atoms: C17_21  and  C18_22 
REMARK       I    between atoms: C18_22  and  N5_23 
ROOT
HETATM    1  C11 UNL     1      22.526   0.989  51.481  1.00  0.00     0.723 A 
HETATM    2  N3  UNL     1      22.145   0.059  52.376  1.00  0.00    -0.075 NA
HETATM    3  C12 UNL     1      22.995  -0.419  53.327  1.00  0.00     0.146 A 
HETATM    4  C13 UNL     1      24.293   0.044  53.403  1.00  0.00    -0.008 A 
HETATM    5  C14 UNL     1      24.685   0.990  52.492  1.00  0.00     0.112 A 
HETATM    6  N4  UNL     1      23.797   1.421  51.577  1.00  0.00    -0.060 NA
HETATM    7  C15 UNL     1      26.054   1.489  52.556  1.00  0.00     0.091 A 
HETATM    8  C16 UNL     1      26.879   0.970  53.543  1.00  0.00     0.009 A 
HETATM    9  C17 UNL     1      28.085   1.608  53.373  1.00  0.00     0.153 A 
HETATM   10  N6  UNL     1      27.944   2.449  52.334  1.00  0.00    -0.166 NA
HETATM   11  N7  UNL     1      26.725   2.396  51.824  1.00  0.00    -0.271 N 
HETATM   12  C19 UNL     1      26.134   3.118  50.713  1.00  0.00     0.180 C 
HETATM   13  C20 UNL     1      26.521  -0.036  54.540  1.00  0.00     0.048 A 
HETATM   14  C21 UNL     1      25.126  -0.532  54.458  1.00  0.00     0.047 A 
ENDROOT
BRANCH   1  15
HETATM   15  N2  UNL     1      21.623   1.476  50.494  1.00  0.00    -0.216 N 
HETATM   16  H15 UNL     1      20.594   1.320  50.675  1.00  0.00     0.178 HD
BRANCH  15  17
HETATM   17  C10 UNL     1      22.143   2.136  49.333  1.00  0.00     0.129 C 
HETATM   18  C9  UNL     1      21.338   1.625  48.141  1.00  0.00     0.057 C 
HETATM   19  C8  UNL     1      20.346   2.751  47.926  1.00  0.00     0.275 C 
HETATM   20  N1  UNL     1      21.006   3.958  48.341  1.00  0.00     0.095 N 
HETATM   21  C22 UNL     1      21.985   3.631  49.331  1.00  0.00     0.298 C 
BRANCH  20  22
HETATM   22  C7  UNL     1      21.447   4.807  47.280  1.00  0.00     0.230 C 
HETATM   23  C6  UNL     1      21.465   3.989  46.011  1.00  0.00     0.063 C 
HETATM   24  C5  UNL     1      21.456   4.838  44.796  1.00  0.00    -0.025 C 
HETATM   25  C4  UNL     1      21.895   6.042  44.535  1.00  0.00    -0.004 C 
HETATM   26  C3  UNL     1      22.574   6.912  45.516  1.00  0.00     0.002 C 
HETATM   27  C2  UNL     1      22.965   6.718  46.784  1.00  0.00    -0.082 C 
HETATM   28  C1  UNL     1      23.641   7.831  47.515  1.00  0.00     0.043 C 
HETATM   29  C23 UNL     1      22.779   5.460  47.552  1.00  0.00     0.069 C 
ENDBRANCH  20  22
ENDBRANCH  15  17
ENDBRANCH   1  15
BRANCH   9  30
HETATM   30  C18 UNL     1      29.303   1.433  54.146  1.00  0.00     0.270 C 
HETATM   31  N5  UNL     1      30.257   0.462  53.808  1.00  0.00    -0.365 N 
HETATM   32  H17 UNL     1      30.686   0.078  52.933  1.00  0.00     0.159 HD
HETATM   33  H18 UNL     1      30.811  -0.162  54.429  1.00  0.00     0.159 HD
HETATM   34  O1  UNL     1      29.556   2.145  55.148  1.00  0.00    -0.266 OA
ENDBRANCH   9  30
TORSDOF 4
ENDMDL
MODEL 3
REMARK VINA RESULT:      -9.0      5.192      8.662
REMARK  4 active torsions:
REMARK  status: ('A' for Active; 'I' for Inactive)
REMARK    1  A    between atoms: C7_7  and  N1_8 
REMARK    2  A    between atoms: C10_11  and  N2_12 
REMARK    3  A    between atoms: N2_12  and  C11_13 
REMARK    4  A    between atoms: C17_21  and  C18_22 
REMARK       I    between atoms: C18_22  and  N5_23 
ROOT
HETATM    1  C11 UNL     1      22.215   0.771  51.741  1.00  0.00     0.723 A 
HETATM    2  N3  UNL     1      21.940  -0.177  52.658  1.00  0.00    -0.075 NA
HETATM    3  C12 UNL     1      22.878  -0.620  53.540  1.00  0.00     0.146 A 
HETATM    4  C13 UNL     1      24.157  -0.104  53.522  1.00  0.00    -0.008 A 
HETATM    5  C14 UNL     1      24.440   0.861  52.590  1.00  0.00     0.112 A 
HETATM    6  N4  UNL     1      23.470   1.256  51.746  1.00  0.00    -0.060 NA
HETATM    7  C15 UNL     1      25.788   1.418  52.556  1.00  0.00     0.091 A 
HETATM    8  C16 UNL     1      26.705   0.931  53.476  1.00  0.00     0.009 A 
HETATM    9  C17 UNL     1      27.867   1.620  53.221  1.00  0.00     0.153 A 
HETATM   10  N6  UNL     1      27.614   2.457  52.200  1.00  0.00    -0.166 NA
HETATM   11  N7  UNL     1      26.364   2.354  51.781  1.00  0.00    -0.271 N 
HETATM   12  C19 UNL     1      25.663   3.053  50.721  1.00  0.00     0.180 C 
HETATM   13  C20 UNL     1      26.465  -0.092  54.490  1.00  0.00     0.048 A 
HETATM   14  C21 UNL     1      25.090  -0.647  54.509  1.00  0.00     0.047 A 
ENDROOT
BRANCH   1  15
HETATM   15  N2  UNL     1      21.221   1.222  50.827  1.00  0.00    -0.216 N 
HETATM   16  H15 UNL     1      21.558   1.532  49.875  1.00  0.00     0.178 HD
BRANCH  15  17
HETATM   17  C10 UNL     1      19.847   1.231  51.234  1.00  0.00     0.129 C 
HETATM   18  C9  UNL     1      19.679   2.416  52.181  1.00  0.00     0.057 C 
HETATM   19  C8  UNL     1      19.068   3.462  51.269  1.00  0.00     0.275 C 
HETATM   20  N1  UNL     1      18.295   2.747  50.292  1.00  0.00     0.095 N 
HETATM   21  C22 UNL     1      18.859   1.444  50.122  1.00  0.00     0.298 C 
BRANCH  20  22
HETATM   22  C7  UNL     1      16.879   2.798  50.480  1.00  0.00     0.230 C 
HETATM   23  C6  UNL     1      16.231   2.756  49.118  1.00  0.00     0.063 C 
HETATM   24  C5  UNL     1      14.807   2.347  49.187  1.00  0.00    -0.025 C 
HETATM   25  C4  UNL     1      13.878   2.469  50.099  1.00  0.00    -0.004 C 
HETATM   26  C3  UNL     1      14.078   3.117  51.410  1.00  0.00     0.002 C 
HETATM   27  C2  UNL     1      15.120   3.764  51.954  1.00  0.00    -0.082 C 
HETATM   28  C1  UNL     1      14.993   4.313  53.337  1.00  0.00     0.043 C 
HETATM   29  C23 UNL     1      16.428   3.990  51.286  1.00  0.00     0.069 C 
ENDBRANCH  20  22
ENDBRANCH  15  17
ENDBRANCH   1  15
BRANCH   9  30
HETATM   30  C18 UNL     1      29.146   1.495  53.900  1.00  0.00     0.270 C 
HETATM   31  N5  UNL     1      30.121   0.583  53.473  1.00  0.00    -0.365 N 
HETATM   32  H17 UNL     1      30.504   0.239  52.561  1.00  0.00     0.159 HD
HETATM   33  H18 UNL     1      30.750  -0.023  54.037  1.00  0.00     0.159 HD
HETATM   34  O1  UNL     1      29.434   2.200  54.898  1.00  0.00    -0.266 OA
ENDBRANCH   9  30
TORSDOF 4
ENDMDL
MODEL 4
REMARK VINA RESULT:      -8.9      2.324      3.591
REMARK  4 active torsions:
REMARK  status: ('A' for Active; 'I' for Inactive)
REMARK    1  A    between atoms: C7_7  and  N1_8 
REMARK    2  A    between atoms: C10_11  and  N2_12 
REMARK    3  A    between atoms: N2_12  and  C11_13 
REMARK    4  A    between atoms: C17_21  and  C18_22 
REMARK       I    between atoms: C18_22  and  N5_23 
ROOT
HETATM    1  C11 UNL     1      23.106   5.800  49.280  1.00  0.00     0.723 A 
HETATM    2  N3  UNL     1      22.732   7.028  48.872  1.00  0.00    -0.075 NA
HETATM    3  C12 UNL     1      23.626   7.926  48.372  1.00  0.00     0.146 A 
HETATM    4  C13 UNL     1      24.962   7.600  48.266  1.00  0.00    -0.008 A 
HETATM    5  C14 UNL     1      25.347   6.351  48.682  1.00  0.00     0.112 A 
HETATM    6  N4  UNL     1      24.415   5.510  49.167  1.00  0.00    -0.060 NA
HETATM    7  C15 UNL     1      26.756   5.990  48.578  1.00  0.00     0.091 A 
HETATM    8  C16 UNL     1      27.624   6.941  48.062  1.00  0.00     0.009 A 
HETATM    9  C17 UNL     1      28.861   6.342  48.079  1.00  0.00     0.153 A 
HETATM   10  N6  UNL     1      28.695   5.107  48.584  1.00  0.00    -0.166 NA
HETATM   11  N7  UNL     1      27.432   4.871  48.893  1.00  0.00    -0.271 N 
HETATM   12  C19 UNL     1      26.802   3.691  49.455  1.00  0.00     0.180 C 
HETATM   13  C20 UNL     1      27.277   8.283  47.605  1.00  0.00     0.048 A 
HETATM   14  C21 UNL     1      25.840   8.633  47.718  1.00  0.00     0.047 A 
ENDROOT
BRANCH   1  15
HETATM   15  N2  UNL     1      22.157   4.876  49.800  1.00  0.00    -0.216 N 
HETATM   16  H15 UNL     1      21.224   4.827  49.307  1.00  0.00     0.178 HD
BRANCH  15  17
HETATM   17  C10 UNL     1      22.507   4.078  50.938  1.00  0.00     0.129 C 
HETATM   18  C9  UNL     1      21.384   4.252  51.957  1.00  0.00     0.057 C 
HETATM   19  C8  UNL     1      20.569   2.992  51.744  1.00  0.00     0.275 C 
HETATM   20  N1  UNL     1      21.495   1.976  51.326  1.00  0.00     0.095 N 
HETATM   21  C22 UNL     1      22.602   2.602  50.672  1.00  0.00     0.298 C 
BRANCH  20  22
HETATM   22  C7  UNL     1      21.823   1.004  52.321  1.00  0.00     0.230 C 
HETATM   23  C6  UNL     1      20.752   1.053  53.383  1.00  0.00     0.063 C 
HETATM   24  C5  UNL     1      20.722  -0.181  54.206  1.00  0.00    -0.025 C 
HETATM   25  C4  UNL     1      21.632  -1.054  54.554  1.00  0.00    -0.004 C 
HETATM   26  C3  UNL     1      23.050  -0.985  54.151  1.00  0.00     0.002 C 
HETATM   27  C2  UNL     1      23.755  -0.075  53.462  1.00  0.00    -0.082 C 
HETATM   28  C1  UNL     1      25.209  -0.314  53.220  1.00  0.00     0.043 C 
HETATM   29  C23 UNL     1      23.205   1.184  52.898  1.00  0.00     0.069 C 
ENDBRANCH  20  22
ENDBRANCH  15  17
ENDBRANCH   1  15
BRANCH   9  30
HETATM   30  C18 UNL     1      30.130   6.902  47.645  1.00  0.00     0.270 C 
HETATM   31  N5  UNL     1      31.128   7.265  48.562  1.00  0.00    -0.365 N 
HETATM   32  H17 UNL     1      31.531   6.883  49.449  1.00  0.00     0.159 HD
HETATM   33  H18 UNL     1      31.756   8.093  48.559  1.00  0.00     0.159 HD
HETATM   34  O1  UNL     1      30.391   7.083  46.431  1.00  0.00    -0.266 OA
ENDBRANCH   9  30
TORSDOF 4
ENDMDL
MODEL 5
REMARK VINA RESULT:      -8.8      3.568      9.290
REMARK  4 active torsions:
REMARK  status: ('A' for Active; 'I' for Inactive)
REMARK    1  A    between atoms: C7_7  and  N1_8 
REMARK    2  A    between atoms: C10_11  and  N2_12 
REMARK    3  A    between atoms: N2_12  and  C11_13 
REMARK    4  A    between atoms: C17_21  and  C18_22 
REMARK       I    between atoms: C18_22  and  N5_23 
ROOT
HETATM    1  C11 UNL     1      22.274   3.271  51.728  1.00  0.00     0.723 A 
HETATM    2  N3  UNL     1      21.369   2.551  52.419  1.00  0.00    -0.075 NA
HETATM    3  C12 UNL     1      21.698   1.387  53.044  1.00  0.00     0.146 A 
HETATM    4  C13 UNL     1      22.989   0.902  52.989  1.00  0.00    -0.008 A 
HETATM    5  C14 UNL     1      23.912   1.631  52.286  1.00  0.00     0.112 A 
HETATM    6  N4  UNL     1      23.524   2.774  51.690  1.00  0.00    -0.060 NA
HETATM    7  C15 UNL     1      25.281   1.133  52.216  1.00  0.00     0.091 A 
HETATM    8  C16 UNL     1      25.564  -0.057  52.870  1.00  0.00     0.009 A 
HETATM    9  C17 UNL     1      26.901  -0.282  52.642  1.00  0.00     0.153 A 
HETATM   10  N6  UNL     1      27.350   0.738  51.891  1.00  0.00    -0.166 NA
HETATM   11  N7  UNL     1      26.390   1.607  51.620  1.00  0.00    -0.271 N 
HETATM   12  C19 UNL     1      26.420   2.839  50.855  1.00  0.00     0.180 C 
HETATM   13  C20 UNL     1      24.627  -0.877  53.633  1.00  0.00     0.048 A 
HETATM   14  C21 UNL     1      23.240  -0.356  53.692  1.00  0.00     0.047 A 
ENDROOT
BRANCH   1  15
HETATM   15  N2  UNL     1      21.911   4.485  51.081  1.00  0.00    -0.216 N 
HETATM   16  H15 UNL     1      20.959   4.881  51.315  1.00  0.00     0.178 HD
BRANCH  15  17
HETATM   17  C10 UNL     1      22.830   5.094  50.165  1.00  0.00     0.129 C 
HETATM   18  C9  UNL     1      22.256   6.463  49.813  1.00  0.00     0.057 C 
HETATM   19  C8  UNL     1      23.061   7.381  50.710  1.00  0.00     0.275 C 
HETATM   20  N1  UNL     1      24.348   6.763  50.874  1.00  0.00     0.095 N 
HETATM   21  C22 UNL     1      24.203   5.349  50.723  1.00  0.00     0.298 C 
BRANCH  20  22
HETATM   22  C7  UNL     1      25.411   7.367  50.134  1.00  0.00     0.230 C 
HETATM   23  C6  UNL     1      24.921   8.701  49.626  1.00  0.00     0.063 C 
HETATM   24  C5  UNL     1      26.037   9.603  49.252  1.00  0.00    -0.025 C 
HETATM   25  C4  UNL     1      27.253   9.399  48.816  1.00  0.00    -0.004 C 
HETATM   26  C3  UNL     1      27.839   8.066  48.575  1.00  0.00     0.002 C 
HETATM   27  C2  UNL     1      27.333   6.826  48.646  1.00  0.00    -0.082 C 
HETATM   28  C1  UNL     1      28.216   5.662  48.334  1.00  0.00     0.043 C 
HETATM   29  C23 UNL     1      25.935   6.493  49.022  1.00  0.00     0.069 C 
ENDBRANCH  20  22
ENDBRANCH  15  17
ENDBRANCH   1  15
BRANCH   9  30
HETATM   30  C18 UNL     1      27.710  -1.397  53.105  1.00  0.00     0.270 C 
HETATM   31  N5  UNL     1      28.850  -1.201  53.898  1.00  0.00    -0.365 N 
HETATM   32  H17 UNL     1      29.133  -0.586  54.696  1.00  0.00     0.159 HD
HETATM   33  H18 UNL     1      29.771  -1.681  53.859  1.00  0.00     0.159 HD
HETATM   34  O1  UNL     1      27.424  -2.584  52.816  1.00  0.00    -0.266 OA
ENDBRANCH   9  30
TORSDOF 4
ENDMDL
MODEL 6
REMARK VINA RESULT:      -8.8      5.285      8.254
REMARK  4 active torsions:
REMARK  status: ('A' for Active; 'I' for Inactive)
REMARK    1  A    between atoms: C7_7  and  N1_8 
REMARK    2  A    between atoms: C10_11  and  N2_12 
REMARK    3  A    between atoms: N2_12  and  C11_13 
REMARK    4  A    between atoms: C17_21  and  C18_22 
REMARK       I    between atoms: C18_22  and  N5_23 
ROOT
HETATM    1  C11 UNL     1      22.033   2.802  50.521  1.00  0.00     0.723 A 
HETATM    2  N3  UNL     1      22.858   3.608  49.826  1.00  0.00    -0.075 NA
HETATM    3  C12 UNL     1      24.212   3.543  49.959  1.00  0.00     0.146 A 
HETATM    4  C13 UNL     1      24.789   2.634  50.822  1.00  0.00    -0.008 A 
HETATM    5  C14 UNL     1      23.952   1.812  51.532  1.00  0.00     0.112 A 
HETATM    6  N4  UNL     1      22.623   1.926  51.356  1.00  0.00    -0.060 NA
HETATM    7  C15 UNL     1      24.544   0.846  52.450  1.00  0.00     0.091 A 
HETATM    8  C16 UNL     1      25.928   0.820  52.547  1.00  0.00     0.009 A 
HETATM    9  C17 UNL     1      26.203  -0.165  53.465  1.00  0.00     0.153 A 
HETATM   10  N6  UNL     1      25.025  -0.672  53.866  1.00  0.00    -0.166 NA
HETATM   11  N7  UNL     1      24.007  -0.077  53.267  1.00  0.00    -0.271 N 
HETATM   12  C19 UNL     1      22.579  -0.296  53.391  1.00  0.00     0.180 C 
HETATM   13  C20 UNL     1      26.870   1.667  51.820  1.00  0.00     0.048 A 
HETATM   14  C21 UNL     1      26.249   2.644  50.892  1.00  0.00     0.047 A 
ENDROOT
BRANCH   1  15
HETATM   15  N2  UNL     1      20.621   2.886  50.369  1.00  0.00    -0.216 N 
HETATM   16  H15 UNL     1      20.261   3.566  49.646  1.00  0.00     0.178 HD
BRANCH  15  17
HETATM   17  C10 UNL     1      19.778   2.063  51.186  1.00  0.00     0.129 C 
HETATM   18  C9  UNL     1      18.454   2.806  51.338  1.00  0.00     0.057 C 
HETATM   19  C8  UNL     1      17.581   2.105  50.316  1.00  0.00     0.275 C 
HETATM   20  N1  UNL     1      18.052   0.750  50.242  1.00  0.00     0.095 N 
HETATM   21  C22 UNL     1      19.437   0.723  50.595  1.00  0.00     0.298 C 
BRANCH  20  22
HETATM   22  C7  UNL     1      17.222  -0.219  50.886  1.00  0.00     0.230 C 
HETATM   23  C6  UNL     1      15.787   0.219  50.719  1.00  0.00     0.063 C 
HETATM   24  C5  UNL     1      14.832  -0.896  50.928  1.00  0.00    -0.025 C 
HETATM   25  C4  UNL     1      14.866  -1.988  51.647  1.00  0.00    -0.004 C 
HETATM   26  C3  UNL     1      15.999  -2.386  52.505  1.00  0.00     0.002 C 
HETATM   27  C2  UNL     1      17.153  -1.781  52.824  1.00  0.00    -0.082 C 
HETATM   28  C1  UNL     1      18.108  -2.473  53.741  1.00  0.00     0.043 C 
HETATM   29  C23 UNL     1      17.582  -0.446  52.333  1.00  0.00     0.069 C 
ENDBRANCH  20  22
ENDBRANCH  15  17
ENDBRANCH   1  15
BRANCH   9  30
HETATM   30  C18 UNL     1      27.505  -0.605  53.939  1.00  0.00     0.270 C 
HETATM   31  N5  UNL     1      28.267  -1.547  53.232  1.00  0.00    -0.365 N 
HETATM   32  H17 UNL     1      28.494  -1.756  52.231  1.00  0.00     0.159 HD
HETATM   33  H18 UNL     1      28.839  -2.337  53.592  1.00  0.00     0.159 HD
HETATM   34  O1  UNL     1      28.005  -0.161  55.001  1.00  0.00    -0.266 OA
ENDBRANCH   9  30
TORSDOF 4
ENDMDL
MODEL 7
REMARK VINA RESULT:      -8.8      6.769     10.885
REMARK  4 active torsions:
REMARK  status: ('A' for Active; 'I' for Inactive)
REMARK    1  A    between atoms: C7_7  and  N1_8 
REMARK    2  A    between atoms: C10_11  and  N2_12 
REMARK    3  A    between atoms: N2_12  and  C11_13 
REMARK    4  A    between atoms: C17_21  and  C18_22 
REMARK       I    between atoms: C18_22  and  N5_23 
ROOT
HETATM    1  C11 UNL     1      21.014   0.680  52.600  1.00  0.00     0.723 A 
HETATM    2  N3  UNL     1      21.048  -0.212  53.608  1.00  0.00    -0.075 NA
HETATM    3  C12 UNL     1      20.001  -1.042  53.873  1.00  0.00     0.146 A 
HETATM    4  C13 UNL     1      18.856  -0.994  53.104  1.00  0.00    -0.008 A 
HETATM    5  C14 UNL     1      18.818  -0.086  52.078  1.00  0.00     0.112 A 
HETATM    6  N4  UNL     1      19.885   0.707  51.868  1.00  0.00    -0.060 NA
HETATM    7  C15 UNL     1      17.615  -0.020  51.255  1.00  0.00     0.091 A 
HETATM    8  C16 UNL     1      16.578  -0.887  51.567  1.00  0.00     0.009 A 
HETATM    9  C17 UNL     1      15.594  -0.612  50.648  1.00  0.00     0.153 A 
HETATM   10  N6  UNL     1      16.058   0.368  49.854  1.00  0.00    -0.166 NA
HETATM   11  N7  UNL     1      17.277   0.743  50.201  1.00  0.00    -0.271 N 
HETATM   12  C19 UNL     1      18.153   1.751  49.633  1.00  0.00     0.180 C 
HETATM   13  C20 UNL     1      16.559  -1.873  52.644  1.00  0.00     0.048 A 
HETATM   14  C21 UNL     1      17.790  -1.925  53.470  1.00  0.00     0.047 A 
ENDROOT
BRANCH   1  15
HETATM   15  N2  UNL     1      22.118   1.539  52.340  1.00  0.00    -0.216 N 
HETATM   16  H15 UNL     1      21.916   2.576  52.314  1.00  0.00     0.178 HD
BRANCH  15  17
HETATM   17  C10 UNL     1      23.416   0.969  52.131  1.00  0.00     0.129 C 
HETATM   18  C9  UNL     1      24.248   2.025  51.409  1.00  0.00     0.057 C 
HETATM   19  C8  UNL     1      25.059   2.617  52.545  1.00  0.00     0.275 C 
HETATM   20  N1  UNL     1      25.254   1.559  53.497  1.00  0.00     0.095 N 
HETATM   21  C22 UNL     1      24.170   0.634  53.388  1.00  0.00     0.298 C 
BRANCH  20  22
HETATM   22  C7  UNL     1      26.565   0.991  53.515  1.00  0.00     0.230 C 
HETATM   23  C6  UNL     1      27.554   2.103  53.267  1.00  0.00     0.063 C 
HETATM   24  C5  UNL     1      28.924   1.743  53.707  1.00  0.00    -0.025 C 
HETATM   25  C4  UNL     1      29.570   0.611  53.808  1.00  0.00    -0.004 C 
HETATM   26  C3  UNL     1      29.000  -0.707  53.463  1.00  0.00     0.002 C 
HETATM   27  C2  UNL     1      27.825  -1.077  52.933  1.00  0.00    -0.082 C 
HETATM   28  C1  UNL     1      27.555  -2.529  52.707  1.00  0.00     0.043 C 
HETATM   29  C23 UNL     1      26.734  -0.148  52.540  1.00  0.00     0.069 C 
ENDBRANCH  20  22
ENDBRANCH  15  17
ENDBRANCH   1  15
BRANCH   9  30
HETATM   30  C18 UNL     1      14.288  -1.237  50.525  1.00  0.00     0.270 C 
HETATM   31  N5  UNL     1      14.047  -2.265  49.602  1.00  0.00    -0.365 N 
HETATM   32  H17 UNL     1      14.551  -3.110  49.244  1.00  0.00     0.159 HD
HETATM   33  H18 UNL     1      13.215  -2.430  49.000  1.00  0.00     0.159 HD
HETATM   34  O1  UNL     1      13.318  -0.885  51.240  1.00  0.00    -0.266 OA
ENDBRANCH   9  30
TORSDOF 4
ENDMDL
MODEL 8
REMARK VINA RESULT:      -8.7      6.290      9.396
REMARK  4 active torsions:
REMARK  status: ('A' for Active; 'I' for Inactive)
REMARK    1  A    between atoms: C7_7  and  N1_8 
REMARK    2  A    between atoms: C10_11  and  N2_12 
REMARK    3  A    between atoms: N2_12  and  C11_13 
REMARK    4  A    between atoms: C17_21  and  C18_22 
REMARK       I    between atoms: C18_22  and  N5_23 
ROOT
HETATM    1  C11 UNL     1      20.885   1.264  52.095  1.00  0.00     0.723 A 
HETATM    2  N3  UNL     1      21.295   2.127  51.146  1.00  0.00    -0.075 NA
HETATM    3  C12 UNL     1      22.615   2.383  50.926  1.00  0.00     0.146 A 
HETATM    4  C13 UNL     1      23.586   1.756  51.679  1.00  0.00    -0.008 A 
HETATM    5  C14 UNL     1      23.171   0.878  52.647  1.00  0.00     0.112 A 
HETATM    6  N4  UNL     1      21.853   0.669  52.816  1.00  0.00    -0.060 NA
HETATM    7  C15 UNL     1      24.184   0.208  53.455  1.00  0.00     0.091 A 
HETATM    8  C16 UNL     1      25.513   0.504  53.190  1.00  0.00     0.009 A 
HETATM    9  C17 UNL     1      26.233  -0.256  54.081  1.00  0.00     0.153 A 
HETATM   10  N6  UNL     1      25.347  -0.949  54.815  1.00  0.00    -0.166 NA
HETATM   11  N7  UNL     1      24.102  -0.686  54.456  1.00  0.00    -0.271 N 
HETATM   12  C19 UNL     1      22.843  -1.197  54.966  1.00  0.00     0.180 C 
HETATM   13  C20 UNL     1      26.017   1.427  52.176  1.00  0.00     0.048 A 
HETATM   14  C21 UNL     1      24.973   2.100  51.366  1.00  0.00     0.047 A 
ENDROOT
BRANCH   1  15
HETATM   15  N2  UNL     1      19.501   1.010  52.311  1.00  0.00    -0.216 N 
HETATM   16  H15 UNL     1      18.969   1.729  52.874  1.00  0.00     0.178 HD
BRANCH  15  17
HETATM   17  C10 UNL     1      18.914  -0.179  51.767  1.00  0.00     0.129 C 
HETATM   18  C9  UNL     1      18.606  -1.095  52.948  1.00  0.00     0.057 C 
HETATM   19  C8  UNL     1      17.122  -0.857  53.150  1.00  0.00     0.275 C 
HETATM   20  N1  UNL     1      16.580  -0.550  51.856  1.00  0.00     0.095 N 
HETATM   21  C22 UNL     1      17.609   0.031  51.051  1.00  0.00     0.298 C 
BRANCH  20  22
HETATM   22  C7  UNL     1      15.825  -1.600  51.248  1.00  0.00     0.230 C 
HETATM   23  C6  UNL     1      14.859  -0.970  50.274  1.00  0.00     0.063 C 
HETATM   24  C5  UNL     1      14.358  -1.942  49.273  1.00  0.00    -0.025 C 
HETATM   25  C4  UNL     1      14.165  -3.236  49.291  1.00  0.00    -0.004 C 
HETATM   26  C3  UNL     1      14.439  -4.102  50.454  1.00  0.00     0.002 C 
HETATM   27  C2  UNL     1      14.841  -3.841  51.707  1.00  0.00    -0.082 C 
HETATM   28  C1  UNL     1      15.030  -4.974  52.661  1.00  0.00     0.043 C 
HETATM   29  C23 UNL     1      15.125  -2.487  52.248  1.00  0.00     0.069 C 
ENDBRANCH  20  22
ENDBRANCH  15  17
ENDBRANCH   1  15
BRANCH   9  30
HETATM   30  C18 UNL     1      27.677  -0.325  54.233  1.00  0.00     0.270 C 
HETATM   31  N5  UNL     1      28.391   0.653  54.940  1.00  0.00    -0.365 N 
HETATM   32  H17 UNL     1      28.265   1.213  55.817  1.00  0.00     0.159 HD
HETATM   33  H18 UNL     1      29.310   1.088  54.720  1.00  0.00     0.159 HD
HETATM   34  O1  UNL     1      28.349  -1.263  53.739  1.00  0.00    -0.266 OA
ENDBRANCH   9  30
TORSDOF 4
ENDMDL
MODEL 9
REMARK VINA RESULT:      -8.6      5.690      9.231
REMARK  4 active torsions:
REMARK  status: ('A' for Active; 'I' for Inactive)
REMARK    1  A    between atoms: C7_7  and  N1_8 
REMARK    2  A    between atoms: C10_11  and  N2_12 
REMARK    3  A    between atoms: N2_12  and  C11_13 
REMARK    4  A    between atoms: C17_21  and  C18_22 
REMARK       I    between atoms: C18_22  and  N5_23 
ROOT
HETATM    1  C11 UNL     1      33.277   6.916  48.231  1.00  0.00     0.723 A 
HETATM    2  N3  UNL     1      34.145   6.002  48.704  1.00  0.00    -0.075 NA
HETATM    3  C12 UNL     1      34.711   5.061  47.898  1.00  0.00     0.146 A 
HETATM    4  C13 UNL     1      34.407   5.015  46.553  1.00  0.00    -0.008 A 
HETATM    5  C14 UNL     1      33.523   5.944  46.069  1.00  0.00     0.112 A 
HETATM    6  N4  UNL     1      32.998   6.848  46.916  1.00  0.00    -0.060 NA
HETATM    7  C15 UNL     1      33.189   5.909  44.649  1.00  0.00     0.091 A 
HETATM    8  C16 UNL     1      33.793   4.931  43.873  1.00  0.00     0.009 A 
HETATM    9  C17 UNL     1      33.306   5.131  42.604  1.00  0.00     0.153 A 
HETATM   10  N6  UNL     1      32.465   6.177  42.663  1.00  0.00    -0.166 NA
HETATM   11  N7  UNL     1      32.377   6.665  43.889  1.00  0.00    -0.271 N 
HETATM   12  C19 UNL     1      31.602   7.775  44.411  1.00  0.00     0.180 C 
HETATM   13  C20 UNL     1      34.740   3.916  44.329  1.00  0.00     0.048 A 
HETATM   14  C21 UNL     1      35.066   3.966  45.775  1.00  0.00     0.047 A 
ENDROOT
BRANCH   1  15
HETATM   15  N2  UNL     1      32.696   7.892  49.089  1.00  0.00    -0.216 N 
HETATM   16  H15 UNL     1      33.307   8.711  49.359  1.00  0.00     0.178 HD
BRANCH  15  17
HETATM   17  C10 UNL     1      31.344   7.719  49.533  1.00  0.00     0.129 C 
HETATM   18  C9  UNL     1      30.576   8.962  49.092  1.00  0.00     0.057 C 
HETATM   19  C8  UNL     1      29.874   8.471  47.842  1.00  0.00     0.275 C 
HETATM   20  N1  UNL     1      29.631   7.068  48.037  1.00  0.00     0.095 N 
HETATM   21  C22 UNL     1      30.623   6.548  48.925  1.00  0.00     0.298 C 
BRANCH  20  22
HETATM   22  C7  UNL     1      28.278   6.721  48.336  1.00  0.00     0.230 C 
HETATM   23  C6  UNL     1      28.180   5.215  48.353  1.00  0.00     0.063 C 
HETATM   24  C5  UNL     1      26.980   4.739  49.082  1.00  0.00    -0.025 C 
HETATM   25  C4  UNL     1      25.793   5.247  49.293  1.00  0.00    -0.004 C 
HETATM   26  C3  UNL     1      25.348   6.561  48.788  1.00  0.00     0.002 C 
HETATM   27  C2  UNL     1      25.928   7.472  47.993  1.00  0.00    -0.082 C 
HETATM   28  C1  UNL     1      25.189   8.729  47.668  1.00  0.00     0.043 C 
HETATM   29  C23 UNL     1      27.280   7.344  47.391  1.00  0.00     0.069 C 
ENDBRANCH  20  22
ENDBRANCH  15  17
ENDBRANCH   1  15
BRANCH   9  30
HETATM   30  C18 UNL     1      33.616   4.378  41.400  1.00  0.00     0.270 C 
HETATM   31  N5  UNL     1      32.778   3.354  40.935  1.00  0.00    -0.365 N 
HETATM   32  H17 UNL     1      31.748   3.185  40.848  1.00  0.00     0.159 HD
HETATM   33  H18 UNL     1      33.028   2.430  40.528  1.00  0.00     0.159 HD
HETATM   34  O1  UNL     1      34.647   4.610  40.723  1.00  0.00    -0.266 OA
ENDBRANCH   9  30
TORSDOF 4
ENDMDL
