MODEL 1
REMARK VINA RESULT:      -9.5      0.000      0.000
REMARK  4 active torsions:
REMARK  status: ('A' for Active; 'I' for Inactive)
REMARK    1  A    between atoms: C3_3  and  C5_6 
REMARK    2  A    between atoms: C5_6  and  C6_7 
REMARK    3  A    between atoms: C15_16  and  C16_17 
REMARK    4  A    between atoms: N2_20  and  C19_21 
ROOT
HETATM    1  C1  UNL     1      29.860  -0.760  53.783  1.00  0.00     0.037 C 
HETATM    2  C2  UNL     1      28.411  -0.692  53.987  1.00  0.00    -0.013 C 
HETATM    3  C3  UNL     1      27.706   0.416  54.080  1.00  0.00     0.019 C 
HETATM    4  C4  UNL     1      28.338   1.693  53.984  1.00  0.00     0.095 C 
HETATM    5  N1  UNL     1      28.847   2.713  53.925  1.00  0.00    -0.192 NA
ENDROOT
BRANCH   3   6
HETATM    6  C5  UNL     1      26.241   0.319  54.289  1.00  0.00     0.063 C 
BRANCH   6   7
HETATM    7  C6  UNL     1      25.518   0.058  52.997  1.00  0.00     0.058 A 
HETATM    8  C7  UNL     1      24.101  -0.148  52.964  1.00  0.00     0.006 A 
HETATM    9  C8  UNL     1      24.512   1.043  52.565  1.00  0.00    -0.048 A 
HETATM   10  C27 UNL     1      22.688  -0.494  52.983  1.00  0.00     0.190 A 
HETATM   11  C9  UNL     1      23.711   2.185  52.090  1.00  0.00     0.005 A 
HETATM   12  C10 UNL     1      23.999   3.414  52.921  1.00  0.00     0.025 C 
HETATM   13  C11 UNL     1      24.055   2.525  50.649  1.00  0.00     0.025 C 
HETATM   14  C12 UNL     1      22.269   1.824  52.122  1.00  0.00    -0.035 A 
HETATM   15  C13 UNL     1      21.506   2.804  51.732  1.00  0.00    -0.013 A 
HETATM   16  C26 UNL     1      21.749   0.533  52.544  1.00  0.00     0.022 A 
HETATM   17  C14 UNL     1      20.112   3.132  51.529  1.00  0.00     0.062 A 
HETATM   18  C15 UNL     1      19.114   2.103  51.772  1.00  0.00    -0.072 A 
HETATM   19  C24 UNL     1      19.298   0.852  52.213  1.00  0.00     0.004 A 
HETATM   20  C25 UNL     1      20.492   0.084  52.596  1.00  0.00     0.016 A 
HETATM   21  O2  UNL     1      22.265  -1.616  53.354  1.00  0.00    -0.287 OA
BRANCH  18  22
HETATM   22  C16 UNL     1      17.727   2.484  51.488  1.00  0.00     0.018 C 
HETATM   23  C17 UNL     1      17.099   1.843  50.299  1.00  0.00     0.039 C 
HETATM   24  C18 UNL     1      15.578   2.003  50.446  1.00  0.00     0.273 C 
HETATM   25  N2  UNL     1      15.300   2.998  51.444  1.00  0.00     0.097 N 
HETATM   26  C22 UNL     1      16.011   4.174  51.120  1.00  0.00     0.273 C 
HETATM   27  C23 UNL     1      17.492   3.969  51.372  1.00  0.00     0.039 C 
BRANCH  25  28
HETATM   28  C19 UNL     1      13.951   3.120  51.810  1.00  0.00     0.270 C 
HETATM   29  C20 UNL     1      13.122   1.887  51.986  1.00  0.00     0.205 C 
HETATM   30  O1  UNL     1      13.479   1.853  53.310  1.00  0.00    -0.387 OA
HETATM   31  C21 UNL     1      13.589   3.246  53.264  1.00  0.00     0.205 C 
ENDBRANCH  25  28
ENDBRANCH  18  22
ENDBRANCH   6   7
ENDBRANCH   3   6
TORSDOF 4
ENDMDL
MODEL 2
REMARK VINA RESULT:      -9.2      5.923      8.749
REMARK  4 active torsions:
REMARK  status: ('A' for Active; 'I' for Inactive)
REMARK    1  A    between atoms: C3_3  and  C5_6 
REMARK    2  A    between atoms: C5_6  and  C6_7 
REMARK    3  A    between atoms: C15_16  and  C16_17 
REMARK    4  A    between atoms: N2_20  and  C19_21 
ROOT
HETATM    1  C1  UNL     1      27.449  12.076  45.854  1.00  0.00     0.037 C 
HETATM    2  C2  UNL     1      27.812  10.802  46.481  1.00  0.00    -0.013 C 
HETATM    3  C3  UNL     1      28.186  10.649  47.733  1.00  0.00     0.019 C 
HETATM    4  C4  UNL     1      28.266  11.770  48.613  1.00  0.00     0.095 C 
HETATM    5  N1  UNL     1      28.348  12.671  49.310  1.00  0.00    -0.192 NA
ENDROOT
BRANCH   3   6
HETATM    6  C5  UNL     1      28.524   9.289  48.220  1.00  0.00     0.063 C 
BRANCH   6   7
HETATM    7  C6  UNL     1      27.681   8.239  47.553  1.00  0.00     0.058 A 
HETATM    8  C7  UNL     1      27.584   6.912  48.081  1.00  0.00     0.006 A 
HETATM    9  C8  UNL     1      26.543   7.693  48.310  1.00  0.00    -0.048 A 
HETATM   10  C27 UNL     1      27.622   5.540  48.562  1.00  0.00     0.190 A 
HETATM   11  C9  UNL     1      25.297   7.381  49.035  1.00  0.00     0.005 A 
HETATM   12  C10 UNL     1      25.081   8.365  50.162  1.00  0.00     0.025 C 
HETATM   13  C11 UNL     1      24.095   7.484  48.110  1.00  0.00     0.025 C 
HETATM   14  C12 UNL     1      25.351   5.981  49.529  1.00  0.00    -0.035 A 
HETATM   15  C13 UNL     1      24.283   5.652  50.197  1.00  0.00    -0.013 A 
HETATM   16  C26 UNL     1      26.461   5.067  49.309  1.00  0.00     0.022 A 
HETATM   17  C14 UNL     1      23.702   4.536  50.911  1.00  0.00     0.062 A 
HETATM   18  C15 UNL     1      24.432   3.279  50.950  1.00  0.00    -0.072 A 
HETATM   19  C24 UNL     1      25.635   2.999  50.433  1.00  0.00     0.004 A 
HETATM   20  C25 UNL     1      26.617   3.793  49.678  1.00  0.00     0.016 A 
HETATM   21  O2  UNL     1      28.595   4.772  48.360  1.00  0.00    -0.287 OA
BRANCH  18  22
HETATM   22  C16 UNL     1      23.758   2.174  51.637  1.00  0.00     0.018 C 
HETATM   23  C17 UNL     1      24.620   1.035  52.055  1.00  0.00     0.039 C 
HETATM   24  C18 UNL     1      23.846   0.244  53.121  1.00  0.00     0.273 C 
HETATM   25  N2  UNL     1      22.463   0.633  53.088  1.00  0.00     0.097 N 
HETATM   26  C22 UNL     1      21.989   0.503  51.765  1.00  0.00     0.273 C 
HETATM   27  C23 UNL     1      22.580   1.595  50.894  1.00  0.00     0.039 C 
BRANCH  25  28
HETATM   28  C19 UNL     1      21.672   0.123  54.128  1.00  0.00     0.270 C 
HETATM   29  C20 UNL     1      20.599  -0.873  53.815  1.00  0.00     0.205 C 
HETATM   30  O1  UNL     1      21.503  -1.887  54.006  1.00  0.00    -0.387 OA
HETATM   31  C21 UNL     1      22.163  -1.058  54.919  1.00  0.00     0.205 C 
ENDBRANCH  25  28
ENDBRANCH  18  22
ENDBRANCH   6   7
ENDBRANCH   3   6
TORSDOF 4
ENDMDL
MODEL 3
REMARK VINA RESULT:      -9.2      2.924      3.732
REMARK  4 active torsions:
REMARK  status: ('A' for Active; 'I' for Inactive)
REMARK    1  A    between atoms: C3_3  and  C5_6 
REMARK    2  A    between atoms: C5_6  and  C6_7 
REMARK    3  A    between atoms: C15_16  and  C16_17 
REMARK    4  A    between atoms: N2_20  and  C19_21 
ROOT
HETATM    1  C1  UNL     1      28.343   2.348  53.339  1.00  0.00     0.037 C 
HETATM    2  C2  UNL     1      26.887   2.403  53.177  1.00  0.00    -0.013 C 
HETATM    3  C3  UNL     1      26.028   1.574  53.729  1.00  0.00     0.019 C 
HETATM    4  C4  UNL     1      26.476   0.508  54.567  1.00  0.00     0.095 C 
HETATM    5  N1  UNL     1      26.838  -0.354  55.221  1.00  0.00    -0.192 NA
ENDROOT
BRANCH   3   6
HETATM    6  C5  UNL     1      24.580   1.761  53.467  1.00  0.00     0.063 C 
BRANCH   6   7
HETATM    7  C6  UNL     1      23.996   0.582  52.740  1.00  0.00     0.058 A 
HETATM    8  C7  UNL     1      22.790  -0.049  53.187  1.00  0.00     0.006 A 
HETATM    9  C8  UNL     1      22.663   0.742  52.136  1.00  0.00    -0.048 A 
HETATM   10  C27 UNL     1      21.648  -0.752  53.749  1.00  0.00     0.190 A 
HETATM   11  C9  UNL     1      21.449   1.062  51.364  1.00  0.00     0.005 A 
HETATM   12  C10 UNL     1      21.224   2.556  51.325  1.00  0.00     0.025 C 
HETATM   13  C11 UNL     1      21.584   0.589  49.925  1.00  0.00     0.025 C 
HETATM   14  C12 UNL     1      20.287   0.345  51.952  1.00  0.00    -0.035 A 
HETATM   15  C13 UNL     1      19.177   0.604  51.323  1.00  0.00    -0.013 A 
HETATM   16  C26 UNL     1      20.357  -0.543  53.102  1.00  0.00     0.022 A 
HETATM   17  C14 UNL     1      17.768   0.282  51.348  1.00  0.00     0.062 A 
HETATM   18  C15 UNL     1      17.290  -0.668  52.340  1.00  0.00    -0.072 A 
HETATM   19  C24 UNL     1      17.985  -1.287  53.302  1.00  0.00     0.004 A 
HETATM   20  C25 UNL     1      19.400  -1.253  53.703  1.00  0.00     0.016 A 
HETATM   21  O2  UNL     1      21.736  -1.512  54.745  1.00  0.00    -0.287 OA
BRANCH  18  22
HETATM   22  C16 UNL     1      15.863  -0.996  52.270  1.00  0.00     0.018 C 
HETATM   23  C17 UNL     1      15.320  -1.287  50.914  1.00  0.00     0.039 C 
HETATM   24  C18 UNL     1      13.991  -2.033  51.105  1.00  0.00     0.273 C 
HETATM   25  N2  UNL     1      13.551  -1.877  52.465  1.00  0.00     0.097 N 
HETATM   26  C22 UNL     1      13.532  -0.501  52.778  1.00  0.00     0.273 C 
HETATM   27  C23 UNL     1      14.950   0.020  52.909  1.00  0.00     0.039 C 
BRANCH  25  28
HETATM   28  C19 UNL     1      12.442  -2.655  52.829  1.00  0.00     0.270 C 
HETATM   29  C20 UNL     1      12.612  -4.127  53.040  1.00  0.00     0.205 C 
HETATM   30  O1  UNL     1      12.883  -3.891  54.364  1.00  0.00    -0.387 OA
HETATM   31  C21 UNL     1      12.061  -2.763  54.279  1.00  0.00     0.205 C 
ENDBRANCH  25  28
ENDBRANCH  18  22
ENDBRANCH   6   7
ENDBRANCH   3   6
TORSDOF 4
ENDMDL
MODEL 4
REMARK VINA RESULT:      -9.2      5.814     10.159
REMARK  4 active torsions:
REMARK  status: ('A' for Active; 'I' for Inactive)
REMARK    1  A    between atoms: C3_3  and  C5_6 
REMARK    2  A    between atoms: C5_6  and  C6_7 
REMARK    3  A    between atoms: C15_16  and  C16_17 
REMARK    4  A    between atoms: N2_20  and  C19_21 
ROOT
HETATM    1  C1  UNL     1      18.731  -0.628  53.335  1.00  0.00     0.037 C 
HETATM    2  C2  UNL     1      19.898  -0.245  52.535  1.00  0.00    -0.013 C 
HETATM    3  C3  UNL     1      21.153  -0.435  52.880  1.00  0.00     0.019 C 
HETATM    4  C4  UNL     1      21.483  -1.060  54.121  1.00  0.00     0.095 C 
HETATM    5  N1  UNL     1      21.744  -1.542  55.122  1.00  0.00    -0.192 NA
ENDROOT
BRANCH   3   6
HETATM    6  C5  UNL     1      22.227   0.012  51.959  1.00  0.00     0.063 C 
BRANCH   6   7
HETATM    7  C6  UNL     1      23.107   1.047  52.602  1.00  0.00     0.058 A 
HETATM    8  C7  UNL     1      24.267   1.559  51.935  1.00  0.00     0.006 A 
HETATM    9  C8  UNL     1      23.215   2.359  51.943  1.00  0.00    -0.048 A 
HETATM   10  C27 UNL     1      25.511   1.950  51.292  1.00  0.00     0.190 A 
HETATM   11  C9  UNL     1      23.075   3.705  51.358  1.00  0.00     0.005 A 
HETATM   12  C10 UNL     1      21.910   3.745  50.397  1.00  0.00     0.025 C 
HETATM   13  C11 UNL     1      22.803   4.738  52.440  1.00  0.00     0.025 C 
HETATM   14  C12 UNL     1      24.349   4.090  50.697  1.00  0.00    -0.035 A 
HETATM   15  C13 UNL     1      24.281   5.266  50.141  1.00  0.00    -0.013 A 
HETATM   16  C26 UNL     1      25.544   3.262  50.655  1.00  0.00     0.022 A 
HETATM   17  C14 UNL     1      25.083   6.200  49.383  1.00  0.00     0.062 A 
HETATM   18  C15 UNL     1      26.466   5.855  49.096  1.00  0.00    -0.072 A 
HETATM   19  C24 UNL     1      27.127   4.734  49.411  1.00  0.00     0.004 A 
HETATM   20  C25 UNL     1      26.743   3.503  50.118  1.00  0.00     0.016 A 
HETATM   21  O2  UNL     1      26.529   1.214  51.269  1.00  0.00    -0.287 OA
BRANCH  18  22
HETATM   22  C16 UNL     1      27.238   6.872  48.377  1.00  0.00     0.018 C 
HETATM   23  C17 UNL     1      26.520   7.601  47.295  1.00  0.00     0.039 C 
HETATM   24  C18 UNL     1      27.315   8.883  47.003  1.00  0.00     0.273 C 
HETATM   25  N2  UNL     1      28.625   8.771  47.582  1.00  0.00     0.097 N 
HETATM   26  C22 UNL     1      29.215   7.569  47.133  1.00  0.00     0.273 C 
HETATM   27  C23 UNL     1      28.542   6.383  47.798  1.00  0.00     0.039 C 
BRANCH  25  28
HETATM   28  C19 UNL     1      29.398   9.940  47.547  1.00  0.00     0.270 C 
HETATM   29  C20 UNL     1      29.345  10.892  48.701  1.00  0.00     0.205 C 
HETATM   30  O1  UNL     1      30.389  10.219  49.286  1.00  0.00    -0.387 OA
HETATM   31  C21 UNL     1      30.831   9.892  48.001  1.00  0.00     0.205 C 
ENDBRANCH  25  28
ENDBRANCH  18  22
ENDBRANCH   6   7
ENDBRANCH   3   6
TORSDOF 4
ENDMDL
MODEL 5
REMARK VINA RESULT:      -8.7      1.961      2.991
REMARK  4 active torsions:
REMARK  status: ('A' for Active; 'I' for Inactive)
REMARK    1  A    between atoms: C3_3  and  C5_6 
REMARK    2  A    between atoms: C5_6  and  C6_7 
REMARK    3  A    between atoms: C15_16  and  C16_17 
REMARK    4  A    between atoms: N2_20  and  C19_21 
ROOT
HETATM    1  C1  UNL     1      29.037   0.686  54.350  1.00  0.00     0.037 C 
HETATM    2  C2  UNL     1      27.844   0.999  53.558  1.00  0.00    -0.013 C 
HETATM    3  C3  UNL     1      27.078   0.116  52.955  1.00  0.00     0.019 C 
HETATM    4  C4  UNL     1      27.371  -1.280  53.034  1.00  0.00     0.095 C 
HETATM    5  N1  UNL     1      27.617  -2.393  53.082  1.00  0.00    -0.192 NA
ENDROOT
BRANCH   3   6
HETATM    6  C5  UNL     1      25.901   0.591  52.187  1.00  0.00     0.063 C 
BRANCH   6   7
HETATM    7  C6  UNL     1      24.865   1.201  53.090  1.00  0.00     0.058 A 
HETATM    8  C7  UNL     1      23.612   1.669  52.579  1.00  0.00     0.006 A 
HETATM    9  C8  UNL     1      23.571   0.510  53.212  1.00  0.00    -0.048 A 
HETATM   10  C27 UNL     1      22.413   2.261  52.008  1.00  0.00     0.190 A 
HETATM   11  C9  UNL     1      22.412  -0.365  53.463  1.00  0.00     0.005 A 
HETATM   12  C10 UNL     1      22.667  -1.751  52.917  1.00  0.00     0.025 C 
HETATM   13  C11 UNL     1      22.156  -0.509  54.955  1.00  0.00     0.025 C 
HETATM   14  C12 UNL     1      21.195   0.246  52.868  1.00  0.00    -0.035 A 
HETATM   15  C13 UNL     1      20.137  -0.493  53.039  1.00  0.00    -0.013 A 
HETATM   16  C26 UNL     1      21.167   1.518  52.164  1.00  0.00     0.022 A 
HETATM   17  C14 UNL     1      18.721  -0.517  52.745  1.00  0.00     0.062 A 
HETATM   18  C15 UNL     1      18.136   0.621  52.054  1.00  0.00    -0.072 A 
HETATM   19  C24 UNL     1      18.747   1.720  51.596  1.00  0.00     0.004 A 
HETATM   20  C25 UNL     1      20.145   2.176  51.610  1.00  0.00     0.016 A 
HETATM   21  O2  UNL     1      22.417   3.362  51.403  1.00  0.00    -0.287 OA
BRANCH  18  22
HETATM   22  C16 UNL     1      16.687   0.558  51.842  1.00  0.00     0.018 C 
HETATM   23  C17 UNL     1      16.128  -0.781  51.509  1.00  0.00     0.039 C 
HETATM   24  C18 UNL     1      14.617  -0.725  51.781  1.00  0.00     0.273 C 
HETATM   25  N2  UNL     1      14.207   0.647  51.903  1.00  0.00     0.097 N 
HETATM   26  C22 UNL     1      14.651   1.353  50.764  1.00  0.00     0.273 C 
HETATM   27  C23 UNL     1      16.156   1.531  50.820  1.00  0.00     0.039 C 
BRANCH  25  28
HETATM   28  C19 UNL     1      12.886   0.843  52.330  1.00  0.00     0.270 C 
HETATM   29  C20 UNL     1      12.577   0.835  53.794  1.00  0.00     0.205 C 
HETATM   30  O1  UNL     1      12.791   2.190  53.833  1.00  0.00    -0.387 OA
HETATM   31  C21 UNL     1      12.366   2.244  52.502  1.00  0.00     0.205 C 
ENDBRANCH  25  28
ENDBRANCH  18  22
ENDBRANCH   6   7
ENDBRANCH   3   6
TORSDOF 4
ENDMDL
MODEL 6
REMARK VINA RESULT:      -8.5      6.690     11.396
REMARK  4 active torsions:
REMARK  status: ('A' for Active; 'I' for Inactive)
REMARK    1  A    between atoms: C3_3  and  C5_6 
REMARK    2  A    between atoms: C5_6  and  C6_7 
REMARK    3  A    between atoms: C15_16  and  C16_17 
REMARK    4  A    between atoms: N2_20  and  C19_21 
ROOT
HETATM    1  C1  UNL     1      19.029  -0.060  51.923  1.00  0.00     0.037 C 
HETATM    2  C2  UNL     1      20.053   0.599  51.108  1.00  0.00    -0.013 C 
HETATM    3  C3  UNL     1      21.327   0.701  51.422  1.00  0.00     0.019 C 
HETATM    4  C4  UNL     1      21.825   0.147  52.641  1.00  0.00     0.095 C 
HETATM    5  N1  UNL     1      22.216  -0.279  53.625  1.00  0.00    -0.192 NA
ENDROOT
BRANCH   3   6
HETATM    6  C5  UNL     1      22.243   1.401  50.490  1.00  0.00     0.063 C 
BRANCH   6   7
HETATM    7  C6  UNL     1      23.092   2.412  51.209  1.00  0.00     0.058 A 
HETATM    8  C7  UNL     1      24.403   2.753  50.742  1.00  0.00     0.006 A 
HETATM    9  C8  UNL     1      23.458   3.639  50.483  1.00  0.00    -0.048 A 
HETATM   10  C27 UNL     1      25.779   2.970  50.325  1.00  0.00     0.190 A 
HETATM   11  C9  UNL     1      23.571   4.930  49.779  1.00  0.00     0.005 A 
HETATM   12  C10 UNL     1      22.615   4.979  48.609  1.00  0.00     0.025 C 
HETATM   13  C11 UNL     1      23.211   6.082  50.703  1.00  0.00     0.025 C 
HETATM   14  C12 UNL     1      24.978   5.136  49.350  1.00  0.00    -0.035 A 
HETATM   15  C13 UNL     1      25.138   6.254  48.702  1.00  0.00    -0.013 A 
HETATM   16  C26 UNL     1      26.067   4.207  49.606  1.00  0.00     0.022 A 
HETATM   17  C14 UNL     1      26.160   7.036  48.043  1.00  0.00     0.062 A 
HETATM   18  C15 UNL     1      27.529   6.545  48.059  1.00  0.00    -0.072 A 
HETATM   19  C24 UNL     1      27.999   5.406  48.583  1.00  0.00     0.004 A 
HETATM   20  C25 UNL     1      27.363   4.288  49.295  1.00  0.00     0.016 A 
HETATM   21  O2  UNL     1      26.700   2.148  50.558  1.00  0.00    -0.287 OA
BRANCH  18  22
HETATM   22  C16 UNL     1      28.524   7.417  47.426  1.00  0.00     0.018 C 
HETATM   23  C17 UNL     1      29.454   8.130  48.346  1.00  0.00     0.039 C 
HETATM   24  C18 UNL     1      30.656   8.592  47.509  1.00  0.00     0.273 C 
HETATM   25  N2  UNL     1      30.322   8.514  46.114  1.00  0.00     0.097 N 
HETATM   26  C22 UNL     1      29.118   9.220  45.898  1.00  0.00     0.273 C 
HETATM   27  C23 UNL     1      27.953   8.445  46.483  1.00  0.00     0.039 C 
BRANCH  25  28
HETATM   28  C19 UNL     1      31.387   8.735  45.228  1.00  0.00     0.270 C 
HETATM   29  C20 UNL     1      32.768   8.315  45.619  1.00  0.00     0.205 C 
HETATM   30  O1  UNL     1      32.544   7.090  45.043  1.00  0.00    -0.387 OA
HETATM   31  C21 UNL     1      31.674   7.725  44.151  1.00  0.00     0.205 C 
ENDBRANCH  25  28
ENDBRANCH  18  22
ENDBRANCH   6   7
ENDBRANCH   3   6
TORSDOF 4
ENDMDL
MODEL 7
REMARK VINA RESULT:      -8.5      5.647      7.780
REMARK  4 active torsions:
REMARK  status: ('A' for Active; 'I' for Inactive)
REMARK    1  A    between atoms: C3_3  and  C5_6 
REMARK    2  A    between atoms: C5_6  and  C6_7 
REMARK    3  A    between atoms: C15_16  and  C16_17 
REMARK    4  A    between atoms: N2_20  and  C19_21 
ROOT
HETATM    1  C1  UNL     1      32.425   6.712  48.887  1.00  0.00     0.037 C 
HETATM    2  C2  UNL     1      31.055   7.231  48.883  1.00  0.00    -0.013 C 
HETATM    3  C3  UNL     1      30.683   8.397  48.399  1.00  0.00     0.019 C 
HETATM    4  C4  UNL     1      31.639   9.282  47.814  1.00  0.00     0.095 C 
HETATM    5  N1  UNL     1      32.407   9.997  47.365  1.00  0.00    -0.192 NA
ENDROOT
BRANCH   3   6
HETATM    6  C5  UNL     1      29.252   8.781  48.470  1.00  0.00     0.063 C 
BRANCH   6   7
HETATM    7  C6  UNL     1      28.397   7.877  47.626  1.00  0.00     0.058 A 
HETATM    8  C7  UNL     1      27.957   6.602  48.109  1.00  0.00     0.006 A 
HETATM    9  C8  UNL     1      27.046   7.559  48.116  1.00  0.00    -0.048 A 
HETATM   10  C27 UNL     1      27.648   5.259  48.573  1.00  0.00     0.190 A 
HETATM   11  C9  UNL     1      25.640   7.492  48.553  1.00  0.00     0.005 A 
HETATM   12  C10 UNL     1      25.366   8.530  49.617  1.00  0.00     0.025 C 
HETATM   13  C11 UNL     1      24.700   7.777  47.393  1.00  0.00     0.025 C 
HETATM   14  C12 UNL     1      25.338   6.118  49.033  1.00  0.00    -0.035 A 
HETATM   15  C13 UNL     1      24.111   6.000  49.454  1.00  0.00    -0.013 A 
HETATM   16  C26 UNL     1      26.289   5.018  49.048  1.00  0.00     0.022 A 
HETATM   17  C14 UNL     1      23.203   5.025  50.014  1.00  0.00     0.062 A 
HETATM   18  C15 UNL     1      23.674   3.661  50.197  1.00  0.00    -0.072 A 
HETATM   19  C24 UNL     1      24.890   3.161  49.948  1.00  0.00     0.004 A 
HETATM   20  C25 UNL     1      26.134   3.748  49.430  1.00  0.00     0.016 A 
HETATM   21  O2  UNL     1      28.490   4.327  48.577  1.00  0.00    -0.287 OA
BRANCH  18  22
HETATM   22  C16 UNL     1      22.683   2.712  50.713  1.00  0.00     0.018 C 
HETATM   23  C17 UNL     1      22.205   1.675  49.756  1.00  0.00     0.039 C 
HETATM   24  C18 UNL     1      21.567   0.550  50.584  1.00  0.00     0.273 C 
HETATM   25  N2  UNL     1      21.320   1.024  51.918  1.00  0.00     0.097 N 
HETATM   26  C22 UNL     1      20.579   2.224  51.840  1.00  0.00     0.273 C 
HETATM   27  C23 UNL     1      21.463   3.345  51.332  1.00  0.00     0.039 C 
BRANCH  25  28
HETATM   28  C19 UNL     1      20.904   0.048  52.834  1.00  0.00     0.270 C 
HETATM   29  C20 UNL     1      21.882  -0.982  53.307  1.00  0.00     0.205 C 
HETATM   30  O1  UNL     1      22.228  -0.155  54.346  1.00  0.00    -0.387 OA
HETATM   31  C21 UNL     1      20.928   0.358  54.306  1.00  0.00     0.205 C 
ENDBRANCH  25  28
ENDBRANCH  18  22
ENDBRANCH   6   7
ENDBRANCH   3   6
TORSDOF 4
ENDMDL
MODEL 8
REMARK VINA RESULT:      -8.4      6.988      9.250
REMARK  4 active torsions:
REMARK  status: ('A' for Active; 'I' for Inactive)
REMARK    1  A    between atoms: C3_3  and  C5_6 
REMARK    2  A    between atoms: C5_6  and  C6_7 
REMARK    3  A    between atoms: C15_16  and  C16_17 
REMARK    4  A    between atoms: N2_20  and  C19_21 
ROOT
HETATM    1  C1  UNL     1      28.672  12.985  45.716  1.00  0.00     0.037 C 
HETATM    2  C2  UNL     1      28.708  11.753  46.508  1.00  0.00    -0.013 C 
HETATM    3  C3  UNL     1      29.794  11.079  46.818  1.00  0.00     0.019 C 
HETATM    4  C4  UNL     1      31.080  11.524  46.383  1.00  0.00     0.095 C 
HETATM    5  N1  UNL     1      32.103  11.871  46.018  1.00  0.00    -0.192 NA
ENDROOT
BRANCH   3   6
HETATM    6  C5  UNL     1      29.666   9.843  47.630  1.00  0.00     0.063 C 
BRANCH   6   7
HETATM    7  C6  UNL     1      29.053   8.725  46.835  1.00  0.00     0.058 A 
HETATM    8  C7  UNL     1      28.703   7.478  47.448  1.00  0.00     0.006 A 
HETATM    9  C8  UNL     1      27.693   8.293  47.198  1.00  0.00    -0.048 A 
HETATM   10  C27 UNL     1      28.493   6.180  48.069  1.00  0.00     0.190 A 
HETATM   11  C9  UNL     1      26.257   8.091  47.464  1.00  0.00     0.005 A 
HETATM   12  C10 UNL     1      25.715   9.216  48.316  1.00  0.00     0.025 C 
HETATM   13  C11 UNL     1      25.463   8.086  46.168  1.00  0.00     0.025 C 
HETATM   14  C12 UNL     1      26.056   6.767  48.107  1.00  0.00    -0.035 A 
HETATM   15  C13 UNL     1      24.805   6.539  48.387  1.00  0.00    -0.013 A 
HETATM   16  C26 UNL     1      27.119   5.821  48.405  1.00  0.00     0.022 A 
HETATM   17  C14 UNL     1      23.949   5.532  48.973  1.00  0.00     0.062 A 
HETATM   18  C15 UNL     1      24.547   4.283  49.417  1.00  0.00    -0.072 A 
HETATM   19  C24 UNL     1      25.837   3.926  49.398  1.00  0.00     0.004 A 
HETATM   20  C25 UNL     1      27.064   4.604  48.953  1.00  0.00     0.016 A 
HETATM   21  O2  UNL     1      29.431   5.382  48.317  1.00  0.00    -0.287 OA
BRANCH  18  22
HETATM   22  C16 UNL     1      23.614   3.284  49.945  1.00  0.00     0.018 C 
HETATM   23  C17 UNL     1      24.168   2.329  50.944  1.00  0.00     0.039 C 
HETATM   24  C18 UNL     1      22.977   1.704  51.687  1.00  0.00     0.273 C 
HETATM   25  N2  UNL     1      21.771   1.959  50.949  1.00  0.00     0.097 N 
HETATM   26  C22 UNL     1      21.958   1.527  49.617  1.00  0.00     0.273 C 
HETATM   27  C23 UNL     1      22.901   2.470  48.896  1.00  0.00     0.039 C 
BRANCH  25  28
HETATM   28  C19 UNL     1      20.582   1.601  51.600  1.00  0.00     0.270 C 
HETATM   29  C20 UNL     1      20.465   1.797  53.079  1.00  0.00     0.205 C 
HETATM   30  O1  UNL     1      19.966   3.055  52.859  1.00  0.00    -0.387 OA
HETATM   31  C21 UNL     1      19.444   2.582  51.651  1.00  0.00     0.205 C 
ENDBRANCH  25  28
ENDBRANCH  18  22
ENDBRANCH   6   7
ENDBRANCH   3   6
TORSDOF 4
ENDMDL
MODEL 9
REMARK VINA RESULT:      -8.3      5.755     10.754
REMARK  4 active torsions:
REMARK  status: ('A' for Active; 'I' for Inactive)
REMARK    1  A    between atoms: C3_3  and  C5_6 
REMARK    2  A    between atoms: C5_6  and  C6_7 
REMARK    3  A    between atoms: C15_16  and  C16_17 
REMARK    4  A    between atoms: N2_20  and  C19_21 
ROOT
HETATM    1  C1  UNL     1      21.899  -0.725  53.228  1.00  0.00     0.037 C 
HETATM    2  C2  UNL     1      21.641   0.717  53.173  1.00  0.00    -0.013 C 
HETATM    3  C3  UNL     1      20.578   1.280  52.639  1.00  0.00     0.019 C 
HETATM    4  C4  UNL     1      19.550   0.486  52.047  1.00  0.00     0.095 C 
HETATM    5  N1  UNL     1      18.739  -0.150  51.557  1.00  0.00    -0.192 NA
ENDROOT
BRANCH   3   6
HETATM    6  C5  UNL     1      20.462   2.759  52.661  1.00  0.00     0.063 C 
BRANCH   6   7
HETATM    7  C6  UNL     1      20.645   3.345  51.289  1.00  0.00     0.058 A 
HETATM    8  C7  UNL     1      21.404   4.541  51.083  1.00  0.00     0.006 A 
HETATM    9  C8  UNL     1      22.013   3.416  50.752  1.00  0.00    -0.048 A 
HETATM   10  C27 UNL     1      22.059   5.831  50.928  1.00  0.00     0.190 A 
HETATM   11  C9  UNL     1      23.367   3.227  50.199  1.00  0.00     0.005 A 
HETATM   12  C10 UNL     1      24.169   2.292  51.074  1.00  0.00     0.025 C 
HETATM   13  C11 UNL     1      23.302   2.604  48.813  1.00  0.00     0.025 C 
HETATM   14  C12 UNL     1      24.029   4.549  50.053  1.00  0.00    -0.035 A 
HETATM   15  C13 UNL     1      25.241   4.446  49.588  1.00  0.00    -0.013 A 
HETATM   16  C26 UNL     1      23.417   5.824  50.393  1.00  0.00     0.022 A 
HETATM   17  C14 UNL     1      26.379   5.260  49.223  1.00  0.00     0.062 A 
HETATM   18  C15 UNL     1      26.263   6.706  49.331  1.00  0.00    -0.072 A 
HETATM   19  C24 UNL     1      25.226   7.426  49.775  1.00  0.00     0.004 A 
HETATM   20  C25 UNL     1      23.895   7.067  50.288  1.00  0.00     0.016 A 
HETATM   21  O2  UNL     1      21.508   6.917  51.232  1.00  0.00    -0.287 OA
BRANCH  18  22
HETATM   22  C16 UNL     1      27.431   7.472  48.888  1.00  0.00     0.018 C 
HETATM   23  C17 UNL     1      27.570   8.845  49.447  1.00  0.00     0.039 C 
HETATM   24  C18 UNL     1      29.030   9.276  49.240  1.00  0.00     0.273 C 
HETATM   25  N2  UNL     1      29.652   8.401  48.285  1.00  0.00     0.097 N 
HETATM   26  C22 UNL     1      28.854   8.363  47.121  1.00  0.00     0.273 C 
HETATM   27  C23 UNL     1      27.583   7.581  47.392  1.00  0.00     0.039 C 
BRANCH  25  28
HETATM   28  C19 UNL     1      31.037   8.567  48.133  1.00  0.00     0.270 C 
HETATM   29  C20 UNL     1      31.959   8.061  49.197  1.00  0.00     0.205 C 
HETATM   30  O1  UNL     1      32.031   6.857  48.542  1.00  0.00    -0.387 OA
HETATM   31  C21 UNL     1      31.820   7.551  47.347  1.00  0.00     0.205 C 
ENDBRANCH  25  28
ENDBRANCH  18  22
ENDBRANCH   6   7
ENDBRANCH   3   6
TORSDOF 4
ENDMDL
