MODEL 1
REMARK VINA RESULT:      -7.0      0.000      0.000
REMARK  6 active torsions:
REMARK  status: ('A' for Active; 'I' for Inactive)
REMARK    1  A    between atoms: N1_1  and  C1_2 
REMARK    2  A    between atoms: C1_2  and  C2_3 
REMARK    3  A    between atoms: C2_3  and  C3_4 
REMARK    4  A    between atoms: C6_8  and  C7_9 
REMARK    5  A    between atoms: C8_11  and  C9_12 
REMARK       I    between atoms: C9_12  and  N3_14 
REMARK    6  A    between atoms: N3_14  and  C10_15 
ROOT
HETATM    1  C3  UNL     1      24.259   2.891  52.603  1.00  0.00     0.015 C 
HETATM    2  C4  UNL     1      23.457   1.859  52.753  1.00  0.00    -0.036 C 
HETATM    3  C5  UNL     1      22.198   1.902  51.926  1.00  0.00     0.305 C 
HETATM    4  N2  UNL     1      21.569   0.622  52.139  1.00  0.00     0.097 N 
HETATM    5  C6  UNL     1      22.608  -0.282  52.588  1.00  0.00     0.271 C 
HETATM    6  C8  UNL     1      23.408   0.607  53.522  1.00  0.00     0.146 C 
HETATM    7  H6  UNL     1      20.790   0.691  52.818  1.00  0.00     0.317 HD
ENDROOT
BRANCH   6   8
HETATM    8  C9  UNL     1      24.712  -0.020  53.777  1.00  0.00     0.233 C 
HETATM    9  O1  UNL     1      25.053  -0.526  54.899  1.00  0.00    -0.272 OA
HETATM   10  N3  UNL     1      25.733  -0.127  52.793  1.00  0.00    -0.327 N 
HETATM   11  H10 UNL     1      25.580   0.249  51.833  1.00  0.00     0.169 HD
BRANCH  10  12
HETATM   12  C10 UNL     1      27.016  -0.717  52.964  1.00  0.00     0.034 A 
HETATM   13  C11 UNL     1      28.016   0.132  53.390  1.00  0.00     0.029 A 
HETATM   14  C12 UNL     1      29.294  -0.385  53.576  1.00  0.00     0.002 A 
HETATM   15  C13 UNL     1      29.522  -1.732  53.329  1.00  0.00     0.000 A 
HETATM   16  C14 UNL     1      28.496  -2.569  52.900  1.00  0.00     0.002 A 
HETATM   17  C15 UNL     1      27.225  -2.073  52.711  1.00  0.00     0.029 A 
ENDBRANCH  10  12
ENDBRANCH   6   8
BRANCH   5  18
HETATM   18  C7  UNL     1      22.068  -1.468  53.279  1.00  0.00     0.090 C 
HETATM   19  S1  UNL     1      21.239  -1.137  54.415  1.00  0.00    -0.095 SA
ENDBRANCH   5  18
BRANCH   1  20
HETATM   20  C2  UNL     1      23.758   3.878  51.654  1.00  0.00     0.076 C 
BRANCH  20  21
HETATM   21  C1  UNL     1      23.841   5.171  51.933  1.00  0.00    -0.025 C 
BRANCH  21  22
HETATM   22  N1  UNL     1      24.209   6.334  52.346  1.00  0.00    -0.258 NA
HETATM   23  H1  UNL     1      24.810   6.930  51.714  1.00  0.00     0.197 HD
ENDBRANCH  21  22
ENDBRANCH  20  21
ENDBRANCH   1  20
TORSDOF 6
ENDMDL
MODEL 2
REMARK VINA RESULT:      -6.9      2.946      6.049
REMARK  6 active torsions:
REMARK  status: ('A' for Active; 'I' for Inactive)
REMARK    1  A    between atoms: N1_1  and  C1_2 
REMARK    2  A    between atoms: C1_2  and  C2_3 
REMARK    3  A    between atoms: C2_3  and  C3_4 
REMARK    4  A    between atoms: C6_8  and  C7_9 
REMARK    5  A    between atoms: C8_11  and  C9_12 
REMARK       I    between atoms: C9_12  and  N3_14 
REMARK    6  A    between atoms: N3_14  and  C10_15 
ROOT
HETATM    1  C3  UNL     1      26.334  -0.014  52.311  1.00  0.00     0.015 C 
HETATM    2  C4  UNL     1      25.078   0.365  52.406  1.00  0.00    -0.036 C 
HETATM    3  C5  UNL     1      24.270  -0.356  53.454  1.00  0.00     0.305 C 
HETATM    4  N2  UNL     1      22.997   0.321  53.474  1.00  0.00     0.097 N 
HETATM    5  C6  UNL     1      23.218   1.637  52.909  1.00  0.00     0.271 C 
HETATM    6  C8  UNL     1      24.168   1.327  51.767  1.00  0.00     0.146 C 
HETATM    7  H6  UNL     1      22.277  -0.211  52.956  1.00  0.00     0.317 HD
ENDROOT
BRANCH   6   8
HETATM    8  C9  UNL     1      24.797   2.576  51.317  1.00  0.00     0.233 C 
HETATM    9  O1  UNL     1      25.240   3.477  52.107  1.00  0.00    -0.272 OA
HETATM   10  N3  UNL     1      24.976   2.910  49.947  1.00  0.00    -0.327 N 
HETATM   11  H10 UNL     1      24.656   2.258  49.200  1.00  0.00     0.169 HD
BRANCH  10  12
HETATM   12  C10 UNL     1      25.573   4.096  49.435  1.00  0.00     0.034 A 
HETATM   13  C11 UNL     1      26.926   4.023  49.173  1.00  0.00     0.029 A 
HETATM   14  C12 UNL     1      27.569   5.149  48.671  1.00  0.00     0.002 A 
HETATM   15  C13 UNL     1      26.833   6.306  48.448  1.00  0.00     0.000 A 
HETATM   16  C14 UNL     1      25.469   6.355  48.720  1.00  0.00     0.002 A 
HETATM   17  C15 UNL     1      24.817   5.248  49.218  1.00  0.00     0.029 A 
ENDBRANCH  10  12
ENDBRANCH   6   8
BRANCH   5  18
HETATM   18  C7  UNL     1      21.972   2.268  52.437  1.00  0.00     0.090 C 
HETATM   19  S1  UNL     1      20.804   1.441  52.636  1.00  0.00    -0.095 SA
ENDBRANCH   5  18
BRANCH   1  20
HETATM   20  C2  UNL     1      26.692  -1.068  53.253  1.00  0.00     0.076 C 
BRANCH  20  21
HETATM   21  C1  UNL     1      27.512  -2.041  52.884  1.00  0.00    -0.025 C 
BRANCH  21  22
HETATM   22  N1  UNL     1      28.193  -3.131  52.804  1.00  0.00    -0.258 NA
HETATM   23  H1  UNL     1      29.239  -3.067  52.665  1.00  0.00     0.197 HD
ENDBRANCH  21  22
ENDBRANCH  20  21
ENDBRANCH   1  20
TORSDOF 6
ENDMDL
MODEL 3
REMARK VINA RESULT:      -6.7      2.878      6.822
REMARK  6 active torsions:
REMARK  status: ('A' for Active; 'I' for Inactive)
REMARK    1  A    between atoms: N1_1  and  C1_2 
REMARK    2  A    between atoms: C1_2  and  C2_3 
REMARK    3  A    between atoms: C2_3  and  C3_4 
REMARK    4  A    between atoms: C6_8  and  C7_9 
REMARK    5  A    between atoms: C8_11  and  C9_12 
REMARK       I    between atoms: C9_12  and  N3_14 
REMARK    6  A    between atoms: N3_14  and  C10_15 
ROOT
HETATM    1  C3  UNL     1      25.632  -0.663  52.830  1.00  0.00     0.015 C 
HETATM    2  C4  UNL     1      25.355   0.623  52.857  1.00  0.00    -0.036 C 
HETATM    3  C5  UNL     1      26.523   1.534  52.580  1.00  0.00     0.305 C 
HETATM    4  N2  UNL     1      25.955   2.858  52.515  1.00  0.00     0.097 N 
HETATM    5  C6  UNL     1      24.545   2.690  52.225  1.00  0.00     0.271 C 
HETATM    6  C8  UNL     1      24.193   1.493  53.088  1.00  0.00     0.146 C 
HETATM    7  H6  UNL     1      26.115   3.382  53.392  1.00  0.00     0.317 HD
ENDROOT
BRANCH   6   8
HETATM    8  C9  UNL     1      22.905   0.945  52.641  1.00  0.00     0.233 C 
HETATM    9  O1  UNL     1      22.652   0.608  51.436  1.00  0.00    -0.272 OA
HETATM   10  N3  UNL     1      21.802   0.736  53.514  1.00  0.00    -0.327 N 
HETATM   11  H10 UNL     1      21.878   0.972  54.526  1.00  0.00     0.169 HD
BRANCH  10  12
HETATM   12  C10 UNL     1      20.527   0.212  53.157  1.00  0.00     0.034 A 
HETATM   13  C11 UNL     1      20.174  -0.976  53.764  1.00  0.00     0.029 A 
HETATM   14  C12 UNL     1      18.941  -1.540  53.457  1.00  0.00     0.002 A 
HETATM   15  C13 UNL     1      18.106  -0.892  52.555  1.00  0.00     0.000 A 
HETATM   16  C14 UNL     1      18.484   0.306  51.957  1.00  0.00     0.002 A 
HETATM   17  C15 UNL     1      19.703   0.877  52.250  1.00  0.00     0.029 A 
ENDBRANCH  10  12
ENDBRANCH   6   8
BRANCH   5  18
HETATM   18  C7  UNL     1      23.749   3.880  52.578  1.00  0.00     0.090 C 
HETATM   19  S1  UNL     1      23.529   4.769  51.460  1.00  0.00    -0.095 SA
ENDBRANCH   5  18
BRANCH   1  20
HETATM   20  C2  UNL     1      27.031  -0.947  52.533  1.00  0.00     0.076 C 
BRANCH  20  21
HETATM   21  C1  UNL     1      27.540  -2.140  52.800  1.00  0.00    -0.025 C 
BRANCH  21  22
HETATM   22  N1  UNL     1      28.293  -3.182  52.884  1.00  0.00    -0.258 NA
HETATM   23  H1  UNL     1      29.220  -3.099  53.383  1.00  0.00     0.197 HD
ENDBRANCH  21  22
ENDBRANCH  20  21
ENDBRANCH   1  20
TORSDOF 6
ENDMDL
MODEL 4
REMARK VINA RESULT:      -6.6      2.593      4.329
REMARK  6 active torsions:
REMARK  status: ('A' for Active; 'I' for Inactive)
REMARK    1  A    between atoms: N1_1  and  C1_2 
REMARK    2  A    between atoms: C1_2  and  C2_3 
REMARK    3  A    between atoms: C2_3  and  C3_4 
REMARK    4  A    between atoms: C6_8  and  C7_9 
REMARK    5  A    between atoms: C8_11  and  C9_12 
REMARK       I    between atoms: C9_12  and  N3_14 
REMARK    6  A    between atoms: N3_14  and  C10_15 
ROOT
HETATM    1  C3  UNL     1      22.973   0.392  52.718  1.00  0.00     0.015 C 
HETATM    2  C4  UNL     1      23.229   1.547  52.141  1.00  0.00    -0.036 C 
HETATM    3  C5  UNL     1      22.168   2.601  52.323  1.00  0.00     0.305 C 
HETATM    4  N2  UNL     1      22.729   3.797  51.745  1.00  0.00     0.097 N 
HETATM    5  C6  UNL     1      24.167   3.616  51.731  1.00  0.00     0.271 C 
HETATM    6  C8  UNL     1      24.290   2.159  51.328  1.00  0.00     0.146 C 
HETATM    7  H6  UNL     1      22.348   3.976  50.800  1.00  0.00     0.317 HD
ENDROOT
BRANCH   6   8
HETATM    8  C9  UNL     1      25.652   1.695  51.628  1.00  0.00     0.233 C 
HETATM    9  O1  UNL     1      26.647   1.850  50.843  1.00  0.00    -0.272 OA
HETATM   10  N3  UNL     1      25.999   1.019  52.830  1.00  0.00    -0.327 N 
HETATM   11  H10 UNL     1      25.275   0.829  53.555  1.00  0.00     0.169 HD
BRANCH  10  12
HETATM   12  C10 UNL     1      27.290   0.541  53.190  1.00  0.00     0.034 A 
HETATM   13  C11 UNL     1      27.542  -0.784  52.900  1.00  0.00     0.029 A 
HETATM   14  C12 UNL     1      28.786  -1.313  53.227  1.00  0.00     0.002 A 
HETATM   15  C13 UNL     1      29.731  -0.494  53.833  1.00  0.00     0.000 A 
HETATM   16  C14 UNL     1      29.453   0.840  54.115  1.00  0.00     0.002 A 
HETATM   17  C15 UNL     1      28.226   1.378  53.797  1.00  0.00     0.029 A 
ENDBRANCH  10  12
ENDBRANCH   6   8
BRANCH   5  18
HETATM   18  C7  UNL     1      24.842   4.514  50.775  1.00  0.00     0.090 C 
HETATM   19  S1  UNL     1      24.195   4.561  49.485  1.00  0.00    -0.095 SA
ENDBRANCH   5  18
BRANCH   1  20
HETATM   20  C2  UNL     1      21.697   0.370  53.424  1.00  0.00     0.076 C 
BRANCH  20  21
HETATM   21  C1  UNL     1      21.459  -0.559  54.338  1.00  0.00    -0.025 C 
BRANCH  21  22
HETATM   22  N1  UNL     1      21.164  -1.649  54.958  1.00  0.00    -0.258 NA
HETATM   23  H1  UNL     1      20.247  -2.126  54.738  1.00  0.00     0.197 HD
ENDBRANCH  21  22
ENDBRANCH  20  21
ENDBRANCH   1  20
TORSDOF 6
ENDMDL
MODEL 5
REMARK VINA RESULT:      -6.6      3.059      6.982
REMARK  6 active torsions:
REMARK  status: ('A' for Active; 'I' for Inactive)
REMARK    1  A    between atoms: N1_1  and  C1_2 
REMARK    2  A    between atoms: C1_2  and  C2_3 
REMARK    3  A    between atoms: C2_3  and  C3_4 
REMARK    4  A    between atoms: C6_8  and  C7_9 
REMARK    5  A    between atoms: C8_11  and  C9_12 
REMARK       I    between atoms: C9_12  and  N3_14 
REMARK    6  A    between atoms: N3_14  and  C10_15 
ROOT
HETATM    1  C3  UNL     1      22.858   0.551  53.225  1.00  0.00     0.015 C 
HETATM    2  C4  UNL     1      24.136   0.846  53.116  1.00  0.00    -0.036 C 
HETATM    3  C5  UNL     1      25.073  -0.330  53.206  1.00  0.00     0.305 C 
HETATM    4  N2  UNL     1      26.378   0.210  52.912  1.00  0.00     0.097 N 
HETATM    5  C6  UNL     1      26.162   1.444  52.183  1.00  0.00     0.271 C 
HETATM    6  C8  UNL     1      24.977   2.036  52.923  1.00  0.00     0.146 C 
HETATM    7  H6  UNL     1      26.930   0.358  53.775  1.00  0.00     0.317 HD
ENDROOT
BRANCH   6   8
HETATM    8  C9  UNL     1      24.380   3.096  52.098  1.00  0.00     0.233 C 
HETATM    9  O1  UNL     1      24.153   2.983  50.847  1.00  0.00    -0.272 OA
HETATM   10  N3  UNL     1      23.994   4.363  52.616  1.00  0.00    -0.327 N 
HETATM   11  H10 UNL     1      24.128   4.582  53.625  1.00  0.00     0.169 HD
BRANCH  10  12
HETATM   12  C10 UNL     1      23.413   5.435  51.883  1.00  0.00     0.034 A 
HETATM   13  C11 UNL     1      24.285   6.417  51.461  1.00  0.00     0.029 A 
HETATM   14  C12 UNL     1      23.778   7.493  50.740  1.00  0.00     0.002 A 
HETATM   15  C13 UNL     1      22.417   7.545  50.467  1.00  0.00     0.000 A 
HETATM   16  C14 UNL     1      21.557   6.541  50.903  1.00  0.00     0.002 A 
HETATM   17  C15 UNL     1      22.043   5.469  51.619  1.00  0.00     0.029 A 
ENDBRANCH  10  12
ENDBRANCH   6   8
BRANCH   5  18
HETATM   18  C7  UNL     1      27.336   2.334  52.214  1.00  0.00     0.090 C 
HETATM   19  S1  UNL     1      28.161   2.147  53.385  1.00  0.00    -0.095 SA
ENDBRANCH   5  18
BRANCH   1  20
HETATM   20  C2  UNL     1      22.609  -0.873  53.413  1.00  0.00     0.076 C 
BRANCH  20  21
HETATM   21  C1  UNL     1      21.612  -1.278  54.187  1.00  0.00    -0.025 C 
BRANCH  21  22
HETATM   22  N1  UNL     1      20.511  -1.764  54.646  1.00  0.00    -0.258 NA
HETATM   23  H1  UNL     1      20.539  -2.329  55.538  1.00  0.00     0.197 HD
ENDBRANCH  21  22
ENDBRANCH  20  21
ENDBRANCH   1  20
TORSDOF 6
ENDMDL
MODEL 6
REMARK VINA RESULT:      -6.4      7.878      9.517
REMARK  6 active torsions:
REMARK  status: ('A' for Active; 'I' for Inactive)
REMARK    1  A    between atoms: N1_1  and  C1_2 
REMARK    2  A    between atoms: C1_2  and  C2_3 
REMARK    3  A    between atoms: C2_3  and  C3_4 
REMARK    4  A    between atoms: C6_8  and  C7_9 
REMARK    5  A    between atoms: C8_11  and  C9_12 
REMARK       I    between atoms: C9_12  and  N3_14 
REMARK    6  A    between atoms: N3_14  and  C10_15 
ROOT
HETATM    1  C3  UNL     1      27.456   4.887  48.657  1.00  0.00     0.015 C 
HETATM    2  C4  UNL     1      27.956   6.079  48.410  1.00  0.00    -0.036 C 
HETATM    3  C5  UNL     1      27.046   7.234  48.739  1.00  0.00     0.305 C 
HETATM    4  N2  UNL     1      27.852   8.412  48.532  1.00  0.00     0.097 N 
HETATM    5  C6  UNL     1      29.235   7.990  48.617  1.00  0.00     0.271 C 
HETATM    6  C8  UNL     1      29.198   6.663  47.883  1.00  0.00     0.146 C 
HETATM    7  H6  UNL     1      27.636   8.865  47.627  1.00  0.00     0.317 HD
ENDROOT
BRANCH   6   8
HETATM    8  C9  UNL     1      30.422   5.911  48.193  1.00  0.00     0.233 C 
HETATM    9  O1  UNL     1      30.746   5.528  49.367  1.00  0.00    -0.272 OA
HETATM   10  N3  UNL     1      31.376   5.533  47.209  1.00  0.00    -0.327 N 
HETATM   11  H10 UNL     1      31.229   5.786  46.209  1.00  0.00     0.169 HD
BRANCH  10  12
HETATM   12  C10 UNL     1      32.580   4.808  47.430  1.00  0.00     0.034 A 
HETATM   13  C11 UNL     1      32.507   3.445  47.229  1.00  0.00     0.029 A 
HETATM   14  C12 UNL     1      33.651   2.680  47.430  1.00  0.00     0.002 A 
HETATM   15  C13 UNL     1      34.826   3.309  47.823  1.00  0.00     0.000 A 
HETATM   16  C14 UNL     1      34.874   4.686  48.020  1.00  0.00     0.002 A 
HETATM   17  C15 UNL     1      33.750   5.458  47.825  1.00  0.00     0.029 A 
ENDBRANCH  10  12
ENDBRANCH   6   8
BRANCH   5  18
HETATM   18  C7  UNL     1      30.161   8.947  47.985  1.00  0.00     0.090 C 
HETATM   19  S1  UNL     1      30.712   9.905  48.915  1.00  0.00    -0.095 SA
ENDBRANCH   5  18
BRANCH   1  20
HETATM   20  C2  UNL     1      26.105   4.930  49.205  1.00  0.00     0.076 C 
BRANCH  20  21
HETATM   21  C1  UNL     1      25.764   4.122  50.198  1.00  0.00    -0.025 C 
BRANCH  21  22
HETATM   22  N1  UNL     1      25.329   3.622  51.302  1.00  0.00    -0.258 NA
HETATM   23  H1  UNL     1      24.715   2.763  51.263  1.00  0.00     0.197 HD
ENDBRANCH  21  22
ENDBRANCH  20  21
ENDBRANCH   1  20
TORSDOF 6
ENDMDL
MODEL 7
REMARK VINA RESULT:      -6.1      3.372      5.328
REMARK  6 active torsions:
REMARK  status: ('A' for Active; 'I' for Inactive)
REMARK    1  A    between atoms: N1_1  and  C1_2 
REMARK    2  A    between atoms: C1_2  and  C2_3 
REMARK    3  A    between atoms: C2_3  and  C3_4 
REMARK    4  A    between atoms: C6_8  and  C7_9 
REMARK    5  A    between atoms: C8_11  and  C9_12 
REMARK       I    between atoms: C9_12  and  N3_14 
REMARK    6  A    between atoms: N3_14  and  C10_15 
ROOT
HETATM    1  C3  UNL     1      25.421   7.018  50.670  1.00  0.00     0.015 C 
HETATM    2  C4  UNL     1      24.141   6.740  50.790  1.00  0.00    -0.036 C 
HETATM    3  C5  UNL     1      23.206   7.769  50.209  1.00  0.00     0.305 C 
HETATM    4  N2  UNL     1      21.893   7.185  50.323  1.00  0.00     0.097 N 
HETATM    5  C6  UNL     1      22.083   5.753  50.438  1.00  0.00     0.271 C 
HETATM    6  C8  UNL     1      23.294   5.676  51.349  1.00  0.00     0.146 C 
HETATM    7  H6  UNL     1      21.372   7.576  51.127  1.00  0.00     0.317 HD
ENDROOT
BRANCH   6   8
HETATM    8  C9  UNL     1      23.862   4.323  51.275  1.00  0.00     0.233 C 
HETATM    9  O1  UNL     1      23.897   3.621  50.208  1.00  0.00    -0.272 OA
HETATM   10  N3  UNL     1      24.433   3.653  52.392  1.00  0.00    -0.327 N 
HETATM   11  H10 UNL     1      24.466   4.118  53.324  1.00  0.00     0.169 HD
BRANCH  10  12
HETATM   12  C10 UNL     1      24.999   2.348  52.399  1.00  0.00     0.034 A 
HETATM   13  C11 UNL     1      24.245   1.368  53.010  1.00  0.00     0.029 A 
HETATM   14  C12 UNL     1      24.745   0.071  53.050  1.00  0.00     0.002 A 
HETATM   15  C13 UNL     1      25.980  -0.197  52.475  1.00  0.00     0.000 A 
HETATM   16  C14 UNL     1      26.722   0.809  51.862  1.00  0.00     0.002 A 
HETATM   17  C15 UNL     1      26.242   2.099  51.815  1.00  0.00     0.029 A 
ENDBRANCH  10  12
ENDBRANCH   6   8
BRANCH   5  18
HETATM   18  C7  UNL     1      20.911   5.069  51.015  1.00  0.00     0.090 C 
HETATM   19  S1  UNL     1      20.135   4.346  50.035  1.00  0.00    -0.095 SA
ENDBRANCH   5  18
BRANCH   1  20
HETATM   20  C2  UNL     1      25.676   8.282  49.990  1.00  0.00     0.076 C 
BRANCH  20  21
HETATM   21  C1  UNL     1      26.801   8.944  50.216  1.00  0.00    -0.025 C 
BRANCH  21  22
HETATM   22  N1  UNL     1      27.870   9.442  50.735  1.00  0.00    -0.258 NA
HETATM   23  H1  UNL     1      28.259  10.339  50.335  1.00  0.00     0.197 HD
ENDBRANCH  21  22
ENDBRANCH  20  21
ENDBRANCH   1  20
TORSDOF 6
ENDMDL
MODEL 8
REMARK VINA RESULT:      -6.0      2.134      5.875
REMARK  6 active torsions:
REMARK  status: ('A' for Active; 'I' for Inactive)
REMARK    1  A    between atoms: N1_1  and  C1_2 
REMARK    2  A    between atoms: C1_2  and  C2_3 
REMARK    3  A    between atoms: C2_3  and  C3_4 
REMARK    4  A    between atoms: C6_8  and  C7_9 
REMARK    5  A    between atoms: C8_11  and  C9_12 
REMARK       I    between atoms: C9_12  and  N3_14 
REMARK    6  A    between atoms: N3_14  and  C10_15 
ROOT
HETATM    1  C3  UNL     1      26.294   0.400  52.492  1.00  0.00     0.015 C 
HETATM    2  C4  UNL     1      25.116   0.045  52.956  1.00  0.00    -0.036 C 
HETATM    3  C5  UNL     1      25.146  -0.743  54.241  1.00  0.00     0.305 C 
HETATM    4  N2  UNL     1      23.763  -0.883  54.624  1.00  0.00     0.097 N 
HETATM    5  C6  UNL     1      23.037   0.176  53.952  1.00  0.00     0.271 C 
HETATM    6  C8  UNL     1      23.700   0.186  52.587  1.00  0.00     0.146 C 
HETATM    7  H6  UNL     1      23.397  -1.821  54.386  1.00  0.00     0.317 HD
ENDROOT
BRANCH   6   8
HETATM    8  C9  UNL     1      23.356   1.438  51.899  1.00  0.00     0.233 C 
HETATM    9  O1  UNL     1      22.953   1.500  50.689  1.00  0.00    -0.272 OA
HETATM   10  N3  UNL     1      23.440   2.716  52.517  1.00  0.00    -0.327 N 
HETATM   11  H10 UNL     1      23.757   2.804  53.505  1.00  0.00     0.169 HD
BRANCH  10  12
HETATM   12  C10 UNL     1      23.127   3.969  51.918  1.00  0.00     0.034 A 
HETATM   13  C11 UNL     1      24.182   4.633  51.327  1.00  0.00     0.029 A 
HETATM   14  C12 UNL     1      23.940   5.863  50.725  1.00  0.00     0.002 A 
HETATM   15  C13 UNL     1      22.651   6.381  50.735  1.00  0.00     0.000 A 
HETATM   16  C14 UNL     1      21.603   5.691  51.337  1.00  0.00     0.002 A 
HETATM   17  C15 UNL     1      21.826   4.472  51.939  1.00  0.00     0.029 A 
ENDBRANCH  10  12
ENDBRANCH   6   8
BRANCH   5  18
HETATM   18  C7  UNL     1      21.590  -0.097  53.862  1.00  0.00     0.090 C 
HETATM   19  S1  UNL     1      21.240  -1.444  54.250  1.00  0.00    -0.095 SA
ENDBRANCH   5  18
BRANCH   1  20
HETATM   20  C2  UNL     1      27.403  -0.047  53.327  1.00  0.00     0.076 C 
BRANCH  20  21
HETATM   21  C1  UNL     1      28.268   0.832  53.811  1.00  0.00    -0.025 C 
BRANCH  21  22
HETATM   22  N1  UNL     1      28.934   1.639  54.563  1.00  0.00    -0.258 NA
HETATM   23  H1  UNL     1      28.900   2.673  54.352  1.00  0.00     0.197 HD
ENDBRANCH  21  22
ENDBRANCH  20  21
ENDBRANCH   1  20
TORSDOF 6
ENDMDL
MODEL 9
REMARK VINA RESULT:      -6.0      3.515      6.234
REMARK  6 active torsions:
REMARK  status: ('A' for Active; 'I' for Inactive)
REMARK    1  A    between atoms: N1_1  and  C1_2 
REMARK    2  A    between atoms: C1_2  and  C2_3 
REMARK    3  A    between atoms: C2_3  and  C3_4 
REMARK    4  A    between atoms: C6_8  and  C7_9 
REMARK    5  A    between atoms: C8_11  and  C9_12 
REMARK       I    between atoms: C9_12  and  N3_14 
REMARK    6  A    between atoms: N3_14  and  C10_15 
ROOT
HETATM    1  C3  UNL     1      24.453   1.217  52.249  1.00  0.00     0.015 C 
HETATM    2  C4  UNL     1      23.355   1.892  51.984  1.00  0.00    -0.036 C 
HETATM    3  C5  UNL     1      22.165   1.537  52.838  1.00  0.00     0.305 C 
HETATM    4  N2  UNL     1      21.148   2.492  52.474  1.00  0.00     0.097 N 
HETATM    5  C6  UNL     1      21.833   3.625  51.886  1.00  0.00     0.271 C 
HETATM    6  C8  UNL     1      22.905   2.942  51.059  1.00  0.00     0.146 C 
HETATM    7  H6  UNL     1      20.453   2.077  51.828  1.00  0.00     0.317 HD
ENDROOT
BRANCH   6   8
HETATM    8  C9  UNL     1      23.929   3.931  50.694  1.00  0.00     0.233 C 
HETATM    9  O1  UNL     1      24.277   4.907  51.440  1.00  0.00    -0.272 OA
HETATM   10  N3  UNL     1      24.638   3.901  49.462  1.00  0.00    -0.327 N 
HETATM   11  H10 UNL     1      24.447   3.154  48.762  1.00  0.00     0.169 HD
BRANCH  10  12
HETATM   12  C10 UNL     1      25.639   4.820  49.038  1.00  0.00     0.034 A 
HETATM   13  C11 UNL     1      26.936   4.352  49.065  1.00  0.00     0.029 A 
HETATM   14  C12 UNL     1      27.960   5.202  48.663  1.00  0.00     0.002 A 
HETATM   15  C13 UNL     1      27.647   6.490  48.247  1.00  0.00     0.000 A 
HETATM   16  C14 UNL     1      26.330   6.939  48.228  1.00  0.00     0.002 A 
HETATM   17  C15 UNL     1      25.304   6.110  48.623  1.00  0.00     0.029 A 
ENDBRANCH  10  12
ENDBRANCH   6   8
BRANCH   5  18
HETATM   18  C7  UNL     1      20.942   4.460  51.059  1.00  0.00     0.090 C 
HETATM   19  S1  UNL     1      20.074   3.688  50.201  1.00  0.00    -0.095 SA
ENDBRANCH   5  18
BRANCH   1  20
HETATM   20  C2  UNL     1      24.291   0.252  53.330  1.00  0.00     0.076 C 
BRANCH  20  21
HETATM   21  C1  UNL     1      25.338  -0.423  53.782  1.00  0.00    -0.025 C 
BRANCH  21  22
HETATM   22  N1  UNL     1      26.378  -1.173  53.902  1.00  0.00    -0.258 NA
HETATM   23  H1  UNL     1      27.308  -0.810  53.555  1.00  0.00     0.197 HD
ENDBRANCH  21  22
ENDBRANCH  20  21
ENDBRANCH   1  20
TORSDOF 6
ENDMDL
