MODEL 1
REMARK VINA RESULT:      -7.4      0.000      0.000
REMARK  3 active torsions:
REMARK  status: ('A' for Active; 'I' for Inactive)
REMARK    1  A    between atoms: N1_2  and  C2_3 
REMARK       I    between atoms: N2_7  and  C6_8 
REMARK    2  A    between atoms: C6_8  and  C7_10 
REMARK    3  A    between atoms: C10_13  and  O2_14 
ROOT
HETATM    1  C2  UNL     1      21.447   0.448  53.054  1.00  0.00     0.001 C 
HETATM    2  C3  UNL     1      22.721   0.606  53.361  1.00  0.00    -0.020 C 
HETATM    3  C4  UNL     1      23.202   1.801  52.589  1.00  0.00     0.058 C 
HETATM    4  C5  UNL     1      23.979   1.350  51.376  1.00  0.00     0.130 C 
HETATM    5  N2  UNL     1      25.415   1.250  51.637  1.00  0.00    -0.348 N 
HETATM    6  C6  UNL     1      26.187   2.420  51.393  1.00  0.00     0.219 C 
HETATM    7  O1  UNL     1      27.389   2.782  51.471  1.00  0.00    -0.273 OA
HETATM    8  C9  UNL     1      26.191   0.122  52.117  1.00  0.00     0.189 C 
HETATM    9  C10 UNL     1      25.826  -0.095  53.565  1.00  0.00     0.375 C 
HETATM   10  N3  UNL     1      24.616  -0.893  53.575  1.00  0.00     0.130 N 
HETATM   11  C12 UNL     1      23.523  -0.231  54.282  1.00  0.00     0.322 C 
HETATM   12  C13 UNL     1      22.645  -1.277  54.852  1.00  0.00     0.130 C 
HETATM   13  N4  UNL     1      23.007  -1.872  55.963  1.00  0.00    -0.286 NA
HETATM   14  N5  UNL     1      21.428  -1.642  54.217  1.00  0.00    -0.371 N 
HETATM   15  C14 UNL     1      20.615  -0.621  53.613  1.00  0.00     0.171 C 
HETATM   16  H18 UNL     1      24.771  -1.862  53.891  1.00  0.00     0.320 HD
HETATM   17  H20 UNL     1      23.903  -1.597  56.421  1.00  0.00     0.188 HD
HETATM   18  H21 UNL     1      21.164  -2.672  54.216  1.00  0.00     0.161 HD
ENDROOT
BRANCH   6  19
HETATM   19  C7  UNL     1      25.568   3.654  50.909  1.00  0.00     0.098 C 
HETATM   20  C8  UNL     1      26.223   4.010  49.584  1.00  0.00     0.014 C 
ENDBRANCH   6  19
BRANCH   9  21
HETATM   21  O2  UNL     1      26.834  -0.628  54.315  1.00  0.00    -0.361 OA
HETATM   22  C11 UNL     1      27.925   0.216  54.477  1.00  0.00     0.204 C 
ENDBRANCH   9  21
BRANCH   1  23
HETATM   23  N1  UNL     1      20.994   1.427  52.137  1.00  0.00    -0.311 NA
HETATM   24  C1  UNL     1      19.857   1.379  51.537  1.00  0.00     0.260 C 
ENDBRANCH   1  23
TORSDOF 3
ENDMDL
MODEL 2
REMARK VINA RESULT:      -7.4      2.353      5.542
REMARK  3 active torsions:
REMARK  status: ('A' for Active; 'I' for Inactive)
REMARK    1  A    between atoms: N1_2  and  C2_3 
REMARK       I    between atoms: N2_7  and  C6_8 
REMARK    2  A    between atoms: C6_8  and  C7_10 
REMARK    3  A    between atoms: C10_13  and  O2_14 
ROOT
HETATM    1  C2  UNL     1      23.695   3.932  49.635  1.00  0.00     0.001 C 
HETATM    2  C3  UNL     1      24.522   3.073  50.201  1.00  0.00    -0.020 C 
HETATM    3  C4  UNL     1      23.669   2.000  50.816  1.00  0.00     0.058 C 
HETATM    4  C5  UNL     1      23.551   2.228  52.303  1.00  0.00     0.130 C 
HETATM    5  N2  UNL     1      24.572   1.508  53.062  1.00  0.00    -0.348 N 
HETATM    6  C6  UNL     1      24.237   0.191  53.485  1.00  0.00     0.219 C 
HETATM    7  O1  UNL     1      24.769  -0.751  54.127  1.00  0.00    -0.273 OA
HETATM    8  C9  UNL     1      25.901   1.933  53.460  1.00  0.00     0.189 C 
HETATM    9  C10 UNL     1      26.749   1.992  52.213  1.00  0.00     0.375 C 
HETATM   10  N3  UNL     1      26.495   3.279  51.597  1.00  0.00     0.130 N 
HETATM   11  C12 UNL     1      26.000   3.149  50.229  1.00  0.00     0.322 C 
HETATM   12  C13 UNL     1      26.423   4.349  49.473  1.00  0.00     0.130 C 
HETATM   13  N4  UNL     1      27.654   4.414  49.024  1.00  0.00    -0.286 NA
HETATM   14  N5  UNL     1      25.523   5.419  49.229  1.00  0.00    -0.371 N 
HETATM   15  C14 UNL     1      24.149   5.129  48.922  1.00  0.00     0.171 C 
HETATM   16  H18 UNL     1      27.289   3.931  51.677  1.00  0.00     0.320 HD
HETATM   17  H20 UNL     1      28.307   3.622  49.208  1.00  0.00     0.188 HD
HETATM   18  H21 UNL     1      25.910   6.409  49.283  1.00  0.00     0.161 HD
ENDROOT
BRANCH   6  19
HETATM   19  C7  UNL     1      22.938  -0.404  53.170  1.00  0.00     0.098 C 
HETATM   20  C8  UNL     1      22.307  -0.854  54.478  1.00  0.00     0.014 C 
ENDBRANCH   6  19
BRANCH   9  21
HETATM   21  O2  UNL     1      28.074   1.747  52.433  1.00  0.00    -0.361 OA
HETATM   22  C11 UNL     1      28.588   2.385  53.553  1.00  0.00     0.204 C 
ENDBRANCH   9  21
BRANCH   1  23
HETATM   23  N1  UNL     1      22.340   3.555  49.799  1.00  0.00    -0.311 NA
HETATM   24  C1  UNL     1      21.343   4.318  49.520  1.00  0.00     0.260 C 
ENDBRANCH   1  23
TORSDOF 3
ENDMDL
MODEL 3
REMARK VINA RESULT:      -7.0      1.628      4.436
REMARK  3 active torsions:
REMARK  status: ('A' for Active; 'I' for Inactive)
REMARK    1  A    between atoms: N1_2  and  C2_3 
REMARK       I    between atoms: N2_7  and  C6_8 
REMARK    2  A    between atoms: C6_8  and  C7_10 
REMARK    3  A    between atoms: C10_13  and  O2_14 
ROOT
HETATM    1  C2  UNL     1      23.301   0.010  53.478  1.00  0.00     0.001 C 
HETATM    2  C3  UNL     1      24.377   0.368  52.804  1.00  0.00    -0.020 C 
HETATM    3  C4  UNL     1      25.530  -0.380  53.412  1.00  0.00     0.058 C 
HETATM    4  C5  UNL     1      26.308   0.534  54.327  1.00  0.00     0.130 C 
HETATM    5  N2  UNL     1      27.418   1.197  53.644  1.00  0.00    -0.348 N 
HETATM    6  C6  UNL     1      28.669   0.518  53.660  1.00  0.00     0.219 C 
HETATM    7  O1  UNL     1      29.837   0.696  53.229  1.00  0.00    -0.273 OA
HETATM    8  C9  UNL     1      27.445   2.463  52.937  1.00  0.00     0.189 C 
HETATM    9  C10 UNL     1      26.656   2.287  51.664  1.00  0.00     0.375 C 
HETATM   10  N3  UNL     1      25.262   2.481  52.007  1.00  0.00     0.130 N 
HETATM   11  C12 UNL     1      24.442   1.320  51.672  1.00  0.00     0.322 C 
HETATM   12  C13 UNL     1      23.071   1.795  51.379  1.00  0.00     0.130 C 
HETATM   13  N4  UNL     1      22.819   2.316  50.201  1.00  0.00    -0.286 NA
HETATM   14  N5  UNL     1      22.036   1.695  52.345  1.00  0.00    -0.371 N 
HETATM   15  C14 UNL     1      21.961   0.527  53.181  1.00  0.00     0.171 C 
HETATM   16  H18 UNL     1      24.873   3.365  51.645  1.00  0.00     0.320 HD
HETATM   17  H20 UNL     1      23.587   2.384  49.499  1.00  0.00     0.188 HD
HETATM   18  H21 UNL     1      21.346   2.502  52.412  1.00  0.00     0.161 HD
ENDROOT
BRANCH   6  19
HETATM   19  C7  UNL     1      28.826  -0.776  54.326  1.00  0.00     0.098 C 
HETATM   20  C8  UNL     1      29.572  -1.697  53.376  1.00  0.00     0.014 C 
ENDBRANCH   6  19
BRANCH   9  21
HETATM   21  O2  UNL     1      27.078   3.081  50.636  1.00  0.00    -0.361 OA
HETATM   22  C11 UNL     1      26.095   3.923  50.133  1.00  0.00     0.204 C 
ENDBRANCH   9  21
BRANCH   1  23
HETATM   23  N1  UNL     1      23.597  -0.921  54.502  1.00  0.00    -0.311 NA
HETATM   24  C1  UNL     1      22.723  -1.395  55.318  1.00  0.00     0.260 C 
ENDBRANCH   1  23
TORSDOF 3
ENDMDL
MODEL 4
REMARK VINA RESULT:      -7.0      2.119      4.773
REMARK  3 active torsions:
REMARK  status: ('A' for Active; 'I' for Inactive)
REMARK    1  A    between atoms: N1_2  and  C2_3 
REMARK       I    between atoms: N2_7  and  C6_8 
REMARK    2  A    between atoms: C6_8  and  C7_10 
REMARK    3  A    between atoms: C10_13  and  O2_14 
ROOT
HETATM    1  C2  UNL     1      24.948   3.234  50.438  1.00  0.00     0.001 C 
HETATM    2  C3  UNL     1      24.895   2.556  51.568  1.00  0.00    -0.020 C 
HETATM    3  C4  UNL     1      26.313   2.397  52.038  1.00  0.00     0.058 C 
HETATM    4  C5  UNL     1      26.809   1.009  51.713  1.00  0.00     0.130 C 
HETATM    5  N2  UNL     1      26.599   0.068  52.812  1.00  0.00    -0.348 N 
HETATM    6  C6  UNL     1      27.653  -0.044  53.762  1.00  0.00     0.219 C 
HETATM    7  O1  UNL     1      27.903  -0.689  54.813  1.00  0.00    -0.273 OA
HETATM    8  C9  UNL     1      25.461  -0.787  53.093  1.00  0.00     0.189 C 
HETATM    9  C10 UNL     1      24.322   0.103  53.526  1.00  0.00     0.375 C 
HETATM   10  N3  UNL     1      23.690   0.588  52.315  1.00  0.00     0.130 N 
HETATM   11  C12 UNL     1      23.680   2.047  52.243  1.00  0.00     0.322 C 
HETATM   12  C13 UNL     1      22.497   2.459  51.454  1.00  0.00     0.130 C 
HETATM   13  N4  UNL     1      21.322   2.477  52.036  1.00  0.00    -0.286 NA
HETATM   14  N5  UNL     1      22.617   2.831  50.089  1.00  0.00    -0.371 N 
HETATM   15  C14 UNL     1      23.757   3.597  49.664  1.00  0.00     0.171 C 
HETATM   16  H18 UNL     1      22.762   0.171  52.146  1.00  0.00     0.320 HD
HETATM   17  H20 UNL     1      21.245   2.203  53.039  1.00  0.00     0.188 HD
HETATM   18  H21 UNL     1      21.844   2.522  49.426  1.00  0.00     0.161 HD
ENDROOT
BRANCH   6  19
HETATM   19  C7  UNL     1      28.878   0.747  53.638  1.00  0.00     0.098 C 
HETATM   20  C8  UNL     1      30.044  -0.222  53.526  1.00  0.00     0.014 C 
ENDBRANCH   6  19
BRANCH   9  21
HETATM   21  O2  UNL     1      23.452  -0.493  54.392  1.00  0.00    -0.361 OA
HETATM   22  C11 UNL     1      22.296  -0.973  53.791  1.00  0.00     0.204 C 
ENDBRANCH   9  21
BRANCH   1  23
HETATM   23  N1  UNL     1      26.277   3.565  50.076  1.00  0.00    -0.311 NA
HETATM   24  C1  UNL     1      26.583   4.414  49.159  1.00  0.00     0.260 C 
ENDBRANCH   1  23
TORSDOF 3
ENDMDL
MODEL 5
REMARK VINA RESULT:      -6.9      2.152      4.170
REMARK  3 active torsions:
REMARK  status: ('A' for Active; 'I' for Inactive)
REMARK    1  A    between atoms: N1_2  and  C2_3 
REMARK       I    between atoms: N2_7  and  C6_8 
REMARK    2  A    between atoms: C6_8  and  C7_10 
REMARK    3  A    between atoms: C10_13  and  O2_14 
ROOT
HETATM    1  C2  UNL     1      25.408  -0.632  54.442  1.00  0.00     0.001 C 
HETATM    2  C3  UNL     1      24.594  -0.211  53.493  1.00  0.00    -0.020 C 
HETATM    3  C4  UNL     1      25.451   0.475  52.467  1.00  0.00     0.058 C 
HETATM    4  C5  UNL     1      25.355   1.972  52.637  1.00  0.00     0.130 C 
HETATM    5  N2  UNL     1      24.311   2.564  51.801  1.00  0.00    -0.348 N 
HETATM    6  C6  UNL     1      24.703   2.983  50.499  1.00  0.00     0.219 C 
HETATM    7  O1  UNL     1      24.178   3.516  49.487  1.00  0.00    -0.273 OA
HETATM    8  C9  UNL     1      22.910   2.795  52.096  1.00  0.00     0.189 C 
HETATM    9  C10 UNL     1      22.229   1.449  52.140  1.00  0.00     0.375 C 
HETATM   10  N3  UNL     1      22.446   0.917  53.470  1.00  0.00     0.130 N 
HETATM   11  C12 UNL     1      23.124  -0.377  53.444  1.00  0.00     0.322 C 
HETATM   12  C13 UNL     1      22.698  -1.142  54.638  1.00  0.00     0.130 C 
HETATM   13  N4  UNL     1      21.535  -1.748  54.621  1.00  0.00    -0.286 NA
HETATM   14  N5  UNL     1      23.524  -1.228  55.790  1.00  0.00    -0.371 N 
HETATM   15  C14 UNL     1      24.947  -1.358  55.629  1.00  0.00     0.171 C 
HETATM   16  H18 UNL     1      21.594   0.912  54.051  1.00  0.00     0.320 HD
HETATM   17  H20 UNL     1      20.936  -1.679  53.770  1.00  0.00     0.188 HD
HETATM   18  H21 UNL     1      23.047  -1.191  56.740  1.00  0.00     0.161 HD
ENDROOT
BRANCH   6  19
HETATM   19  C7  UNL     1      26.080   2.824  50.029  1.00  0.00     0.098 C 
HETATM   20  C8  UNL     1      26.518   4.148  49.426  1.00  0.00     0.014 C 
ENDBRANCH   6  19
BRANCH   9  21
HETATM   21  O2  UNL     1      20.913   1.482  51.776  1.00  0.00    -0.361 OA
HETATM   22  C11 UNL     1      20.185   2.498  52.380  1.00  0.00     0.204 C 
ENDBRANCH   9  21
BRANCH   1  23
HETATM   23  N1  UNL     1      26.758  -0.302  54.172  1.00  0.00    -0.311 NA
HETATM   24  C1  UNL     1      27.601   0.069  55.070  1.00  0.00     0.260 C 
ENDBRANCH   1  23
TORSDOF 3
ENDMDL
MODEL 6
REMARK VINA RESULT:      -6.7      2.638      4.681
REMARK  3 active torsions:
REMARK  status: ('A' for Active; 'I' for Inactive)
REMARK    1  A    between atoms: N1_2  and  C2_3 
REMARK       I    between atoms: N2_7  and  C6_8 
REMARK    2  A    between atoms: C6_8  and  C7_10 
REMARK    3  A    between atoms: C10_13  and  O2_14 
ROOT
HETATM    1  C2  UNL     1      23.041  -0.415  53.709  1.00  0.00     0.001 C 
HETATM    2  C3  UNL     1      22.361   0.339  52.867  1.00  0.00    -0.020 C 
HETATM    3  C4  UNL     1      23.375   1.064  52.028  1.00  0.00     0.058 C 
HETATM    4  C5  UNL     1      23.529   2.482  52.523  1.00  0.00     0.130 C 
HETATM    5  N2  UNL     1      22.647   3.417  51.825  1.00  0.00    -0.348 N 
HETATM    6  C6  UNL     1      23.171   4.028  50.652  1.00  0.00     0.219 C 
HETATM    7  O1  UNL     1      22.797   4.852  49.777  1.00  0.00    -0.273 OA
HETATM    8  C9  UNL     1      21.293   3.826  52.147  1.00  0.00     0.189 C 
HETATM    9  C10 UNL     1      20.389   2.647  51.886  1.00  0.00     0.375 C 
HETATM   10  N3  UNL     1      20.443   1.811  53.068  1.00  0.00     0.130 N 
HETATM   11  C12 UNL     1      20.888   0.453  52.766  1.00  0.00     0.322 C 
HETATM   12  C13 UNL     1      20.277  -0.461  53.756  1.00  0.00     0.130 C 
HETATM   13  N4  UNL     1      19.029  -0.832  53.592  1.00  0.00    -0.286 NA
HETATM   14  N5  UNL     1      21.016  -0.939  54.870  1.00  0.00    -0.371 N 
HETATM   15  C14 UNL     1      22.402  -1.285  54.701  1.00  0.00     0.171 C 
HETATM   16  H18 UNL     1      19.574   1.834  53.623  1.00  0.00     0.320 HD
HETATM   17  H20 UNL     1      18.495  -0.475  52.770  1.00  0.00     0.188 HD
HETATM   18  H21 UNL     1      20.505  -1.023  55.800  1.00  0.00     0.161 HD
ENDROOT
BRANCH   6  19
HETATM   19  C7  UNL     1      24.522   3.730  50.175  1.00  0.00     0.098 C 
HETATM   20  C8  UNL     1      25.183   5.048  49.806  1.00  0.00     0.014 C 
ENDBRANCH   6  19
BRANCH   9  21
HETATM   21  O2  UNL     1      19.119   2.992  51.522  1.00  0.00    -0.361 OA
HETATM   22  C11 UNL     1      19.045   4.148  50.757  1.00  0.00     0.204 C 
ENDBRANCH   9  21
BRANCH   1  23
HETATM   23  N1  UNL     1      24.439  -0.282  53.535  1.00  0.00    -0.311 NA
HETATM   24  C1  UNL     1      25.312  -0.661  54.401  1.00  0.00     0.260 C 
ENDBRANCH   1  23
TORSDOF 3
ENDMDL
MODEL 7
REMARK VINA RESULT:      -6.7      1.693      2.579
REMARK  3 active torsions:
REMARK  status: ('A' for Active; 'I' for Inactive)
REMARK    1  A    between atoms: N1_2  and  C2_3 
REMARK       I    between atoms: N2_7  and  C6_8 
REMARK    2  A    between atoms: C6_8  and  C7_10 
REMARK    3  A    between atoms: C10_13  and  O2_14 
ROOT
HETATM    1  C2  UNL     1      22.836   0.753  53.096  1.00  0.00     0.001 C 
HETATM    2  C3  UNL     1      23.912   1.506  52.964  1.00  0.00    -0.020 C 
HETATM    3  C4  UNL     1      23.478   2.746  52.235  1.00  0.00     0.058 C 
HETATM    4  C5  UNL     1      23.875   2.651  50.782  1.00  0.00     0.130 C 
HETATM    5  N2  UNL     1      25.182   3.251  50.519  1.00  0.00    -0.348 N 
HETATM    6  C6  UNL     1      25.190   4.632  50.178  1.00  0.00     0.219 C 
HETATM    7  O1  UNL     1      26.030   5.521  49.883  1.00  0.00    -0.273 OA
HETATM    8  C9  UNL     1      26.501   2.647  50.553  1.00  0.00     0.189 C 
HETATM    9  C10 UNL     1      26.830   2.358  51.996  1.00  0.00     0.375 C 
HETATM   10  N3  UNL     1      26.212   1.087  52.318  1.00  0.00     0.130 N 
HETATM   11  C12 UNL     1      25.279   1.193  53.437  1.00  0.00     0.322 C 
HETATM   12  C13 UNL     1      25.248  -0.113  54.133  1.00  0.00     0.130 C 
HETATM   13  N4  UNL     1      26.217  -0.410  54.966  1.00  0.00    -0.286 NA
HETATM   14  N5  UNL     1      24.194  -1.038  53.914  1.00  0.00    -0.371 N 
HETATM   15  C14 UNL     1      22.849  -0.553  53.763  1.00  0.00     0.171 C 
HETATM   16  H18 UNL     1      26.893   0.322  52.435  1.00  0.00     0.320 HD
HETATM   17  H20 UNL     1      26.987   0.277  55.120  1.00  0.00     0.188 HD
HETATM   18  H21 UNL     1      24.448  -2.071  53.871  1.00  0.00     0.161 HD
ENDROOT
BRANCH   6  19
HETATM   19  C7  UNL     1      23.949   5.405  50.099  1.00  0.00     0.098 C 
HETATM   20  C8  UNL     1      23.705   5.738  48.636  1.00  0.00     0.014 C 
ENDBRANCH   6  19
BRANCH   9  21
HETATM   21  O2  UNL     1      28.164   2.401  52.279  1.00  0.00    -0.361 OA
HETATM   22  C11 UNL     1      28.451   2.491  53.635  1.00  0.00     0.204 C 
ENDBRANCH   9  21
BRANCH   1  23
HETATM   23  N1  UNL     1      21.689   1.355  52.525  1.00  0.00    -0.311 NA
HETATM   24  C1  UNL     1      20.550   0.769  52.409  1.00  0.00     0.260 C 
ENDBRANCH   1  23
TORSDOF 3
ENDMDL
MODEL 8
REMARK VINA RESULT:      -6.5      8.538     11.063
REMARK  3 active torsions:
REMARK  status: ('A' for Active; 'I' for Inactive)
REMARK    1  A    between atoms: N1_2  and  C2_3 
REMARK       I    between atoms: N2_7  and  C6_8 
REMARK    2  A    between atoms: C6_8  and  C7_10 
REMARK    3  A    between atoms: C10_13  and  O2_14 
ROOT
HETATM    1  C2  UNL     1      28.499   7.583  48.629  1.00  0.00     0.001 C 
HETATM    2  C3  UNL     1      29.776   7.599  48.296  1.00  0.00    -0.020 C 
HETATM    3  C4  UNL     1      30.023   6.356  47.490  1.00  0.00     0.058 C 
HETATM    4  C5  UNL     1      30.690   5.310  48.351  1.00  0.00     0.130 C 
HETATM    5  N2  UNL     1      32.148   5.360  48.264  1.00  0.00    -0.348 N 
HETATM    6  C6  UNL     1      32.752   4.560  47.254  1.00  0.00     0.219 C 
HETATM    7  O1  UNL     1      33.907   4.300  46.830  1.00  0.00    -0.273 OA
HETATM    8  C9  UNL     1      33.097   6.114  49.062  1.00  0.00     0.189 C 
HETATM    9  C10 UNL     1      32.941   7.569  48.697  1.00  0.00     0.375 C 
HETATM   10  N3  UNL     1      31.836   8.080  49.483  1.00  0.00     0.130 N 
HETATM   11  C12 UNL     1      30.773   8.635  48.649  1.00  0.00     0.322 C 
HETATM   12  C13 UNL     1      30.092   9.699  49.421  1.00  0.00     0.130 C 
HETATM   13  N4  UNL     1      30.652  10.883  49.498  1.00  0.00    -0.286 NA
HETATM   14  N5  UNL     1      28.854   9.457  50.071  1.00  0.00    -0.371 N 
HETATM   15  C14 UNL     1      27.865   8.638  49.424  1.00  0.00     0.171 C 
HETATM   16  H18 UNL     1      32.134   8.722  50.233  1.00  0.00     0.320 HD
HETATM   17  H20 UNL     1      31.562  11.049  49.017  1.00  0.00     0.188 HD
HETATM   18  H21 UNL     1      28.706   9.901  51.027  1.00  0.00     0.161 HD
ENDROOT
BRANCH   6  19
HETATM   19  C7  UNL     1      31.946   3.736  46.352  1.00  0.00     0.098 C 
HETATM   20  C8  UNL     1      32.253   2.279  46.661  1.00  0.00     0.014 C 
ENDBRANCH   6  19
BRANCH   9  21
HETATM   21  O2  UNL     1      34.086   8.300  48.830  1.00  0.00    -0.361 OA
HETATM   22  C11 UNL     1      34.700   8.612  47.625  1.00  0.00     0.204 C 
ENDBRANCH   9  21
BRANCH   1  23
HETATM   23  N1  UNL     1      27.831   6.440  48.126  1.00  0.00    -0.311 NA
HETATM   24  C1  UNL     1      26.765   5.943  48.646  1.00  0.00     0.260 C 
ENDBRANCH   1  23
TORSDOF 3
ENDMDL
MODEL 9
REMARK VINA RESULT:      -6.5      3.156      6.412
REMARK  3 active torsions:
REMARK  status: ('A' for Active; 'I' for Inactive)
REMARK    1  A    between atoms: N1_2  and  C2_3 
REMARK       I    between atoms: N2_7  and  C6_8 
REMARK    2  A    between atoms: C6_8  and  C7_10 
REMARK    3  A    between atoms: C10_13  and  O2_14 
ROOT
HETATM    1  C2  UNL     1      24.349   5.770  48.739  1.00  0.00     0.001 C 
HETATM    2  C3  UNL     1      24.715   4.596  49.218  1.00  0.00    -0.020 C 
HETATM    3  C4  UNL     1      23.451   3.850  49.535  1.00  0.00     0.058 C 
HETATM    4  C5  UNL     1      23.181   3.905  51.019  1.00  0.00     0.130 C 
HETATM    5  N2  UNL     1      23.744   2.759  51.733  1.00  0.00    -0.348 N 
HETATM    6  C6  UNL     1      22.902   1.621  51.870  1.00  0.00     0.219 C 
HETATM    7  O1  UNL     1      22.955   0.471  52.378  1.00  0.00    -0.273 OA
HETATM    8  C9  UNL     1      25.054   2.598  52.335  1.00  0.00     0.189 C 
HETATM    9  C10 UNL     1      26.058   2.500  51.213  1.00  0.00     0.375 C 
HETATM   10  N3  UNL     1      26.379   3.858  50.822  1.00  0.00     0.130 N 
HETATM   11  C12 UNL     1      26.100   4.107  49.410  1.00  0.00     0.322 C 
HETATM   12  C13 UNL     1      27.036   5.150  48.934  1.00  0.00     0.130 C 
HETATM   13  N4  UNL     1      28.266   4.808  48.633  1.00  0.00    -0.286 NA
HETATM   14  N5  UNL     1      26.625   6.503  48.801  1.00  0.00    -0.371 N 
HETATM   15  C14 UNL     1      25.306   6.793  48.308  1.00  0.00     0.171 C 
HETATM   16  H18 UNL     1      27.328   4.148  51.100  1.00  0.00     0.320 HD
HETATM   17  H20 UNL     1      28.558   3.812  48.734  1.00  0.00     0.188 HD
HETATM   18  H21 UNL     1      27.322   7.258  49.076  1.00  0.00     0.161 HD
ENDROOT
BRANCH   6  19
HETATM   19  C7  UNL     1      21.545   1.605  51.320  1.00  0.00     0.098 C 
HETATM   20  C8  UNL     1      21.542   0.666  50.126  1.00  0.00     0.014 C 
ENDBRANCH   6  19
BRANCH   9  21
HETATM   21  O2  UNL     1      27.157   1.749  51.518  1.00  0.00    -0.361 OA
HETATM   22  C11 UNL     1      26.868   0.583  52.214  1.00  0.00     0.204 C 
ENDBRANCH   9  21
BRANCH   1  23
HETATM   23  N1  UNL     1      22.941   5.911  48.692  1.00  0.00    -0.311 NA
HETATM   24  C1  UNL     1      22.330   7.042  48.724  1.00  0.00     0.260 C 
ENDBRANCH   1  23
TORSDOF 3
ENDMDL
