MODEL 1
REMARK VINA RESULT:      -9.3      0.000      0.000
REMARK  4 active torsions:
REMARK  status: ('A' for Active; 'I' for Inactive)
REMARK    1  A    between atoms: C6_7  and  C7_8 
REMARK    2  A    between atoms: C7_8  and  C8_9 
REMARK    3  A    between atoms: C8_9  and  O1_10 
REMARK    4  A    between atoms: O1_10  and  C9_11 
ROOT
HETATM    1  C9  UNL     1      23.794   2.196  52.712  1.00  0.00     0.082 C 
HETATM    2  C10 UNL     1      22.511   1.823  52.686  1.00  0.00     0.054 C 
HETATM    3  C11 UNL     1      21.925   0.577  53.206  1.00  0.00     0.030 A 
HETATM    4  C12 UNL     1      20.540   0.667  53.195  1.00  0.00     0.133 A 
HETATM    5  N2  UNL     1      19.909  -0.416  53.650  1.00  0.00    -0.253 NA
HETATM    6  C13 UNL     1      20.556  -1.508  54.084  1.00  0.00     0.234 A 
HETATM    7  N3  UNL     1      21.912  -1.566  54.081  1.00  0.00    -0.224 NA
HETATM    8  C14 UNL     1      22.628  -0.509  53.635  1.00  0.00     0.141 A 
HETATM    9  N4  UNL     1      24.014  -0.760  53.712  1.00  0.00    -0.339 N 
HETATM   10  C15 UNL     1      25.042   0.217  53.668  1.00  0.00     0.048 A 
HETATM   11  C16 UNL     1      26.244  -0.269  54.138  1.00  0.00     0.057 A 
HETATM   12  C17 UNL     1      27.321   0.585  54.147  1.00  0.00     0.074 A 
HETATM   13 CL1  UNL     1      28.880   0.008  54.737  1.00  0.00    -0.081 Cl
HETATM   14  C18 UNL     1      27.265   1.893  53.716  1.00  0.00     0.139 A 
HETATM   15  F1  UNL     1      28.333   2.721  53.731  1.00  0.00    -0.204 F 
HETATM   16  C19 UNL     1      26.068   2.412  53.238  1.00  0.00     0.060 A 
HETATM   17  C20 UNL     1      24.979   1.536  53.232  1.00  0.00     0.027 A 
HETATM   18  H20 UNL     1      24.308  -1.757  53.810  1.00  0.00     0.167 HD
ENDROOT
BRANCH   1  19
HETATM   19  O1  UNL     1      23.937   3.449  52.115  1.00  0.00    -0.350 OA
BRANCH  19  20
HETATM   20  C8  UNL     1      23.035   3.855  51.074  1.00  0.00     0.178 C 
BRANCH  20  21
HETATM   21  C7  UNL     1      23.848   4.072  49.849  1.00  0.00     0.051 C 
BRANCH  21  22
HETATM   22  C6  UNL     1      24.971   5.099  50.029  1.00  0.00     0.082 C 
HETATM   23  C2  UNL     1      25.132   5.953  48.810  1.00  0.00     0.004 C 
HETATM   24  C1  UNL     1      24.187   7.093  48.722  1.00  0.00     0.012 C 
HETATM   25  C3  UNL     1      26.545   6.498  48.868  1.00  0.00     0.008 C 
HETATM   26  C4  UNL     1      27.415   5.327  48.470  1.00  0.00     0.020 C 
HETATM   27  C5  UNL     1      27.150   4.194  49.382  1.00  0.00     0.114 C 
HETATM   28  N1  UNL     1      26.134   4.371  50.345  1.00  0.00    -0.417 N 
HETATM   29  H11 UNL     1      26.055   3.654  51.067  1.00  0.00     0.153 HD
ENDBRANCH  21  22
ENDBRANCH  20  21
ENDBRANCH  19  20
ENDBRANCH   1  19
TORSDOF 4
ENDMDL
MODEL 2
REMARK VINA RESULT:      -9.0      2.794      4.561
REMARK  4 active torsions:
REMARK  status: ('A' for Active; 'I' for Inactive)
REMARK    1  A    between atoms: C6_7  and  C7_8 
REMARK    2  A    between atoms: C7_8  and  C8_9 
REMARK    3  A    between atoms: C8_9  and  O1_10 
REMARK    4  A    between atoms: O1_10  and  C9_11 
ROOT
HETATM    1  C9  UNL     1      24.702   1.912  52.355  1.00  0.00     0.082 C 
HETATM    2  C10 UNL     1      26.016   2.087  52.523  1.00  0.00     0.054 C 
HETATM    3  C11 UNL     1      26.937   1.274  53.332  1.00  0.00     0.030 A 
HETATM    4  C12 UNL     1      28.249   1.642  53.066  1.00  0.00     0.133 A 
HETATM    5  N2  UNL     1      29.167   0.961  53.752  1.00  0.00    -0.253 NA
HETATM    6  C13 UNL     1      28.854  -0.003  54.631  1.00  0.00     0.234 A 
HETATM    7  N3  UNL     1      27.562  -0.339  54.871  1.00  0.00    -0.224 NA
HETATM    8  C14 UNL     1      26.568   0.304  54.215  1.00  0.00     0.141 A 
HETATM    9  N4  UNL     1      25.302  -0.185  54.598  1.00  0.00    -0.339 N 
HETATM   10  C15 UNL     1      24.088  -0.004  53.885  1.00  0.00     0.048 A 
HETATM   11  C16 UNL     1      23.112  -0.893  54.283  1.00  0.00     0.057 A 
HETATM   12  C17 UNL     1      21.886  -0.818  53.665  1.00  0.00     0.074 A 
HETATM   13 CL1  UNL     1      20.605  -1.933  54.143  1.00  0.00    -0.081 Cl
HETATM   14  C18 UNL     1      21.583   0.089  52.674  1.00  0.00     0.139 A 
HETATM   15  F1  UNL     1      20.373   0.151  52.074  1.00  0.00    -0.204 F 
HETATM   16  C19 UNL     1      22.546   0.997  52.251  1.00  0.00     0.060 A 
HETATM   17  C20 UNL     1      23.788   0.914  52.885  1.00  0.00     0.027 A 
HETATM   18  H20 UNL     1      25.255  -0.731  55.488  1.00  0.00     0.167 HD
ENDROOT
BRANCH   1  19
HETATM   19  O1  UNL     1      24.194   2.899  51.511  1.00  0.00    -0.350 OA
BRANCH  19  20
HETATM   20  C8  UNL     1      24.532   2.894  50.115  1.00  0.00     0.178 C 
BRANCH  20  21
HETATM   21  C7  UNL     1      24.249   4.255  49.590  1.00  0.00     0.051 C 
BRANCH  21  22
HETATM   22  C6  UNL     1      25.342   5.280  49.911  1.00  0.00     0.082 C 
HETATM   23  C2  UNL     1      25.362   6.390  48.908  1.00  0.00     0.004 C 
HETATM   24  C1  UNL     1      24.369   7.465  49.151  1.00  0.00     0.012 C 
HETATM   25  C3  UNL     1      26.753   6.989  48.979  1.00  0.00     0.008 C 
HETATM   26  C4  UNL     1      27.631   5.988  48.264  1.00  0.00     0.020 C 
HETATM   27  C5  UNL     1      27.491   4.669  48.914  1.00  0.00     0.114 C 
HETATM   28  N1  UNL     1      26.556   4.568  49.966  1.00  0.00    -0.417 N 
HETATM   29  H11 UNL     1      26.568   3.706  50.512  1.00  0.00     0.153 HD
ENDBRANCH  21  22
ENDBRANCH  20  21
ENDBRANCH  19  20
ENDBRANCH   1  19
TORSDOF 4
ENDMDL
MODEL 3
REMARK VINA RESULT:      -8.8      3.180      4.999
REMARK  4 active torsions:
REMARK  status: ('A' for Active; 'I' for Inactive)
REMARK    1  A    between atoms: C6_7  and  C7_8 
REMARK    2  A    between atoms: C7_8  and  C8_9 
REMARK    3  A    between atoms: C8_9  and  O1_10 
REMARK    4  A    between atoms: O1_10  and  C9_11 
ROOT
HETATM    1  C9  UNL     1      24.734   1.543  51.979  1.00  0.00     0.082 C 
HETATM    2  C10 UNL     1      26.044   1.715  52.174  1.00  0.00     0.054 C 
HETATM    3  C11 UNL     1      26.908   1.027  53.147  1.00  0.00     0.030 A 
HETATM    4  C12 UNL     1      28.239   1.316  52.884  1.00  0.00     0.133 A 
HETATM    5  N2  UNL     1      29.109   0.737  53.713  1.00  0.00    -0.253 NA
HETATM    6  C13 UNL     1      28.732  -0.061  54.723  1.00  0.00     0.234 A 
HETATM    7  N3  UNL     1      27.422  -0.324  54.956  1.00  0.00    -0.224 NA
HETATM    8  C14 UNL     1      26.475   0.224  54.160  1.00  0.00     0.141 A 
HETATM    9  N4  UNL     1      25.180  -0.167  54.560  1.00  0.00    -0.339 N 
HETATM   10  C15 UNL     1      24.003  -0.079  53.773  1.00  0.00     0.048 A 
HETATM   11  C16 UNL     1      22.985  -0.868  54.268  1.00  0.00     0.057 A 
HETATM   12  C17 UNL     1      21.788  -0.869  53.591  1.00  0.00     0.074 A 
HETATM   13 CL1  UNL     1      20.456  -1.861  54.188  1.00  0.00    -0.081 Cl
HETATM   14  C18 UNL     1      21.553  -0.131  52.452  1.00  0.00     0.139 A 
HETATM   15  F1  UNL     1      20.371  -0.143  51.797  1.00  0.00    -0.204 F 
HETATM   16  C19 UNL     1      22.558   0.673  51.929  1.00  0.00     0.060 A 
HETATM   17  C20 UNL     1      23.770   0.668  52.624  1.00  0.00     0.027 A 
HETATM   18  H20 UNL     1      25.082  -0.557  55.524  1.00  0.00     0.167 HD
ENDROOT
BRANCH   1  19
HETATM   19  O1  UNL     1      24.289   2.388  50.963  1.00  0.00    -0.350 OA
BRANCH  19  20
HETATM   20  C8  UNL     1      24.551   3.799  51.036  1.00  0.00     0.178 C 
BRANCH  20  21
HETATM   21  C7  UNL     1      23.808   4.322  52.212  1.00  0.00     0.051 C 
BRANCH  21  22
HETATM   22  C6  UNL     1      23.180   5.701  51.980  1.00  0.00     0.082 C 
HETATM   23  C2  UNL     1      22.420   5.747  50.691  1.00  0.00     0.004 C 
HETATM   24  C1  UNL     1      21.044   5.199  50.762  1.00  0.00     0.012 C 
HETATM   25  C3  UNL     1      22.341   7.211  50.308  1.00  0.00     0.008 C 
HETATM   26  C4  UNL     1      23.724   7.541  49.797  1.00  0.00     0.020 C 
HETATM   27  C5  UNL     1      24.716   7.228  50.846  1.00  0.00     0.114 C 
HETATM   28  N1  UNL     1      24.232   6.635  52.031  1.00  0.00    -0.417 N 
HETATM   29  H11 UNL     1      24.886   6.560  52.809  1.00  0.00     0.153 HD
ENDBRANCH  21  22
ENDBRANCH  20  21
ENDBRANCH  19  20
ENDBRANCH   1  19
TORSDOF 4
ENDMDL
MODEL 4
REMARK VINA RESULT:      -8.7      3.789      6.475
REMARK  4 active torsions:
REMARK  status: ('A' for Active; 'I' for Inactive)
REMARK    1  A    between atoms: C6_7  and  C7_8 
REMARK    2  A    between atoms: C7_8  and  C8_9 
REMARK    3  A    between atoms: C8_9  and  O1_10 
REMARK    4  A    between atoms: O1_10  and  C9_11 
ROOT
HETATM    1  C9  UNL     1      23.316   1.665  52.927  1.00  0.00     0.082 C 
HETATM    2  C10 UNL     1      23.689   2.871  52.492  1.00  0.00     0.054 C 
HETATM    3  C11 UNL     1      22.835   3.931  51.932  1.00  0.00     0.030 A 
HETATM    4  C12 UNL     1      23.560   5.108  51.813  1.00  0.00     0.133 A 
HETATM    5  N2  UNL     1      22.873   6.136  51.313  1.00  0.00    -0.253 NA
HETATM    6  C13 UNL     1      21.585   6.045  50.951  1.00  0.00     0.234 A 
HETATM    7  N3  UNL     1      20.903   4.879  51.078  1.00  0.00    -0.224 NA
HETATM    8  C14 UNL     1      21.527   3.787  51.578  1.00  0.00     0.141 A 
HETATM    9  N4  UNL     1      20.655   2.679  51.632  1.00  0.00    -0.339 N 
HETATM   10  C15 UNL     1      20.849   1.503  52.402  1.00  0.00     0.048 A 
HETATM   11  C16 UNL     1      19.684   0.781  52.553  1.00  0.00     0.057 A 
HETATM   12  C17 UNL     1      19.742  -0.384  53.282  1.00  0.00     0.074 A 
HETATM   13 CL1  UNL     1      18.277  -1.343  53.500  1.00  0.00    -0.081 Cl
HETATM   14  C18 UNL     1      20.892  -0.863  53.868  1.00  0.00     0.139 A 
HETATM   15  F1  UNL     1      20.934  -2.010  54.583  1.00  0.00    -0.204 F 
HETATM   16  C19 UNL     1      22.082  -0.157  53.735  1.00  0.00     0.060 A 
HETATM   17  C20 UNL     1      22.013   1.024  52.992  1.00  0.00     0.027 A 
HETATM   18  H20 UNL     1      19.789   2.731  51.052  1.00  0.00     0.167 HD
ENDROOT
BRANCH   1  19
HETATM   19  O1  UNL     1      24.429   0.958  53.382  1.00  0.00    -0.350 OA
BRANCH  19  20
HETATM   20  C8  UNL     1      25.073   0.003  52.523  1.00  0.00     0.178 C 
BRANCH  20  21
HETATM   21  C7  UNL     1      26.455   0.492  52.282  1.00  0.00     0.051 C 
BRANCH  21  22
HETATM   22  C6  UNL     1      27.383   0.341  53.492  1.00  0.00     0.082 C 
HETATM   23  C2  UNL     1      28.664   1.089  53.297  1.00  0.00     0.004 C 
HETATM   24  C1  UNL     1      28.592   2.537  53.610  1.00  0.00     0.012 C 
HETATM   25  C3  UNL     1      29.670   0.441  54.227  1.00  0.00     0.008 C 
HETATM   26  C4  UNL     1      30.030  -0.858  53.543  1.00  0.00     0.020 C 
HETATM   27  C5  UNL     1      28.800  -1.645  53.316  1.00  0.00     0.114 C 
HETATM   28  N1  UNL     1      27.577  -1.041  53.678  1.00  0.00    -0.417 N 
HETATM   29  H11 UNL     1      26.749  -1.636  53.664  1.00  0.00     0.153 HD
ENDBRANCH  21  22
ENDBRANCH  20  21
ENDBRANCH  19  20
ENDBRANCH   1  19
TORSDOF 4
ENDMDL
MODEL 5
REMARK VINA RESULT:      -8.6      3.242      5.382
REMARK  4 active torsions:
REMARK  status: ('A' for Active; 'I' for Inactive)
REMARK    1  A    between atoms: C6_7  and  C7_8 
REMARK    2  A    between atoms: C7_8  and  C8_9 
REMARK    3  A    between atoms: C8_9  and  O1_10 
REMARK    4  A    between atoms: O1_10  and  C9_11 
ROOT
HETATM    1  C9  UNL     1      24.757   1.917  52.384  1.00  0.00     0.082 C 
HETATM    2  C10 UNL     1      26.069   2.095  52.558  1.00  0.00     0.054 C 
HETATM    3  C11 UNL     1      26.990   1.279  53.365  1.00  0.00     0.030 A 
HETATM    4  C12 UNL     1      28.301   1.652  53.107  1.00  0.00     0.133 A 
HETATM    5  N2  UNL     1      29.219   0.969  53.792  1.00  0.00    -0.253 NA
HETATM    6  C13 UNL     1      28.905  -0.003  54.662  1.00  0.00     0.234 A 
HETATM    7  N3  UNL     1      27.613  -0.344  54.895  1.00  0.00    -0.224 NA
HETATM    8  C14 UNL     1      26.621   0.301  54.240  1.00  0.00     0.141 A 
HETATM    9  N4  UNL     1      25.354  -0.194  54.614  1.00  0.00    -0.339 N 
HETATM   10  C15 UNL     1      24.143  -0.011  53.898  1.00  0.00     0.048 A 
HETATM   11  C16 UNL     1      23.167  -0.905  54.286  1.00  0.00     0.057 A 
HETATM   12  C17 UNL     1      21.943  -0.829  53.664  1.00  0.00     0.074 A 
HETATM   13 CL1  UNL     1      20.663  -1.951  54.129  1.00  0.00    -0.081 Cl
HETATM   14  C18 UNL     1      21.642   0.084  52.678  1.00  0.00     0.139 A 
HETATM   15  F1  UNL     1      20.434   0.147  52.074  1.00  0.00    -0.204 F 
HETATM   16  C19 UNL     1      22.604   0.998  52.265  1.00  0.00     0.060 A 
HETATM   17  C20 UNL     1      23.843   0.913  52.904  1.00  0.00     0.027 A 
HETATM   18  H20 UNL     1      25.306  -0.746  55.500  1.00  0.00     0.167 HD
ENDROOT
BRANCH   1  19
HETATM   19  O1  UNL     1      24.249   2.909  51.546  1.00  0.00    -0.350 OA
BRANCH  19  20
HETATM   20  C8  UNL     1      24.977   3.298  50.370  1.00  0.00     0.178 C 
BRANCH  20  21
HETATM   21  C7  UNL     1      24.032   3.232  49.226  1.00  0.00     0.051 C 
BRANCH  21  22
HETATM   22  C6  UNL     1      22.558   3.319  49.638  1.00  0.00     0.082 C 
HETATM   23  C2  UNL     1      21.666   2.686  48.617  1.00  0.00     0.004 C 
HETATM   24  C1  UNL     1      21.546   1.212  48.725  1.00  0.00     0.012 C 
HETATM   25  C3  UNL     1      20.296   3.301  48.823  1.00  0.00     0.008 C 
HETATM   26  C4  UNL     1      20.413   4.687  48.231  1.00  0.00     0.020 C 
HETATM   27  C5  UNL     1      21.521   5.406  48.894  1.00  0.00     0.114 C 
HETATM   28  N1  UNL     1      22.278   4.684  49.841  1.00  0.00    -0.417 N 
HETATM   29  H11 UNL     1      22.939   5.218  50.405  1.00  0.00     0.153 HD
ENDBRANCH  21  22
ENDBRANCH  20  21
ENDBRANCH  19  20
ENDBRANCH   1  19
TORSDOF 4
ENDMDL
MODEL 6
REMARK VINA RESULT:      -8.3      2.815      5.817
REMARK  4 active torsions:
REMARK  status: ('A' for Active; 'I' for Inactive)
REMARK    1  A    between atoms: C6_7  and  C7_8 
REMARK    2  A    between atoms: C7_8  and  C8_9 
REMARK    3  A    between atoms: C8_9  and  O1_10 
REMARK    4  A    between atoms: O1_10  and  C9_11 
ROOT
HETATM    1  C9  UNL     1      23.990   3.490  51.788  1.00  0.00     0.082 C 
HETATM    2  C10 UNL     1      24.219   4.560  51.022  1.00  0.00     0.054 C 
HETATM    3  C11 UNL     1      25.366   4.802  50.134  1.00  0.00     0.030 A 
HETATM    4  C12 UNL     1      25.124   5.917  49.343  1.00  0.00     0.133 A 
HETATM    5  N2  UNL     1      26.108   6.224  48.498  1.00  0.00    -0.253 NA
HETATM    6  C13 UNL     1      27.244   5.516  48.414  1.00  0.00     0.234 A 
HETATM    7  N3  UNL     1      27.453   4.431  49.202  1.00  0.00    -0.224 NA
HETATM    8  C14 UNL     1      26.503   4.052  50.087  1.00  0.00     0.141 A 
HETATM    9  N4  UNL     1      26.904   2.908  50.809  1.00  0.00    -0.339 N 
HETATM   10  C15 UNL     1      26.050   2.046  51.544  1.00  0.00     0.048 A 
HETATM   11  C16 UNL     1      26.644   0.832  51.818  1.00  0.00     0.057 A 
HETATM   12  C17 UNL     1      25.917  -0.094  52.527  1.00  0.00     0.074 A 
HETATM   13 CL1  UNL     1      26.637  -1.660  52.902  1.00  0.00    -0.081 Cl
HETATM   14  C18 UNL     1      24.632   0.124  52.974  1.00  0.00     0.139 A 
HETATM   15  F1  UNL     1      23.927  -0.796  53.671  1.00  0.00    -0.204 F 
HETATM   16  C19 UNL     1      24.005   1.336  52.715  1.00  0.00     0.060 A 
HETATM   17  C20 UNL     1      24.753   2.270  51.994  1.00  0.00     0.027 A 
HETATM   18  H20 UNL     1      27.922   2.677  50.800  1.00  0.00     0.167 HD
ENDROOT
BRANCH   1  19
HETATM   19  O1  UNL     1      22.790   3.648  52.481  1.00  0.00    -0.350 OA
BRANCH  19  20
HETATM   20  C8  UNL     1      21.672   4.287  51.843  1.00  0.00     0.178 C 
BRANCH  20  21
HETATM   21  C7  UNL     1      20.534   3.332  51.893  1.00  0.00     0.051 C 
BRANCH  21  22
HETATM   22  C6  UNL     1      20.329   2.550  50.591  1.00  0.00     0.082 C 
HETATM   23  C2  UNL     1      21.297   1.413  50.477  1.00  0.00     0.004 C 
HETATM   24  C1  UNL     1      20.900   0.185  51.207  1.00  0.00     0.012 C 
HETATM   25  C3  UNL     1      21.388   1.092  48.999  1.00  0.00     0.008 C 
HETATM   26  C4  UNL     1      22.236   2.203  48.424  1.00  0.00     0.020 C 
HETATM   27  C5  UNL     1      21.609   3.504  48.738  1.00  0.00     0.114 C 
HETATM   28  N1  UNL     1      20.449   3.479  49.540  1.00  0.00    -0.417 N 
HETATM   29  H11 UNL     1      19.932   4.354  49.630  1.00  0.00     0.153 HD
ENDBRANCH  21  22
ENDBRANCH  20  21
ENDBRANCH  19  20
ENDBRANCH   1  19
TORSDOF 4
ENDMDL
MODEL 7
REMARK VINA RESULT:      -8.1      3.587      5.382
REMARK  4 active torsions:
REMARK  status: ('A' for Active; 'I' for Inactive)
REMARK    1  A    between atoms: C6_7  and  C7_8 
REMARK    2  A    between atoms: C7_8  and  C8_9 
REMARK    3  A    between atoms: C8_9  and  O1_10 
REMARK    4  A    between atoms: O1_10  and  C9_11 
ROOT
HETATM    1  C9  UNL     1      22.123   1.129  51.444  1.00  0.00     0.082 C 
HETATM    2  C10 UNL     1      23.438   1.283  51.618  1.00  0.00     0.054 C 
HETATM    3  C11 UNL     1      24.300   0.616  52.608  1.00  0.00     0.030 A 
HETATM    4  C12 UNL     1      25.633   0.869  52.318  1.00  0.00     0.133 A 
HETATM    5  N2  UNL     1      26.501   0.307  53.160  1.00  0.00    -0.253 NA
HETATM    6  C13 UNL     1      26.121  -0.444  54.205  1.00  0.00     0.234 A 
HETATM    7  N3  UNL     1      24.809  -0.672  54.463  1.00  0.00    -0.224 NA
HETATM    8  C14 UNL     1      23.864  -0.137  53.656  1.00  0.00     0.141 A 
HETATM    9  N4  UNL     1      22.567  -0.487  54.086  1.00  0.00    -0.339 N 
HETATM   10  C15 UNL     1      21.382  -0.407  53.309  1.00  0.00     0.048 A 
HETATM   11  C16 UNL     1      20.355  -1.156  53.845  1.00  0.00     0.057 A 
HETATM   12  C17 UNL     1      19.151  -1.161  53.183  1.00  0.00     0.074 A 
HETATM   13 CL1  UNL     1      17.807  -2.102  53.832  1.00  0.00    -0.081 Cl
HETATM   14  C18 UNL     1      18.916  -0.464  52.018  1.00  0.00     0.139 A 
HETATM   15  F1  UNL     1      17.726  -0.478  51.377  1.00  0.00    -0.204 F 
HETATM   16  C19 UNL     1      19.930   0.299  51.453  1.00  0.00     0.060 A 
HETATM   17  C20 UNL     1      21.150   0.298  52.134  1.00  0.00     0.027 A 
HETATM   18  H20 UNL     1      22.472  -0.837  55.065  1.00  0.00     0.167 HD
ENDROOT
BRANCH   1  19
HETATM   19  O1  UNL     1      21.682   1.942  50.400  1.00  0.00    -0.350 OA
BRANCH  19  20
HETATM   20  C8  UNL     1      22.598   2.349  49.372  1.00  0.00     0.178 C 
BRANCH  20  21
HETATM   21  C7  UNL     1      22.107   3.643  48.833  1.00  0.00     0.051 C 
BRANCH  21  22
HETATM   22  C6  UNL     1      22.617   4.866  49.603  1.00  0.00     0.082 C 
HETATM   23  C2  UNL     1      24.001   4.644  50.127  1.00  0.00     0.004 C 
HETATM   24  C1  UNL     1      25.084   4.889  49.143  1.00  0.00     0.012 C 
HETATM   25  C3  UNL     1      24.168   5.611  51.283  1.00  0.00     0.008 C 
HETATM   26  C4  UNL     1      23.371   4.992  52.408  1.00  0.00     0.020 C 
HETATM   27  C5  UNL     1      21.976   4.793  51.963  1.00  0.00     0.114 C 
HETATM   28  N1  UNL     1      21.679   5.118  50.622  1.00  0.00    -0.417 N 
HETATM   29  H11 UNL     1      20.693   5.127  50.359  1.00  0.00     0.153 HD
ENDBRANCH  21  22
ENDBRANCH  20  21
ENDBRANCH  19  20
ENDBRANCH   1  19
TORSDOF 4
ENDMDL
MODEL 8
REMARK VINA RESULT:      -8.1      2.777      3.900
REMARK  4 active torsions:
REMARK  status: ('A' for Active; 'I' for Inactive)
REMARK    1  A    between atoms: C6_7  and  C7_8 
REMARK    2  A    between atoms: C7_8  and  C8_9 
REMARK    3  A    between atoms: C8_9  and  O1_10 
REMARK    4  A    between atoms: O1_10  and  C9_11 
ROOT
HETATM    1  C9  UNL     1      20.951   0.329  51.277  1.00  0.00     0.082 C 
HETATM    2  C10 UNL     1      19.674   0.428  50.896  1.00  0.00     0.054 C 
HETATM    3  C11 UNL     1      18.475   0.047  51.658  1.00  0.00     0.030 A 
HETATM    4  C12 UNL     1      17.338   0.515  51.014  1.00  0.00     0.133 A 
HETATM    5  N2  UNL     1      16.191   0.222  51.626  1.00  0.00    -0.253 NA
HETATM    6  C13 UNL     1      16.134  -0.471  52.774  1.00  0.00     0.234 A 
HETATM    7  N3  UNL     1      17.263  -0.916  53.380  1.00  0.00    -0.224 NA
HETATM    8  C14 UNL     1      18.469  -0.660  52.823  1.00  0.00     0.141 A 
HETATM    9  N4  UNL     1      19.516  -1.202  53.598  1.00  0.00    -0.339 N 
HETATM   10  C15 UNL     1      20.885  -0.840  53.517  1.00  0.00     0.048 A 
HETATM   11  C16 UNL     1      21.598  -1.243  54.627  1.00  0.00     0.057 A 
HETATM   12  C17 UNL     1      22.940  -0.949  54.670  1.00  0.00     0.074 A 
HETATM   13 CL1  UNL     1      23.893  -1.447  56.069  1.00  0.00    -0.081 Cl
HETATM   14  C18 UNL     1      23.608  -0.277  53.670  1.00  0.00     0.139 A 
HETATM   15  F1  UNL     1      24.929   0.005  53.725  1.00  0.00    -0.204 F 
HETATM   16  C19 UNL     1      22.918   0.142  52.539  1.00  0.00     0.060 A 
HETATM   17  C20 UNL     1      21.555  -0.161  52.505  1.00  0.00     0.027 A 
HETATM   18  H20 UNL     1      19.257  -1.936  54.294  1.00  0.00     0.167 HD
ENDROOT
BRANCH   1  19
HETATM   19  O1  UNL     1      21.788   0.798  50.265  1.00  0.00    -0.350 OA
BRANCH  19  20
HETATM   20  C8  UNL     1      21.229   1.236  49.017  1.00  0.00     0.178 C 
BRANCH  20  21
HETATM   21  C7  UNL     1      22.259   2.067  48.342  1.00  0.00     0.051 C 
BRANCH  21  22
HETATM   22  C6  UNL     1      22.620   3.344  49.109  1.00  0.00     0.082 C 
HETATM   23  C2  UNL     1      23.044   4.439  48.180  1.00  0.00     0.004 C 
HETATM   24  C1  UNL     1      21.928   5.197  47.564  1.00  0.00     0.012 C 
HETATM   25  C3  UNL     1      23.877   5.392  49.015  1.00  0.00     0.008 C 
HETATM   26  C4  UNL     1      25.200   4.682  49.187  1.00  0.00     0.020 C 
HETATM   27  C5  UNL     1      24.964   3.360  49.806  1.00  0.00     0.114 C 
HETATM   28  N1  UNL     1      23.622   2.988  50.031  1.00  0.00    -0.417 N 
HETATM   29  H11 UNL     1      23.465   2.151  50.593  1.00  0.00     0.153 HD
ENDBRANCH  21  22
ENDBRANCH  20  21
ENDBRANCH  19  20
ENDBRANCH   1  19
TORSDOF 4
ENDMDL
MODEL 9
REMARK VINA RESULT:      -7.9      3.427      7.565
REMARK  4 active torsions:
REMARK  status: ('A' for Active; 'I' for Inactive)
REMARK    1  A    between atoms: C6_7  and  C7_8 
REMARK    2  A    between atoms: C7_8  and  C8_9 
REMARK    3  A    between atoms: C8_9  and  O1_10 
REMARK    4  A    between atoms: O1_10  and  C9_11 
ROOT
HETATM    1  C9  UNL     1      26.214   4.283  49.283  1.00  0.00     0.082 C 
HETATM    2  C10 UNL     1      24.899   4.100  49.428  1.00  0.00     0.054 C 
HETATM    3  C11 UNL     1      23.813   4.989  48.987  1.00  0.00     0.030 A 
HETATM    4  C12 UNL     1      22.592   4.342  49.116  1.00  0.00     0.133 A 
HETATM    5  N2  UNL     1      21.536   5.066  48.741  1.00  0.00    -0.253 NA
HETATM    6  C13 UNL     1      21.640   6.319  48.275  1.00  0.00     0.234 A 
HETATM    7  N3  UNL     1      22.849   6.926  48.161  1.00  0.00    -0.224 NA
HETATM    8  C14 UNL     1      23.970   6.260  48.521  1.00  0.00     0.141 A 
HETATM    9  N4  UNL     1      25.120   7.054  48.330  1.00  0.00    -0.339 N 
HETATM   10  C15 UNL     1      26.457   6.582  48.264  1.00  0.00     0.048 A 
HETATM   11  C16 UNL     1      27.310   7.509  47.702  1.00  0.00     0.057 A 
HETATM   12  C17 UNL     1      28.637   7.169  47.581  1.00  0.00     0.074 A 
HETATM   13 CL1  UNL     1      29.766   8.323  46.870  1.00  0.00    -0.081 Cl
HETATM   14  C18 UNL     1      29.157   5.960  47.988  1.00  0.00     0.139 A 
HETATM   15  F1  UNL     1      30.464   5.639  47.863  1.00  0.00    -0.204 F 
HETATM   16  C19 UNL     1      28.323   5.006  48.558  1.00  0.00     0.060 A 
HETATM   17  C20 UNL     1      26.977   5.360  48.676  1.00  0.00     0.027 A 
HETATM   18  H20 UNL     1      24.972   8.083  48.228  1.00  0.00     0.167 HD
ENDROOT
BRANCH   1  19
HETATM   19  O1  UNL     1      26.908   3.208  49.839  1.00  0.00    -0.350 OA
BRANCH  19  20
HETATM   20  C8  UNL     1      26.755   2.899  51.233  1.00  0.00     0.178 C 
BRANCH  20  21
HETATM   21  C7  UNL     1      26.484   1.441  51.333  1.00  0.00     0.051 C 
BRANCH  21  22
HETATM   22  C6  UNL     1      26.102   0.980  52.744  1.00  0.00     0.082 C 
HETATM   23  C2  UNL     1      25.934  -0.506  52.807  1.00  0.00     0.004 C 
HETATM   24  C1  UNL     1      27.197  -1.267  52.966  1.00  0.00     0.012 C 
HETATM   25  C3  UNL     1      25.051  -0.774  54.010  1.00  0.00     0.008 C 
HETATM   26  C4  UNL     1      23.665  -0.383  53.552  1.00  0.00     0.020 C 
HETATM   27  C5  UNL     1      23.682   1.022  53.097  1.00  0.00     0.114 C 
HETATM   28  N1  UNL     1      24.930   1.680  53.091  1.00  0.00    -0.417 N 
HETATM   29  H11 UNL     1      24.920   2.686  52.925  1.00  0.00     0.153 HD
ENDBRANCH  21  22
ENDBRANCH  20  21
ENDBRANCH  19  20
ENDBRANCH   1  19
TORSDOF 4
ENDMDL
