MODEL 1
REMARK VINA RESULT:      -6.8      0.000      0.000
REMARK  4 active torsions:
REMARK  status: ('A' for Active; 'I' for Inactive)
REMARK    1  A    between atoms: O1_2  and  C2_3 
REMARK    2  A    between atoms: C2_3  and  C3_4 
REMARK    3  A    between atoms: C7_9  and  O2_10 
REMARK    4  A    between atoms: C8_11  and  N2_12 
ROOT
HETATM    1  C3  UNL     1      22.621   4.165  50.051  1.00  0.00     0.161 C 
HETATM    2  N1  UNL     1      21.621   3.722  50.945  1.00  0.00    -0.400 N 
HETATM    3  C4  UNL     1      20.444   4.551  51.035  1.00  0.00     0.144 C 
HETATM    4  C5  UNL     1      21.990   3.216  52.212  1.00  0.00     0.184 C 
HETATM    5  C6  UNL     1      23.453   3.295  52.473  1.00  0.00     0.097 C 
HETATM    6  C7  UNL     1      23.639   4.599  52.171  1.00  0.00     0.128 C 
HETATM    7  C8  UNL     1      23.890   4.685  50.673  1.00  0.00     0.206 C 
HETATM    8  N3  UNL     1      24.945   3.770  50.429  1.00  0.00    -0.240 N 
HETATM    9  C14 UNL     1      25.645   3.479  49.444  1.00  0.00     0.229 A 
HETATM   10  N4  UNL     1      25.879   2.796  50.651  1.00  0.00    -0.256 N 
HETATM   11  C15 UNL     1      26.861   2.021  50.910  1.00  0.00     0.118 C 
HETATM   12  C16 UNL     1      26.963   1.374  52.243  1.00  0.00     0.024 C 
HETATM   13  C17 UNL     1      26.332   1.282  53.431  1.00  0.00    -0.059 C 
HETATM   14  C18 UNL     1      26.803   0.459  54.595  1.00  0.00     0.046 C 
HETATM   15  C19 UNL     1      25.046   1.954  53.884  1.00  0.00     0.209 C 
HETATM   16  O3  UNL     1      24.607   2.715  52.841  1.00  0.00    -0.347 OA
ENDROOT
BRANCH   7  17
HETATM   17  N2  UNL     1      24.177   6.044  50.298  1.00  0.00    -0.329 N 
HETATM   18  C9  UNL     1      23.062   6.710  49.736  1.00  0.00     0.092 A 
HETATM   19  C10 UNL     1      23.146   7.968  49.335  1.00  0.00     0.033 A 
HETATM   20  C11 UNL     1      24.352   8.826  49.409  1.00  0.00     0.240 A 
HETATM   21  F1  UNL     1      24.708   9.134  48.101  1.00  0.00    -0.239 F 
HETATM   22  C12 UNL     1      25.453   8.038  50.009  1.00  0.00     0.065 A 
HETATM   23 CL1  UNL     1      27.030   8.796  50.227  1.00  0.00    -0.084 Cl
HETATM   24  C13 UNL     1      25.385   6.783  50.413  1.00  0.00     0.116 A 
ENDBRANCH   7  17
BRANCH   1  25
HETATM   25  C2  UNL     1      22.935   3.039  49.068  1.00  0.00     0.196 C 
BRANCH  25  26
HETATM   26  O1  UNL     1      21.900   3.087  48.104  1.00  0.00    -0.394 OA
HETATM   27  C1  UNL     1      22.161   4.153  47.237  1.00  0.00     0.201 C 
ENDBRANCH  25  26
ENDBRANCH   1  25
BRANCH   6  28
HETATM   28  O2  UNL     1      23.594   5.624  53.123  1.00  0.00    -0.358 OA
HETATM   29  H12 UNL     1      23.248   5.358  54.032  1.00  0.00     0.217 HD
ENDBRANCH   6  28
TORSDOF 4
ENDMDL
MODEL 2
REMARK VINA RESULT:      -6.7      5.167      8.696
REMARK  4 active torsions:
REMARK  status: ('A' for Active; 'I' for Inactive)
REMARK    1  A    between atoms: O1_2  and  C2_3 
REMARK    2  A    between atoms: C2_3  and  C3_4 
REMARK    3  A    between atoms: C7_9  and  O2_10 
REMARK    4  A    between atoms: C8_11  and  N2_12 
ROOT
HETATM    1  C3  UNL     1      29.281   7.877  47.861  1.00  0.00     0.161 C 
HETATM    2  N1  UNL     1      30.370   8.538  48.471  1.00  0.00    -0.400 N 
HETATM    3  C4  UNL     1      31.186   7.733  49.346  1.00  0.00     0.144 C 
HETATM    4  C5  UNL     1      30.196   9.842  48.988  1.00  0.00     0.184 C 
HETATM    5  C6  UNL     1      28.796  10.334  48.881  1.00  0.00     0.097 C 
HETATM    6  C7  UNL     1      28.170   9.280  49.447  1.00  0.00     0.128 C 
HETATM    7  C8  UNL     1      27.909   8.263  48.346  1.00  0.00     0.206 C 
HETATM    8  N3  UNL     1      27.237   8.992  47.332  1.00  0.00    -0.240 N 
HETATM    9  C14 UNL     1      26.684   8.698  46.258  1.00  0.00     0.229 A 
HETATM   10  N4  UNL     1      26.698  10.048  46.650  1.00  0.00    -0.256 N 
HETATM   11  C15 UNL     1      26.045  11.004  46.112  1.00  0.00     0.118 C 
HETATM   12  C16 UNL     1      26.170  12.382  46.651  1.00  0.00     0.024 C 
HETATM   13  C17 UNL     1      26.791  13.096  47.612  1.00  0.00    -0.059 C 
HETATM   14  C18 UNL     1      26.631  14.573  47.827  1.00  0.00     0.046 C 
HETATM   15  C19 UNL     1      27.763  12.619  48.679  1.00  0.00     0.209 C 
HETATM   16  O3  UNL     1      27.913  11.275  48.506  1.00  0.00    -0.347 OA
ENDROOT
BRANCH   7  17
HETATM   17  N2  UNL     1      27.170   7.146  48.870  1.00  0.00    -0.329 N 
HETATM   18  C9  UNL     1      27.725   5.896  48.509  1.00  0.00     0.092 A 
HETATM   19  C10 UNL     1      27.175   4.761  48.905  1.00  0.00     0.033 A 
HETATM   20  C11 UNL     1      25.959   4.628  49.743  1.00  0.00     0.240 A 
HETATM   21  F1  UNL     1      24.999   3.993  48.963  1.00  0.00    -0.239 F 
HETATM   22  C12 UNL     1      25.460   5.986  50.064  1.00  0.00     0.065 A 
HETATM   23 CL1  UNL     1      24.012   6.155  51.054  1.00  0.00    -0.084 Cl
HETATM   24  C13 UNL     1      25.998   7.128  49.675  1.00  0.00     0.116 A 
ENDBRANCH   7  17
BRANCH   1  25
HETATM   25  C2  UNL     1      29.380   8.061  46.348  1.00  0.00     0.196 C 
BRANCH  25  26
HETATM   26  O1  UNL     1      30.642   7.530  45.990  1.00  0.00    -0.394 OA
HETATM   27  C1  UNL     1      31.114   8.236  44.879  1.00  0.00     0.201 C 
ENDBRANCH  25  26
ENDBRANCH   1  25
BRANCH   6  28
HETATM   28  O2  UNL     1      27.854   9.212  50.809  1.00  0.00    -0.358 OA
HETATM   29  H12 UNL     1      27.296   9.973  51.164  1.00  0.00     0.217 HD
ENDBRANCH   6  28
TORSDOF 4
ENDMDL
MODEL 3
REMARK VINA RESULT:      -6.4      3.427      5.977
REMARK  4 active torsions:
REMARK  status: ('A' for Active; 'I' for Inactive)
REMARK    1  A    between atoms: O1_2  and  C2_3 
REMARK    2  A    between atoms: C2_3  and  C3_4 
REMARK    3  A    between atoms: C7_9  and  O2_10 
REMARK    4  A    between atoms: C8_11  and  N2_12 
ROOT
HETATM    1  C3  UNL     1      22.837   3.849  49.042  1.00  0.00     0.161 C 
HETATM    2  N1  UNL     1      22.457   5.209  49.075  1.00  0.00    -0.400 N 
HETATM    3  C4  UNL     1      23.532   6.161  49.210  1.00  0.00     0.144 C 
HETATM    4  C5  UNL     1      21.327   5.602  49.828  1.00  0.00     0.184 C 
HETATM    5  C6  UNL     1      20.706   4.481  50.584  1.00  0.00     0.097 C 
HETATM    6  C7  UNL     1      21.816   4.016  51.199  1.00  0.00     0.128 C 
HETATM    7  C8  UNL     1      22.478   3.026  50.251  1.00  0.00     0.206 C 
HETATM    8  N3  UNL     1      21.450   2.109  49.911  1.00  0.00    -0.240 N 
HETATM    9  C14 UNL     1      21.401   1.043  49.273  1.00  0.00     0.229 A 
HETATM   10  N4  UNL     1      20.209   1.541  49.830  1.00  0.00    -0.256 N 
HETATM   11  C15 UNL     1      19.092   0.927  49.911  1.00  0.00     0.118 C 
HETATM   12  C16 UNL     1      17.923   1.598  50.534  1.00  0.00     0.024 C 
HETATM   13  C17 UNL     1      17.545   2.753  51.117  1.00  0.00    -0.059 C 
HETATM   14  C18 UNL     1      16.170   3.043  51.645  1.00  0.00     0.046 C 
HETATM   15  C19 UNL     1      18.370   4.002  51.385  1.00  0.00     0.209 C 
HETATM   16  O3  UNL     1      19.628   3.754  50.921  1.00  0.00    -0.347 OA
ENDROOT
BRANCH   7  17
HETATM   17  N2  UNL     1      23.626   2.432  50.881  1.00  0.00    -0.329 N 
HETATM   18  C9  UNL     1      24.848   3.005  50.457  1.00  0.00     0.092 A 
HETATM   19  C10 UNL     1      26.006   2.581  50.934  1.00  0.00     0.033 A 
HETATM   20  C11 UNL     1      26.194   1.501  51.932  1.00  0.00     0.240 A 
HETATM   21  F1  UNL     1      26.895   0.482  51.297  1.00  0.00    -0.239 F 
HETATM   22  C12 UNL     1      24.861   0.973  52.308  1.00  0.00     0.065 A 
HETATM   23 CL1  UNL     1      24.759  -0.334  53.487  1.00  0.00    -0.084 Cl
HETATM   24  C13 UNL     1      23.698   1.385  51.840  1.00  0.00     0.116 A 
ENDBRANCH   7  17
BRANCH   1  25
HETATM   25  C2  UNL     1      22.267   3.210  47.777  1.00  0.00     0.196 C 
BRANCH  25  26
HETATM   26  O1  UNL     1      22.258   4.243  46.811  1.00  0.00    -0.394 OA
HETATM   27  C1  UNL     1      21.817   3.703  45.598  1.00  0.00     0.201 C 
ENDBRANCH  25  26
ENDBRANCH   1  25
BRANCH   6  28
HETATM   28  O2  UNL     1      22.215   4.421  52.477  1.00  0.00    -0.358 OA
HETATM   29  H12 UNL     1      23.212   4.456  52.630  1.00  0.00     0.217 HD
ENDBRANCH   6  28
TORSDOF 4
ENDMDL
MODEL 4
REMARK VINA RESULT:      -6.3      4.014      6.867
REMARK  4 active torsions:
REMARK  status: ('A' for Active; 'I' for Inactive)
REMARK    1  A    between atoms: O1_2  and  C2_3 
REMARK    2  A    between atoms: C2_3  and  C3_4 
REMARK    3  A    between atoms: C7_9  and  O2_10 
REMARK    4  A    between atoms: C8_11  and  N2_12 
ROOT
HETATM    1  C3  UNL     1      23.435   3.583  51.343  1.00  0.00     0.161 C 
HETATM    2  N1  UNL     1      23.206   4.882  51.849  1.00  0.00    -0.400 N 
HETATM    3  C4  UNL     1      23.792   5.169  53.135  1.00  0.00     0.144 C 
HETATM    4  C5  UNL     1      21.923   5.463  51.730  1.00  0.00     0.184 C 
HETATM    5  C6  UNL     1      20.918   4.549  51.123  1.00  0.00     0.097 C 
HETATM    6  C7  UNL     1      21.116   3.476  51.921  1.00  0.00     0.128 C 
HETATM    7  C8  UNL     1      22.245   2.660  51.309  1.00  0.00     0.206 C 
HETATM    8  N3  UNL     1      21.850   2.447  49.964  1.00  0.00    -0.240 N 
HETATM    9  C14 UNL     1      22.293   1.778  49.014  1.00  0.00     0.229 A 
HETATM   10  N4  UNL     1      21.127   2.537  48.807  1.00  0.00    -0.256 N 
HETATM   11  C15 UNL     1      20.353   2.483  47.792  1.00  0.00     0.118 C 
HETATM   12  C16 UNL     1      19.154   3.356  47.728  1.00  0.00     0.024 C 
HETATM   13  C17 UNL     1      18.491   4.305  48.419  1.00  0.00    -0.059 C 
HETATM   14  C18 UNL     1      17.229   4.979  47.965  1.00  0.00     0.046 C 
HETATM   15  C19 UNL     1      18.825   4.908  49.774  1.00  0.00     0.209 C 
HETATM   16  O3  UNL     1      19.966   4.300  50.209  1.00  0.00    -0.347 OA
ENDROOT
BRANCH   7  17
HETATM   17  N2  UNL     1      22.453   1.457  52.070  1.00  0.00    -0.329 N 
HETATM   18  C9  UNL     1      21.310   0.625  52.113  1.00  0.00     0.092 A 
HETATM   19  C10 UNL     1      21.322  -0.523  52.769  1.00  0.00     0.033 A 
HETATM   20  C11 UNL     1      22.471  -1.086  53.518  1.00  0.00     0.240 A 
HETATM   21  F1  UNL     1      22.090  -1.146  54.854  1.00  0.00    -0.239 F 
HETATM   22  C12 UNL     1      23.609  -0.143  53.410  1.00  0.00     0.065 A 
HETATM   23 CL1  UNL     1      25.130  -0.540  54.207  1.00  0.00    -0.084 Cl
HETATM   24  C13 UNL     1      23.611   1.006  52.760  1.00  0.00     0.116 A 
ENDBRANCH   7  17
BRANCH   1  25
HETATM   25  C2  UNL     1      24.054   3.702  49.952  1.00  0.00     0.196 C 
BRANCH  25  26
HETATM   26  O1  UNL     1      25.332   4.272  50.160  1.00  0.00    -0.394 OA
HETATM   27  C1  UNL     1      26.260   3.232  50.276  1.00  0.00     0.201 C 
ENDBRANCH  25  26
ENDBRANCH   1  25
BRANCH   6  28
HETATM   28  O2  UNL     1      20.375   3.232  53.082  1.00  0.00    -0.358 OA
HETATM   29  H12 UNL     1      20.744   2.518  53.691  1.00  0.00     0.217 HD
ENDBRANCH   6  28
TORSDOF 4
ENDMDL
MODEL 5
REMARK VINA RESULT:      -6.3      3.105      6.018
REMARK  4 active torsions:
REMARK  status: ('A' for Active; 'I' for Inactive)
REMARK    1  A    between atoms: O1_2  and  C2_3 
REMARK    2  A    between atoms: C2_3  and  C3_4 
REMARK    3  A    between atoms: C7_9  and  O2_10 
REMARK    4  A    between atoms: C8_11  and  N2_12 
ROOT
HETATM    1  C3  UNL     1      22.219   2.671  51.016  1.00  0.00     0.161 C 
HETATM    2  N1  UNL     1      21.708   2.399  49.728  1.00  0.00    -0.400 N 
HETATM    3  C4  UNL     1      21.582   1.005  49.380  1.00  0.00     0.144 C 
HETATM    4  C5  UNL     1      22.150   3.164  48.624  1.00  0.00     0.184 C 
HETATM    5  C6  UNL     1      23.204   4.152  48.979  1.00  0.00     0.097 C 
HETATM    6  C7  UNL     1      24.051   3.318  49.621  1.00  0.00     0.128 C 
HETATM    7  C8  UNL     1      23.607   3.253  51.075  1.00  0.00     0.206 C 
HETATM    8  N3  UNL     1      23.534   4.607  51.492  1.00  0.00    -0.240 N 
HETATM    9  C14 UNL     1      23.336   5.182  52.575  1.00  0.00     0.229 A 
HETATM   10  N4  UNL     1      23.552   5.973  51.432  1.00  0.00    -0.256 N 
HETATM   11  C15 UNL     1      23.747   7.235  51.405  1.00  0.00     0.118 C 
HETATM   12  C16 UNL     1      23.962   7.922  50.107  1.00  0.00     0.024 C 
HETATM   13  C17 UNL     1      24.035   7.692  48.780  1.00  0.00    -0.059 C 
HETATM   14  C18 UNL     1      24.284   8.741  47.736  1.00  0.00     0.046 C 
HETATM   15  C19 UNL     1      23.898   6.376  48.031  1.00  0.00     0.209 C 
HETATM   16  O3  UNL     1      23.682   5.408  48.965  1.00  0.00    -0.347 OA
ENDROOT
BRANCH   7  17
HETATM   17  N2  UNL     1      24.519   2.441  51.834  1.00  0.00    -0.329 N 
HETATM   18  C9  UNL     1      23.967   1.194  52.212  1.00  0.00     0.092 A 
HETATM   19  C10 UNL     1      24.667   0.319  52.914  1.00  0.00     0.033 A 
HETATM   20  C11 UNL     1      26.060   0.498  53.388  1.00  0.00     0.240 A 
HETATM   21  F1  UNL     1      26.015   0.503  54.778  1.00  0.00    -0.239 F 
HETATM   22  C12 UNL     1      26.540   1.826  52.942  1.00  0.00     0.065 A 
HETATM   23 CL1  UNL     1      28.177   2.330  53.360  1.00  0.00    -0.084 Cl
HETATM   24  C13 UNL     1      25.854   2.710  52.241  1.00  0.00     0.116 A 
ENDBRANCH   7  17
BRANCH   1  25
HETATM   25  C2  UNL     1      21.233   3.574  51.755  1.00  0.00     0.196 C 
BRANCH  25  26
HETATM   26  O1  UNL     1      20.084   2.776  51.966  1.00  0.00    -0.394 OA
HETATM   27  C1  UNL     1      20.400   1.800  52.918  1.00  0.00     0.201 C 
ENDBRANCH  25  26
ENDBRANCH   1  25
BRANCH   6  28
HETATM   28  O2  UNL     1      25.120   2.670  48.991  1.00  0.00    -0.358 OA
HETATM   29  H12 UNL     1      25.465   3.114  48.155  1.00  0.00     0.217 HD
ENDBRANCH   6  28
TORSDOF 4
ENDMDL
MODEL 6
REMARK VINA RESULT:      -6.2      7.046      9.424
REMARK  4 active torsions:
REMARK  status: ('A' for Active; 'I' for Inactive)
REMARK    1  A    between atoms: O1_2  and  C2_3 
REMARK    2  A    between atoms: C2_3  and  C3_4 
REMARK    3  A    between atoms: C7_9  and  O2_10 
REMARK    4  A    between atoms: C8_11  and  N2_12 
ROOT
HETATM    1  C3  UNL     1      30.000   9.977  47.347  1.00  0.00     0.161 C 
HETATM    2  N1  UNL     1      30.086  10.695  46.134  1.00  0.00    -0.400 N 
HETATM    3  C4  UNL     1      28.968  11.554  45.829  1.00  0.00     0.144 C 
HETATM    4  C5  UNL     1      30.569  10.051  44.971  1.00  0.00     0.184 C 
HETATM    5  C6  UNL     1      30.864   8.608  45.180  1.00  0.00     0.097 C 
HETATM    6  C7  UNL     1      29.686   8.241  45.732  1.00  0.00     0.128 C 
HETATM    7  C8  UNL     1      29.791   8.490  47.229  1.00  0.00     0.206 C 
HETATM    8  N3  UNL     1      30.971   7.813  47.627  1.00  0.00    -0.240 N 
HETATM    9  C14 UNL     1      31.518   7.567  48.716  1.00  0.00     0.229 A 
HETATM   10  N4  UNL     1      32.139   7.107  47.542  1.00  0.00    -0.256 N 
HETATM   11  C15 UNL     1      33.125   6.298  47.469  1.00  0.00     0.118 C 
HETATM   12  C16 UNL     1      33.666   5.908  46.142  1.00  0.00     0.024 C 
HETATM   13  C17 UNL     1      33.490   6.112  44.820  1.00  0.00    -0.059 C 
HETATM   14  C18 UNL     1      34.313   5.480  43.735  1.00  0.00     0.046 C 
HETATM   15  C19 UNL     1      32.464   6.985  44.116  1.00  0.00     0.209 C 
HETATM   16  O3  UNL     1      31.700   7.560  45.087  1.00  0.00    -0.347 OA
ENDROOT
BRANCH   7  17
HETATM   17  N2  UNL     1      28.593   8.044  47.889  1.00  0.00    -0.329 N 
HETATM   18  C9  UNL     1      27.789   9.109  48.359  1.00  0.00     0.092 A 
HETATM   19  C10 UNL     1      26.649   8.882  48.989  1.00  0.00     0.033 A 
HETATM   20  C11 UNL     1      26.069   7.551  49.285  1.00  0.00     0.240 A 
HETATM   21  F1  UNL     1      26.035   7.424  50.669  1.00  0.00    -0.239 F 
HETATM   22  C12 UNL     1      26.982   6.512  48.754  1.00  0.00     0.065 A 
HETATM   23 CL1  UNL     1      26.558   4.812  48.958  1.00  0.00    -0.084 Cl
HETATM   24  C13 UNL     1      28.123   6.723  48.123  1.00  0.00     0.116 A 
ENDBRANCH   7  17
BRANCH   1  25
HETATM   25  C2  UNL     1      31.245  10.273  48.182  1.00  0.00     0.196 C 
BRANCH  25  26
HETATM   26  O1  UNL     1      30.765  10.907  49.352  1.00  0.00    -0.394 OA
HETATM   27  C1  UNL     1      30.738  12.287  49.120  1.00  0.00     0.201 C 
ENDBRANCH  25  26
ENDBRANCH   1  25
BRANCH   6  28
HETATM   28  O2  UNL     1      28.613   7.732  44.991  1.00  0.00    -0.358 OA
HETATM   29  H12 UNL     1      28.694   6.765  44.718  1.00  0.00     0.217 HD
ENDBRANCH   6  28
TORSDOF 4
ENDMDL
MODEL 7
REMARK VINA RESULT:      -6.0      6.719      9.059
REMARK  4 active torsions:
REMARK  status: ('A' for Active; 'I' for Inactive)
REMARK    1  A    between atoms: O1_2  and  C2_3 
REMARK    2  A    between atoms: C2_3  and  C3_4 
REMARK    3  A    between atoms: C7_9  and  O2_10 
REMARK    4  A    between atoms: C8_11  and  N2_12 
ROOT
HETATM    1  C3  UNL     1      29.830  10.874  46.920  1.00  0.00     0.161 C 
HETATM    2  N1  UNL     1      29.189  11.945  47.581  1.00  0.00    -0.400 N 
HETATM    3  C4  UNL     1      29.978  13.139  47.757  1.00  0.00     0.144 C 
HETATM    4  C5  UNL     1      28.389  11.687  48.718  1.00  0.00     0.184 C 
HETATM    5  C6  UNL     1      28.395  10.256  49.128  1.00  0.00     0.097 C 
HETATM    6  C7  UNL     1      29.732  10.065  49.169  1.00  0.00     0.128 C 
HETATM    7  C8  UNL     1      30.177   9.678  47.766  1.00  0.00     0.206 C 
HETATM    8  N3  UNL     1      29.343   8.588  47.410  1.00  0.00    -0.240 N 
HETATM    9  C14 UNL     1      29.295   7.794  46.454  1.00  0.00     0.229 A 
HETATM   10  N4  UNL     1      28.339   7.662  47.477  1.00  0.00    -0.256 N 
HETATM   11  C15 UNL     1      27.520   6.694  47.633  1.00  0.00     0.118 C 
HETATM   12  C16 UNL     1      26.569   6.706  48.774  1.00  0.00     0.024 C 
HETATM   13  C17 UNL     1      26.195   7.443  49.839  1.00  0.00    -0.059 C 
HETATM   14  C18 UNL     1      25.112   7.068  50.809  1.00  0.00     0.046 C 
HETATM   15  C19 UNL     1      26.744   8.778  50.317  1.00  0.00     0.209 C 
HETATM   16  O3  UNL     1      27.737   9.131  49.453  1.00  0.00    -0.347 OA
ENDROOT
BRANCH   7  17
HETATM   17  N2  UNL     1      31.585   9.381  47.760  1.00  0.00    -0.329 N 
HETATM   18  C9  UNL     1      32.371  10.438  47.241  1.00  0.00     0.092 A 
HETATM   19  C10 UNL     1      33.687  10.338  47.161  1.00  0.00     0.033 A 
HETATM   20  C11 UNL     1      34.498   9.170  47.579  1.00  0.00     0.240 A 
HETATM   21  F1  UNL     1      35.105   8.670  46.433  1.00  0.00    -0.239 F 
HETATM   22  C12 UNL     1      33.585   8.128  48.104  1.00  0.00     0.065 A 
HETATM   23 CL1  UNL     1      34.263   6.606  48.681  1.00  0.00    -0.084 Cl
HETATM   24  C13 UNL     1      32.270   8.213  48.190  1.00  0.00     0.116 A 
ENDBRANCH   7  17
BRANCH   1  25
HETATM   25  C2  UNL     1      28.974  10.450  45.728  1.00  0.00     0.196 C 
BRANCH  25  26
HETATM   26  O1  UNL     1      28.154  11.567  45.443  1.00  0.00    -0.394 OA
HETATM   27  C1  UNL     1      27.105  11.141  44.622  1.00  0.00     0.201 C 
ENDBRANCH  25  26
ENDBRANCH   1  25
BRANCH   6  28
HETATM   28  O2  UNL     1      30.497  10.217  50.331  1.00  0.00    -0.358 OA
HETATM   29  H12 UNL     1      31.269   9.577  50.429  1.00  0.00     0.217 HD
ENDBRANCH   6  28
TORSDOF 4
ENDMDL
MODEL 8
REMARK VINA RESULT:      -5.9      2.955      3.606
REMARK  4 active torsions:
REMARK  status: ('A' for Active; 'I' for Inactive)
REMARK    1  A    between atoms: O1_2  and  C2_3 
REMARK    2  A    between atoms: C2_3  and  C3_4 
REMARK    3  A    between atoms: C7_9  and  O2_10 
REMARK    4  A    between atoms: C8_11  and  N2_12 
ROOT
HETATM    1  C3  UNL     1      22.387   6.806  48.697  1.00  0.00     0.161 C 
HETATM    2  N1  UNL     1      21.534   7.468  49.607  1.00  0.00    -0.400 N 
HETATM    3  C4  UNL     1      21.721   8.893  49.725  1.00  0.00     0.144 C 
HETATM    4  C5  UNL     1      21.262   6.881  50.865  1.00  0.00     0.184 C 
HETATM    5  C6  UNL     1      22.013   5.617  51.098  1.00  0.00     0.097 C 
HETATM    6  C7  UNL     1      23.253   6.064  50.800  1.00  0.00     0.128 C 
HETATM    7  C8  UNL     1      23.440   5.912  49.298  1.00  0.00     0.206 C 
HETATM    8  N3  UNL     1      23.119   4.557  49.029  1.00  0.00    -0.240 N 
HETATM    9  C14 UNL     1      23.182   3.821  48.028  1.00  0.00     0.229 A 
HETATM   10  N4  UNL     1      22.691   3.273  49.227  1.00  0.00    -0.256 N 
HETATM   11  C15 UNL     1      22.462   2.039  49.462  1.00  0.00     0.118 C 
HETATM   12  C16 UNL     1      21.942   1.622  50.789  1.00  0.00     0.024 C 
HETATM   13  C17 UNL     1      21.571   2.115  51.989  1.00  0.00    -0.059 C 
HETATM   14  C18 UNL     1      21.067   1.293  53.139  1.00  0.00     0.046 C 
HETATM   15  C19 UNL     1      21.571   3.557  52.471  1.00  0.00     0.209 C 
HETATM   16  O3  UNL     1      22.037   4.319  51.441  1.00  0.00    -0.347 OA
ENDROOT
BRANCH   7  17
HETATM   17  N2  UNL     1      24.775   6.296  48.925  1.00  0.00    -0.329 N 
HETATM   18  C9  UNL     1      24.875   7.657  48.551  1.00  0.00     0.092 A 
HETATM   19  C10 UNL     1      26.030   8.183  48.179  1.00  0.00     0.033 A 
HETATM   20  C11 UNL     1      27.326   7.469  48.101  1.00  0.00     0.240 A 
HETATM   21  F1  UNL     1      27.709   7.472  46.765  1.00  0.00    -0.239 F 
HETATM   22  C12 UNL     1      27.112   6.061  48.511  1.00  0.00     0.065 A 
HETATM   23 CL1  UNL     1      28.483   4.953  48.519  1.00  0.00    -0.084 Cl
HETATM   24  C13 UNL     1      25.966   5.522  48.884  1.00  0.00     0.116 A 
ENDBRANCH   7  17
BRANCH   1  25
HETATM   25  C2  UNL     1      21.532   6.024  47.702  1.00  0.00     0.196 C 
BRANCH  25  26
HETATM   26  O1  UNL     1      21.252   6.934  46.656  1.00  0.00    -0.394 OA
HETATM   27  C1  UNL     1      22.405   7.071  45.876  1.00  0.00     0.201 C 
ENDBRANCH  25  26
ENDBRANCH   1  25
BRANCH   6  28
HETATM   28  O2  UNL     1      24.143   6.562  51.758  1.00  0.00    -0.358 OA
HETATM   29  H12 UNL     1      24.764   7.289  51.437  1.00  0.00     0.217 HD
ENDBRANCH   6  28
TORSDOF 4
ENDMDL
MODEL 9
REMARK VINA RESULT:      -5.9      3.791      6.136
REMARK  4 active torsions:
REMARK  status: ('A' for Active; 'I' for Inactive)
REMARK    1  A    between atoms: O1_2  and  C2_3 
REMARK    2  A    between atoms: C2_3  and  C3_4 
REMARK    3  A    between atoms: C7_9  and  O2_10 
REMARK    4  A    between atoms: C8_11  and  N2_12 
ROOT
HETATM    1  C3  UNL     1      20.665   3.856  49.654  1.00  0.00     0.161 C 
HETATM    2  N1  UNL     1      20.578   4.005  48.252  1.00  0.00    -0.400 N 
HETATM    3  C4  UNL     1      19.892   2.950  47.548  1.00  0.00     0.144 C 
HETATM    4  C5  UNL     1      21.702   4.460  47.525  1.00  0.00     0.184 C 
HETATM    5  C6  UNL     1      22.909   4.657  48.373  1.00  0.00     0.097 C 
HETATM    6  C7  UNL     1      22.924   3.451  48.982  1.00  0.00     0.128 C 
HETATM    7  C8  UNL     1      22.031   3.552  50.210  1.00  0.00     0.206 C 
HETATM    8  N3  UNL     1      22.516   4.681  50.918  1.00  0.00    -0.240 N 
HETATM    9  C14 UNL     1      22.272   5.196  52.023  1.00  0.00     0.229 A 
HETATM   10  N4  UNL     1      23.245   5.801  51.208  1.00  0.00    -0.256 N 
HETATM   11  C15 UNL     1      24.050   6.732  51.547  1.00  0.00     0.118 C 
HETATM   12  C16 UNL     1      25.025   7.264  50.561  1.00  0.00     0.024 C 
HETATM   13  C17 UNL     1      25.432   7.119  49.284  1.00  0.00    -0.059 C 
HETATM   14  C18 UNL     1      26.528   7.912  48.633  1.00  0.00     0.046 C 
HETATM   15  C19 UNL     1      24.919   6.161  48.220  1.00  0.00     0.209 C 
HETATM   16  O3  UNL     1      23.927   5.424  48.797  1.00  0.00    -0.347 OA
ENDROOT
BRANCH   7  17
HETATM   17  N2  UNL     1      22.068   2.319  50.950  1.00  0.00    -0.329 N 
HETATM   18  C9  UNL     1      20.896   1.542  50.791  1.00  0.00     0.092 A 
HETATM   19  C10 UNL     1      20.759   0.376  51.399  1.00  0.00     0.033 A 
HETATM   20  C11 UNL     1      21.754  -0.262  52.293  1.00  0.00     0.240 A 
HETATM   21  F1  UNL     1      21.172  -0.343  53.552  1.00  0.00    -0.239 F 
HETATM   22  C12 UNL     1      22.935   0.627  52.391  1.00  0.00     0.065 A 
HETATM   23 CL1  UNL     1      24.298   0.134  53.394  1.00  0.00    -0.084 Cl
HETATM   24  C13 UNL     1      23.087   1.793  51.790  1.00  0.00     0.116 A 
ENDBRANCH   7  17
BRANCH   1  25
HETATM   25  C2  UNL     1      20.090   5.107  50.317  1.00  0.00     0.196 C 
BRANCH  25  26
HETATM   26  O1  UNL     1      18.693   5.032  50.103  1.00  0.00    -0.394 OA
HETATM   27  C1  UNL     1      18.171   4.065  50.969  1.00  0.00     0.201 C 
ENDBRANCH  25  26
ENDBRANCH   1  25
BRANCH   6  28
HETATM   28  O2  UNL     1      23.656   2.357  48.506  1.00  0.00    -0.358 OA
HETATM   29  H12 UNL     1      24.446   2.084  49.070  1.00  0.00     0.217 HD
ENDBRANCH   6  28
TORSDOF 4
ENDMDL
