MODEL 1
REMARK VINA RESULT:      -7.1      0.000      0.000
REMARK  6 active torsions:
REMARK  status: ('A' for Active; 'I' for Inactive)
REMARK    1  A    between atoms: C5_6  and  C6_7 
REMARK    2  A    between atoms: C6_7  and  O1_8 
REMARK    3  A    between atoms: O1_8  and  C7_9 
REMARK    4  A    between atoms: C7_9  and  C8_10 
REMARK    5  A    between atoms: C8_10  and  C9_11 
REMARK    6  A    between atoms: C8_10  and  N1_14 
ROOT
HETATM    1  C7  UNL     1      24.994   2.285  52.445  1.00  0.00     0.164 C 
ENDROOT
BRANCH   1   2
HETATM    2  O1  UNL     1      23.636   2.175  52.434  1.00  0.00    -0.356 OA
BRANCH   2   3
HETATM    3  C6  UNL     1      23.034   1.091  51.744  1.00  0.00     0.213 C 
BRANCH   3   4
HETATM    4  C5  UNL     1      22.335   0.244  52.729  1.00  0.00    -0.031 A 
HETATM    5  C4  UNL     1      20.946   0.082  52.663  1.00  0.00     0.009 A 
HETATM    6  C3  UNL     1      20.313  -0.706  53.584  1.00  0.00     0.004 A 
HETATM    7  C2  UNL     1      21.045  -1.335  54.570  1.00  0.00     0.042 A 
HETATM    8  C1  UNL     1      22.406  -1.178  54.637  1.00  0.00     0.117 A 
HETATM    9  F1  UNL     1      23.099  -1.817  55.629  1.00  0.00    -0.206 F 
HETATM   10  C14 UNL     1      23.075  -0.391  53.724  1.00  0.00     0.051 A 
ENDBRANCH   3   4
ENDBRANCH   2   3
ENDBRANCH   1   2
BRANCH   1  11
HETATM   11  C8  UNL     1      26.272   2.117  52.182  1.00  0.00     0.059 C 
BRANCH  11  12
HETATM   12  C9  UNL     1      26.698   2.558  50.876  1.00  0.00     0.043 C 
HETATM   13  C10 UNL     1      26.281   3.734  50.457  1.00  0.00     0.087 C 
HETATM   14 CL1  UNL     1      26.688   4.442  48.906  1.00  0.00    -0.097 Cl
ENDBRANCH  11  12
BRANCH  11  15
HETATM   15  N1  UNL     1      27.154   1.543  53.123  1.00  0.00    -0.321 N 
HETATM   16  C11 UNL     1      26.816   0.216  53.521  1.00  0.00     0.212 A 
HETATM   17  N2  UNL     1      27.572  -0.386  54.384  1.00  0.00    -0.237 NA
HETATM   18  C12 UNL     1      28.724   0.302  54.905  1.00  0.00     0.229 A 
HETATM   19  N3  UNL     1      29.042   1.487  54.563  1.00  0.00    -0.263 NA
HETATM   20  C13 UNL     1      28.289   2.280  53.610  1.00  0.00     0.281 A 
ENDBRANCH  11  15
ENDBRANCH   1  11
TORSDOF 6
ENDMDL
MODEL 2
REMARK VINA RESULT:      -7.1      1.293      1.996
REMARK  6 active torsions:
REMARK  status: ('A' for Active; 'I' for Inactive)
REMARK    1  A    between atoms: C5_6  and  C6_7 
REMARK    2  A    between atoms: C6_7  and  O1_8 
REMARK    3  A    between atoms: O1_8  and  C7_9 
REMARK    4  A    between atoms: C7_9  and  C8_10 
REMARK    5  A    between atoms: C8_10  and  C9_11 
REMARK    6  A    between atoms: C8_10  and  N1_14 
ROOT
HETATM    1  C7  UNL     1      25.158   1.428  51.664  1.00  0.00     0.164 C 
ENDROOT
BRANCH   1   2
HETATM    2  O1  UNL     1      23.819   1.179  51.719  1.00  0.00    -0.356 OA
BRANCH   2   3
HETATM    3  C6  UNL     1      23.074   1.637  52.837  1.00  0.00     0.213 C 
BRANCH   3   4
HETATM    4  C5  UNL     1      22.259   0.516  53.342  1.00  0.00    -0.031 A 
HETATM    5  C4  UNL     1      22.852  -0.512  54.083  1.00  0.00     0.009 A 
HETATM    6  C3  UNL     1      22.082  -1.544  54.544  1.00  0.00     0.004 A 
HETATM    7  C2  UNL     1      20.729  -1.566  54.276  1.00  0.00     0.042 A 
HETATM    8  C1  UNL     1      20.145  -0.560  53.549  1.00  0.00     0.117 A 
HETATM    9  F1  UNL     1      18.800  -0.615  53.303  1.00  0.00    -0.206 F 
HETATM   10  C14 UNL     1      20.892   0.495  53.071  1.00  0.00     0.051 A 
ENDBRANCH   3   4
ENDBRANCH   2   3
ENDBRANCH   1   2
BRANCH   1  11
HETATM   11  C8  UNL     1      26.377   1.827  51.959  1.00  0.00     0.059 C 
BRANCH  11  12
HETATM   12  C9  UNL     1      26.852   2.968  51.214  1.00  0.00     0.043 C 
HETATM   13  C10 UNL     1      26.481   3.078  49.955  1.00  0.00     0.087 C 
HETATM   14 CL1  UNL     1      26.953   4.388  48.890  1.00  0.00    -0.097 Cl
ENDBRANCH  11  12
BRANCH  11  15
HETATM   15  N1  UNL     1      27.155   1.172  52.937  1.00  0.00    -0.321 N 
HETATM   16  C11 UNL     1      28.089   2.010  53.613  1.00  0.00     0.212 A 
HETATM   17  N2  UNL     1      28.845   1.490  54.527  1.00  0.00    -0.237 NA
HETATM   18  C12 UNL     1      28.714   0.089  54.829  1.00  0.00     0.229 A 
HETATM   19  N3  UNL     1      27.886  -0.677  54.236  1.00  0.00    -0.263 NA
HETATM   20  C13 UNL     1      26.980  -0.233  53.194  1.00  0.00     0.281 A 
ENDBRANCH  11  15
ENDBRANCH   1  11
TORSDOF 6
ENDMDL
MODEL 3
REMARK VINA RESULT:      -7.0      3.545      6.133
REMARK  6 active torsions:
REMARK  status: ('A' for Active; 'I' for Inactive)
REMARK    1  A    between atoms: C5_6  and  C6_7 
REMARK    2  A    between atoms: C6_7  and  O1_8 
REMARK    3  A    between atoms: O1_8  and  C7_9 
REMARK    4  A    between atoms: C7_9  and  C8_10 
REMARK    5  A    between atoms: C8_10  and  C9_11 
REMARK    6  A    between atoms: C8_10  and  N1_14 
ROOT
HETATM    1  C7  UNL     1      24.816   2.504  52.547  1.00  0.00     0.164 C 
ENDROOT
BRANCH   1   2
HETATM    2  O1  UNL     1      24.513   3.452  51.616  1.00  0.00    -0.356 OA
BRANCH   2   3
HETATM    3  C6  UNL     1      24.676   3.148  50.239  1.00  0.00     0.213 C 
BRANCH   3   4
HETATM    4  C5  UNL     1      25.484   4.216  49.620  1.00  0.00    -0.031 A 
HETATM    5  C4  UNL     1      24.944   5.495  49.437  1.00  0.00     0.009 A 
HETATM    6  C3  UNL     1      25.707   6.473  48.862  1.00  0.00     0.004 A 
HETATM    7  C2  UNL     1      26.998   6.195  48.465  1.00  0.00     0.042 A 
HETATM    8  C1  UNL     1      27.529   4.943  48.642  1.00  0.00     0.117 A 
HETATM    9  F1  UNL     1      28.814   4.704  48.237  1.00  0.00    -0.206 F 
HETATM   10  C14 UNL     1      26.789   3.934  49.220  1.00  0.00     0.051 A 
ENDBRANCH   3   4
ENDBRANCH   2   3
ENDBRANCH   1   2
BRANCH   1  11
HETATM   11  C8  UNL     1      25.280   1.424  53.138  1.00  0.00     0.059 C 
BRANCH  11  12
HETATM   12  C9  UNL     1      24.331   0.347  53.292  1.00  0.00     0.043 C 
HETATM   13  C10 UNL     1      23.107   0.538  52.849  1.00  0.00     0.087 C 
HETATM   14 CL1  UNL     1      21.817  -0.645  52.945  1.00  0.00    -0.097 Cl
ENDBRANCH  11  12
BRANCH  11  15
HETATM   15  N1  UNL     1      26.615   1.339  53.586  1.00  0.00    -0.321 N 
HETATM   16  C11 UNL     1      27.538   2.149  52.861  1.00  0.00     0.212 A 
HETATM   17  N2  UNL     1      28.787   2.131  53.206  1.00  0.00    -0.237 NA
HETATM   18  C12 UNL     1      29.197   1.297  54.305  1.00  0.00     0.229 A 
HETATM   19  N3  UNL     1      28.389   0.566  54.964  1.00  0.00    -0.263 NA
HETATM   20  C13 UNL     1      26.966   0.486  54.690  1.00  0.00     0.281 A 
ENDBRANCH  11  15
ENDBRANCH   1  11
TORSDOF 6
ENDMDL
MODEL 4
REMARK VINA RESULT:      -7.0      4.021      6.790
REMARK  6 active torsions:
REMARK  status: ('A' for Active; 'I' for Inactive)
REMARK    1  A    between atoms: C5_6  and  C6_7 
REMARK    2  A    between atoms: C6_7  and  O1_8 
REMARK    3  A    between atoms: O1_8  and  C7_9 
REMARK    4  A    between atoms: C7_9  and  C8_10 
REMARK    5  A    between atoms: C8_10  and  C9_11 
REMARK    6  A    between atoms: C8_10  and  N1_14 
ROOT
HETATM    1  C7  UNL     1      26.645   1.992  51.579  1.00  0.00     0.164 C 
ENDROOT
BRANCH   1   2
HETATM    2  O1  UNL     1      27.031   3.018  50.770  1.00  0.00    -0.356 OA
BRANCH   2   3
HETATM    3  C6  UNL     1      26.242   3.342  49.636  1.00  0.00     0.213 C 
BRANCH   3   4
HETATM    4  C5  UNL     1      26.659   4.669  49.144  1.00  0.00    -0.031 A 
HETATM    5  C4  UNL     1      25.790   5.762  49.239  1.00  0.00     0.009 A 
HETATM    6  C3  UNL     1      26.192   6.986  48.778  1.00  0.00     0.004 A 
HETATM    7  C2  UNL     1      27.446   7.134  48.222  1.00  0.00     0.042 A 
HETATM    8  C1  UNL     1      28.298   6.064  48.127  1.00  0.00     0.117 A 
HETATM    9  F1  UNL     1      29.534   6.249  47.569  1.00  0.00    -0.206 F 
HETATM   10  C14 UNL     1      27.926   4.817  48.582  1.00  0.00     0.051 A 
ENDBRANCH   3   4
ENDBRANCH   2   3
ENDBRANCH   1   2
BRANCH   1  11
HETATM   11  C8  UNL     1      26.532   1.165  52.596  1.00  0.00     0.059 C 
BRANCH  11  12
HETATM   12  C9  UNL     1      25.267   1.204  53.289  1.00  0.00     0.043 C 
HETATM   13  C10 UNL     1      24.176   0.966  52.592  1.00  0.00     0.087 C 
HETATM   14 CL1  UNL     1      22.552   0.968  53.252  1.00  0.00    -0.097 Cl
ENDBRANCH  11  12
BRANCH  11  15
HETATM   15  N1  UNL     1      27.586   0.306  52.973  1.00  0.00    -0.321 N 
HETATM   16  C11 UNL     1      28.782   0.971  53.373  1.00  0.00     0.212 A 
HETATM   17  N2  UNL     1      29.801   0.257  53.734  1.00  0.00    -0.237 NA
HETATM   18  C12 UNL     1      29.690  -1.178  53.720  1.00  0.00     0.229 A 
HETATM   19  N3  UNL     1      28.631  -1.791  53.366  1.00  0.00    -0.263 NA
HETATM   20  C13 UNL     1      27.417  -1.123  52.938  1.00  0.00     0.281 A 
ENDBRANCH  11  15
ENDBRANCH   1  11
TORSDOF 6
ENDMDL
MODEL 5
REMARK VINA RESULT:      -6.7      3.792      6.208
REMARK  6 active torsions:
REMARK  status: ('A' for Active; 'I' for Inactive)
REMARK    1  A    between atoms: C5_6  and  C6_7 
REMARK    2  A    between atoms: C6_7  and  O1_8 
REMARK    3  A    between atoms: O1_8  and  C7_9 
REMARK    4  A    between atoms: C7_9  and  C8_10 
REMARK    5  A    between atoms: C8_10  and  C9_11 
REMARK    6  A    between atoms: C8_10  and  N1_14 
ROOT
HETATM    1  C7  UNL     1      24.041   1.601  52.168  1.00  0.00     0.164 C 
ENDROOT
BRANCH   1   2
HETATM    2  O1  UNL     1      24.063   2.800  51.521  1.00  0.00    -0.356 OA
BRANCH   2   3
HETATM    3  C6  UNL     1      23.988   2.825  50.103  1.00  0.00     0.213 C 
BRANCH   3   4
HETATM    4  C5  UNL     1      24.978   3.796  49.602  1.00  0.00    -0.031 A 
HETATM    5  C4  UNL     1      26.332   3.449  49.524  1.00  0.00     0.009 A 
HETATM    6  C3  UNL     1      27.238   4.361  49.057  1.00  0.00     0.004 A 
HETATM    7  C2  UNL     1      26.813   5.614  48.668  1.00  0.00     0.042 A 
HETATM    8  C1  UNL     1      25.488   5.958  48.743  1.00  0.00     0.117 A 
HETATM    9  F1  UNL     1      25.104   7.210  48.348  1.00  0.00    -0.206 F 
HETATM   10  C14 UNL     1      24.548   5.062  49.208  1.00  0.00     0.051 A 
ENDBRANCH   3   4
ENDBRANCH   2   3
ENDBRANCH   1   2
BRANCH   1  11
HETATM   11  C8  UNL     1      24.390   0.539  52.862  1.00  0.00     0.059 C 
BRANCH  11  12
HETATM   12  C9  UNL     1      23.368  -0.468  53.009  1.00  0.00     0.043 C 
HETATM   13  C10 UNL     1      22.675  -0.483  54.128  1.00  0.00     0.087 C 
HETATM   14 CL1  UNL     1      21.396  -1.625  54.492  1.00  0.00    -0.097 Cl
ENDBRANCH  11  12
BRANCH  11  15
HETATM   15  N1  UNL     1      25.680   0.410  53.421  1.00  0.00    -0.321 N 
HETATM   16  C11 UNL     1      26.274  -0.875  53.254  1.00  0.00     0.212 A 
HETATM   17  N2  UNL     1      27.458  -1.081  53.737  1.00  0.00    -0.237 NA
HETATM   18  C12 UNL     1      28.130  -0.009  54.422  1.00  0.00     0.229 A 
HETATM   19  N3  UNL     1      27.617   1.146  54.582  1.00  0.00    -0.263 NA
HETATM   20  C13 UNL     1      26.302   1.518  54.096  1.00  0.00     0.281 A 
ENDBRANCH  11  15
ENDBRANCH   1  11
TORSDOF 6
ENDMDL
MODEL 6
REMARK VINA RESULT:      -6.6      3.883      6.605
REMARK  6 active torsions:
REMARK  status: ('A' for Active; 'I' for Inactive)
REMARK    1  A    between atoms: C5_6  and  C6_7 
REMARK    2  A    between atoms: C6_7  and  O1_8 
REMARK    3  A    between atoms: O1_8  and  C7_9 
REMARK    4  A    between atoms: C7_9  and  C8_10 
REMARK    5  A    between atoms: C8_10  and  C9_11 
REMARK    6  A    between atoms: C8_10  and  N1_14 
ROOT
HETATM    1  C7  UNL     1      24.155   1.046  52.588  1.00  0.00     0.164 C 
ENDROOT
BRANCH   1   2
HETATM    2  O1  UNL     1      25.501   0.955  52.398  1.00  0.00    -0.356 OA
BRANCH   2   3
HETATM    3  C6  UNL     1      26.377   1.310  53.458  1.00  0.00     0.213 C 
BRANCH   3   4
HETATM    4  C5  UNL     1      27.540   0.404  53.423  1.00  0.00    -0.031 A 
HETATM    5  C4  UNL     1      28.823   0.889  53.701  1.00  0.00     0.009 A 
HETATM    6  C3  UNL     1      29.891   0.036  53.664  1.00  0.00     0.004 A 
HETATM    7  C2  UNL     1      29.699  -1.294  53.354  1.00  0.00     0.042 A 
HETATM    8  C1  UNL     1      28.443  -1.773  53.080  1.00  0.00     0.117 A 
HETATM    9  F1  UNL     1      28.290  -3.098  52.776  1.00  0.00    -0.206 F 
HETATM   10  C14 UNL     1      27.344  -0.940  53.109  1.00  0.00     0.051 A 
ENDBRANCH   3   4
ENDBRANCH   2   3
ENDBRANCH   1   2
BRANCH   1  11
HETATM   11  C8  UNL     1      22.943   1.512  52.799  1.00  0.00     0.059 C 
BRANCH  11  12
HETATM   12  C9  UNL     1      22.053   0.624  53.506  1.00  0.00     0.043 C 
HETATM   13  C10 UNL     1      22.426  -0.630  53.658  1.00  0.00     0.087 C 
HETATM   14 CL1  UNL     1      21.486  -1.857  54.484  1.00  0.00    -0.097 Cl
ENDBRANCH  11  12
BRANCH  11  15
HETATM   15  N1  UNL     1      22.555   2.795  52.357  1.00  0.00    -0.321 N 
HETATM   16  C11 UNL     1      21.152   2.958  52.165  1.00  0.00     0.212 A 
HETATM   17  N2  UNL     1      20.708   4.106  51.759  1.00  0.00    -0.237 NA
HETATM   18  C12 UNL     1      21.644   5.172  51.518  1.00  0.00     0.229 A 
HETATM   19  N3  UNL     1      22.901   5.046  51.683  1.00  0.00    -0.263 NA
HETATM   20  C13 UNL     1      23.537   3.822  52.132  1.00  0.00     0.281 A 
ENDBRANCH  11  15
ENDBRANCH   1  11
TORSDOF 6
ENDMDL
MODEL 7
REMARK VINA RESULT:      -6.6      2.571      3.634
REMARK  6 active torsions:
REMARK  status: ('A' for Active; 'I' for Inactive)
REMARK    1  A    between atoms: C5_6  and  C6_7 
REMARK    2  A    between atoms: C6_7  and  O1_8 
REMARK    3  A    between atoms: O1_8  and  C7_9 
REMARK    4  A    between atoms: C7_9  and  C8_10 
REMARK    5  A    between atoms: C8_10  and  C9_11 
REMARK    6  A    between atoms: C8_10  and  N1_14 
ROOT
HETATM    1  C7  UNL     1      25.289   0.775  52.924  1.00  0.00     0.164 C 
ENDROOT
BRANCH   1   2
HETATM    2  O1  UNL     1      24.017   0.771  53.409  1.00  0.00    -0.356 OA
BRANCH   2   3
HETATM    3  C6  UNL     1      22.927   0.737  52.500  1.00  0.00     0.213 C 
BRANCH   3   4
HETATM    4  C5  UNL     1      22.977   1.954  51.668  1.00  0.00    -0.031 A 
HETATM    5  C4  UNL     1      22.928   1.859  50.273  1.00  0.00     0.009 A 
HETATM    6  C3  UNL     1      22.975   2.997  49.516  1.00  0.00     0.004 A 
HETATM    7  C2  UNL     1      23.072   4.228  50.131  1.00  0.00     0.042 A 
HETATM    8  C1  UNL     1      23.120   4.325  51.498  1.00  0.00     0.117 A 
HETATM    9  F1  UNL     1      23.216   5.562  52.073  1.00  0.00    -0.206 F 
HETATM   10  C14 UNL     1      23.074   3.197  52.291  1.00  0.00     0.051 A 
ENDBRANCH   3   4
ENDBRANCH   2   3
ENDBRANCH   1   2
BRANCH   1  11
HETATM   11  C8  UNL     1      26.529   1.119  52.644  1.00  0.00     0.059 C 
BRANCH  11  12
HETATM   12  C9  UNL     1      26.682   2.382  51.963  1.00  0.00     0.043 C 
HETATM   13  C10 UNL     1      26.526   2.400  50.656  1.00  0.00     0.087 C 
HETATM   14 CL1  UNL     1      26.672   3.831  49.654  1.00  0.00    -0.097 Cl
ENDBRANCH  11  12
BRANCH  11  15
HETATM   15  N1  UNL     1      27.622   0.298  52.991  1.00  0.00    -0.321 N 
HETATM   16  C11 UNL     1      27.360  -1.102  52.921  1.00  0.00     0.212 A 
HETATM   17  N2  UNL     1      28.310  -1.929  53.224  1.00  0.00    -0.237 NA
HETATM   18  C12 UNL     1      29.592  -1.408  53.618  1.00  0.00     0.229 A 
HETATM   19  N3  UNL     1      29.846  -0.162  53.688  1.00  0.00    -0.263 NA
HETATM   20  C13 UNL     1      28.881   0.877  53.378  1.00  0.00     0.281 A 
ENDBRANCH  11  15
ENDBRANCH   1  11
TORSDOF 6
ENDMDL
MODEL 8
REMARK VINA RESULT:      -6.5      3.104      4.366
REMARK  6 active torsions:
REMARK  status: ('A' for Active; 'I' for Inactive)
REMARK    1  A    between atoms: C5_6  and  C6_7 
REMARK    2  A    between atoms: C6_7  and  O1_8 
REMARK    3  A    between atoms: O1_8  and  C7_9 
REMARK    4  A    between atoms: C7_9  and  C8_10 
REMARK    5  A    between atoms: C8_10  and  C9_11 
REMARK    6  A    between atoms: C8_10  and  N1_14 
ROOT
HETATM    1  C7  UNL     1      24.546   2.231  53.029  1.00  0.00     0.164 C 
ENDROOT
BRANCH   1   2
HETATM    2  O1  UNL     1      23.643   3.085  52.471  1.00  0.00    -0.356 OA
BRANCH   2   3
HETATM    3  C6  UNL     1      23.877   3.585  51.163  1.00  0.00     0.213 C 
BRANCH   3   4
HETATM    4  C5  UNL     1      23.073   2.793  50.213  1.00  0.00    -0.031 A 
HETATM    5  C4  UNL     1      23.265   2.936  48.834  1.00  0.00     0.009 A 
HETATM    6  C3  UNL     1      22.512   2.195  47.966  1.00  0.00     0.004 A 
HETATM    7  C2  UNL     1      21.568   1.315  48.454  1.00  0.00     0.042 A 
HETATM    8  C1  UNL     1      21.377   1.173  49.804  1.00  0.00     0.117 A 
HETATM    9  F1  UNL     1      20.432   0.290  50.251  1.00  0.00    -0.206 F 
HETATM   10  C14 UNL     1      22.120   1.903  50.706  1.00  0.00     0.051 A 
ENDBRANCH   3   4
ENDBRANCH   2   3
ENDBRANCH   1   2
BRANCH   1  11
HETATM   11  C8  UNL     1      25.213   1.147  53.364  1.00  0.00     0.059 C 
BRANCH  11  12
HETATM   12  C9  UNL     1      24.451  -0.078  53.348  1.00  0.00     0.043 C 
HETATM   13  C10 UNL     1      23.156   0.000  53.576  1.00  0.00     0.087 C 
HETATM   14 CL1  UNL     1      22.064  -1.371  53.599  1.00  0.00    -0.097 Cl
ENDBRANCH  11  12
BRANCH  11  15
HETATM   15  N1  UNL     1      26.579   1.195  53.713  1.00  0.00    -0.321 N 
HETATM   16  C11 UNL     1      27.365   2.083  52.921  1.00  0.00     0.212 A 
HETATM   17  N2  UNL     1      28.631   2.188  53.174  1.00  0.00    -0.237 NA
HETATM   18  C12 UNL     1      29.198   1.409  54.243  1.00  0.00     0.229 A 
HETATM   19  N3  UNL     1      28.514   0.610  54.962  1.00  0.00    -0.263 NA
HETATM   20  C13 UNL     1      27.090   0.391  54.792  1.00  0.00     0.281 A 
ENDBRANCH  11  15
ENDBRANCH   1  11
TORSDOF 6
ENDMDL
MODEL 9
REMARK VINA RESULT:      -6.5      2.816      3.836
REMARK  6 active torsions:
REMARK  status: ('A' for Active; 'I' for Inactive)
REMARK    1  A    between atoms: C5_6  and  C6_7 
REMARK    2  A    between atoms: C6_7  and  O1_8 
REMARK    3  A    between atoms: O1_8  and  C7_9 
REMARK    4  A    between atoms: C7_9  and  C8_10 
REMARK    5  A    between atoms: C8_10  and  C9_11 
REMARK    6  A    between atoms: C8_10  and  N1_14 
ROOT
HETATM    1  C7  UNL     1      25.174   1.091  52.397  1.00  0.00     0.164 C 
ENDROOT
BRANCH   1   2
HETATM    2  O1  UNL     1      23.861   1.083  52.760  1.00  0.00    -0.356 OA
BRANCH   2   3
HETATM    3  C6  UNL     1      23.088   2.262  52.597  1.00  0.00     0.213 C 
BRANCH   3   4
HETATM    4  C5  UNL     1      22.859   2.472  51.155  1.00  0.00    -0.031 A 
HETATM    5  C4  UNL     1      23.205   3.687  50.553  1.00  0.00     0.009 A 
HETATM    6  C3  UNL     1      22.986   3.866  49.215  1.00  0.00     0.004 A 
HETATM    7  C2  UNL     1      22.426   2.850  48.469  1.00  0.00     0.042 A 
HETATM    8  C1  UNL     1      22.085   1.658  49.055  1.00  0.00     0.117 A 
HETATM    9  F1  UNL     1      21.532   0.674  48.283  1.00  0.00    -0.206 F 
HETATM   10  C14 UNL     1      22.293   1.445  50.401  1.00  0.00     0.051 A 
ENDBRANCH   3   4
ENDBRANCH   2   3
ENDBRANCH   1   2
BRANCH   1  11
HETATM   11  C8  UNL     1      26.448   1.402  52.290  1.00  0.00     0.059 C 
BRANCH  11  12
HETATM   12  C9  UNL     1      26.728   2.638  51.602  1.00  0.00     0.043 C 
HETATM   13  C10 UNL     1      26.561   2.667  50.296  1.00  0.00     0.087 C 
HETATM   14 CL1  UNL     1      26.848   4.071  49.286  1.00  0.00    -0.097 Cl
ENDBRANCH  11  12
BRANCH  11  15
HETATM   15  N1  UNL     1      27.460   0.571  52.817  1.00  0.00    -0.321 N 
HETATM   16  C11 UNL     1      28.613   1.265  53.289  1.00  0.00     0.212 A 
HETATM   17  N2  UNL     1      29.591   0.579  53.789  1.00  0.00    -0.237 NA
HETATM   18  C12 UNL     1      29.480  -0.855  53.851  1.00  0.00     0.229 A 
HETATM   19  N3  UNL     1      28.459  -1.493  53.435  1.00  0.00    -0.263 NA
HETATM   20  C13 UNL     1      27.293  -0.858  52.853  1.00  0.00     0.281 A 
ENDBRANCH  11  15
ENDBRANCH   1  11
TORSDOF 6
ENDMDL
