MODEL 1
REMARK VINA RESULT:      -9.2      0.000      0.000
REMARK  6 active torsions:
REMARK  status: ('A' for Active; 'I' for Inactive)
REMARK    1  A    between atoms: O1_2  and  C2_3 
REMARK    2  A    between atoms: C12_15  and  C13_16 
REMARK    3  A    between atoms: C13_16  and  C14_17 
REMARK    4  A    between atoms: C14_17  and  C15_18 
REMARK    5  A    between atoms: C22_27  and  O3_28 
REMARK    6  A    between atoms: C24_30  and  O4_31 
ROOT
HETATM    1  C2  UNL     1      19.492   2.779  51.333  1.00  0.00     0.102 A 
HETATM    2  C3  UNL     1      19.597   2.796  49.953  1.00  0.00     0.040 A 
HETATM    3  C4  UNL     1      20.534   2.052  49.280  1.00  0.00     0.004 A 
HETATM    4  C5  UNL     1      21.379   1.275  50.015  1.00  0.00     0.017 A 
HETATM    5  C6  UNL     1      21.350   1.193  51.409  1.00  0.00     0.030 A 
HETATM    6  C7  UNL     1      22.087   0.421  52.355  1.00  0.00     0.083 A 
HETATM    7  N1  UNL     1      21.447  -0.531  53.045  1.00  0.00    -0.240 NA
HETATM    8  C8  UNL     1      22.021  -1.315  53.968  1.00  0.00     0.234 A 
HETATM    9  N2  UNL     1      23.306  -1.247  54.322  1.00  0.00    -0.241 NA
HETATM   10  C9  UNL     1      24.050  -0.344  53.716  1.00  0.00     0.071 A 
HETATM   11  C10 UNL     1      23.406   0.505  52.711  1.00  0.00     0.021 A 
HETATM   12  C11 UNL     1      23.935   1.571  51.981  1.00  0.00     0.027 C 
HETATM   13  C12 UNL     1      24.950   2.718  51.863  1.00  0.00     0.097 C 
HETATM   14  N3  UNL     1      25.048   3.253  53.237  1.00  0.00    -0.380 N 
HETATM   15  C19 UNL     1      25.908   2.279  53.862  1.00  0.00     0.096 C 
HETATM   16  C20 UNL     1      26.048   0.991  53.339  1.00  0.00    -0.016 C 
HETATM   17  C21 UNL     1      26.398   0.859  51.827  1.00  0.00     0.047 C 
HETATM   18  C22 UNL     1      26.362   2.185  51.545  1.00  0.00     0.076 C 
HETATM   19  C23 UNL     1      25.451  -0.273  54.058  1.00  0.00     0.045 C 
HETATM   20  C24 UNL     1      20.369   1.979  52.024  1.00  0.00     0.111 A 
HETATM   21  H20 UNL     1      24.640   4.088  53.707  1.00  0.00     0.160 HD
ENDROOT
BRANCH  20  22
HETATM   22  O4  UNL     1      20.170   2.039  53.401  1.00  0.00    -0.357 OA
HETATM   23  H25 UNL     1      20.106   2.940  53.892  1.00  0.00     0.217 HD
ENDBRANCH  20  22
BRANCH   1  24
HETATM   24  O1  UNL     1      18.520   3.561  51.927  1.00  0.00    -0.353 OA
HETATM   25  C1  UNL     1      17.389   3.921  51.196  1.00  0.00     0.210 C 
ENDBRANCH   1  24
BRANCH  13  26
HETATM   26  C13 UNL     1      24.433   3.660  50.878  1.00  0.00     0.043 C 
BRANCH  26  27
HETATM   27  C14 UNL     1      23.080   4.216  50.972  1.00  0.00     0.010 C 
BRANCH  27  28
HETATM   28  C15 UNL     1      22.885   5.541  51.611  1.00  0.00     0.011 C 
HETATM   29  C16 UNL     1      21.771   6.377  51.086  1.00  0.00     0.033 C 
HETATM   30  C17 UNL     1      22.400   7.541  50.372  1.00  0.00     0.168 C 
HETATM   31  O2  UNL     1      23.621   7.671  51.036  1.00  0.00    -0.391 OA
HETATM   32  C18 UNL     1      24.105   6.389  51.224  1.00  0.00     0.172 C 
ENDBRANCH  27  28
ENDBRANCH  26  27
ENDBRANCH  13  26
BRANCH  18  33
HETATM   33  O3  UNL     1      27.208   3.212  51.053  1.00  0.00    -0.362 OA
HETATM   34  H23 UNL     1      26.925   4.148  51.319  1.00  0.00     0.217 HD
ENDBRANCH  18  33
TORSDOF 6
ENDMDL
MODEL 2
REMARK VINA RESULT:      -8.3      2.020      2.640
REMARK  6 active torsions:
REMARK  status: ('A' for Active; 'I' for Inactive)
REMARK    1  A    between atoms: O1_2  and  C2_3 
REMARK    2  A    between atoms: C12_15  and  C13_16 
REMARK    3  A    between atoms: C13_16  and  C14_17 
REMARK    4  A    between atoms: C14_17  and  C15_18 
REMARK    5  A    between atoms: C22_27  and  O3_28 
REMARK    6  A    between atoms: C24_30  and  O4_31 
ROOT
HETATM    1  C2  UNL     1      20.602   4.133  48.320  1.00  0.00     0.102 A 
HETATM    2  C3  UNL     1      21.305   3.957  47.141  1.00  0.00     0.040 A 
HETATM    3  C4  UNL     1      22.232   2.956  46.982  1.00  0.00     0.004 A 
HETATM    4  C5  UNL     1      22.451   2.117  48.034  1.00  0.00     0.017 A 
HETATM    5  C6  UNL     1      21.792   2.217  49.262  1.00  0.00     0.030 A 
HETATM    6  C7  UNL     1      21.827   1.431  50.452  1.00  0.00     0.083 A 
HETATM    7  N1  UNL     1      20.740   0.726  50.787  1.00  0.00    -0.240 NA
HETATM    8  C8  UNL     1      20.640  -0.040  51.882  1.00  0.00     0.234 A 
HETATM    9  N2  UNL     1      21.612  -0.198  52.784  1.00  0.00    -0.241 NA
HETATM   10  C9  UNL     1      22.741   0.448  52.571  1.00  0.00     0.071 A 
HETATM   11  C10 UNL     1      22.831   1.281  51.370  1.00  0.00     0.021 A 
HETATM   12  C11 UNL     1      23.867   2.115  50.946  1.00  0.00     0.027 C 
HETATM   13  C12 UNL     1      25.074   3.003  51.287  1.00  0.00     0.097 C 
HETATM   14  N3  UNL     1      24.684   3.672  52.546  1.00  0.00    -0.380 N 
HETATM   15  C19 UNL     1      24.916   2.625  53.510  1.00  0.00     0.096 C 
HETATM   16  C20 UNL     1      24.956   1.282  53.128  1.00  0.00    -0.016 C 
HETATM   17  C21 UNL     1      25.893   0.894  51.946  1.00  0.00     0.047 C 
HETATM   18  C22 UNL     1      26.307   2.153  51.658  1.00  0.00     0.076 C 
HETATM   19  C23 UNL     1      23.819   0.269  53.515  1.00  0.00     0.045 C 
HETATM   20  C24 UNL     1      20.863   3.260  49.348  1.00  0.00     0.111 A 
HETATM   21  H20 UNL     1      24.325   4.625  52.764  1.00  0.00     0.160 HD
ENDROOT
BRANCH  20  22
HETATM   22  O4  UNL     1      20.100   3.529  50.481  1.00  0.00    -0.357 OA
HETATM   23  H25 UNL     1      19.940   2.811  51.199  1.00  0.00     0.217 HD
ENDBRANCH  20  22
BRANCH   1  24
HETATM   24  O1  UNL     1      19.689   5.167  48.392  1.00  0.00    -0.353 OA
HETATM   25  C1  UNL     1      20.035   6.422  47.895  1.00  0.00     0.210 C 
ENDBRANCH   1  24
BRANCH  13  26
HETATM   26  C13 UNL     1      25.288   3.903  50.160  1.00  0.00     0.043 C 
BRANCH  26  27
HETATM   27  C14 UNL     1      24.280   4.884  49.750  1.00  0.00     0.010 C 
BRANCH  27  28
HETATM   28  C15 UNL     1      24.662   5.961  48.802  1.00  0.00     0.011 C 
HETATM   29  C16 UNL     1      26.119   6.189  48.605  1.00  0.00     0.033 C 
HETATM   30  C17 UNL     1      26.439   7.519  49.228  1.00  0.00     0.168 C 
HETATM   31  O2  UNL     1      25.221   8.195  49.127  1.00  0.00    -0.391 OA
HETATM   32  C18 UNL     1      24.237   7.282  49.459  1.00  0.00     0.172 C 
ENDBRANCH  27  28
ENDBRANCH  26  27
ENDBRANCH  13  26
BRANCH  18  33
HETATM   33  O3  UNL     1      27.503   2.912  51.592  1.00  0.00    -0.362 OA
HETATM   34  H23 UNL     1      27.689   3.318  50.682  1.00  0.00     0.217 HD
ENDBRANCH  18  33
TORSDOF 6
ENDMDL
MODEL 3
REMARK VINA RESULT:      -8.3      2.532      7.086
REMARK  6 active torsions:
REMARK  status: ('A' for Active; 'I' for Inactive)
REMARK    1  A    between atoms: O1_2  and  C2_3 
REMARK    2  A    between atoms: C12_15  and  C13_16 
REMARK    3  A    between atoms: C13_16  and  C14_17 
REMARK    4  A    between atoms: C14_17  and  C15_18 
REMARK    5  A    between atoms: C22_27  and  O3_28 
REMARK    6  A    between atoms: C24_30  and  O4_31 
ROOT
HETATM    1  C2  UNL     1      27.930   1.018  53.134  1.00  0.00     0.102 A 
HETATM    2  C3  UNL     1      27.420  -0.257  52.961  1.00  0.00     0.040 A 
HETATM    3  C4  UNL     1      26.516  -0.557  51.971  1.00  0.00     0.004 A 
HETATM    4  C5  UNL     1      26.123   0.449  51.141  1.00  0.00     0.017 A 
HETATM    5  C6  UNL     1      26.580   1.765  51.239  1.00  0.00     0.030 A 
HETATM    6  C7  UNL     1      26.347   2.938  50.460  1.00  0.00     0.083 A 
HETATM    7  N1  UNL     1      27.357   3.443  49.742  1.00  0.00    -0.240 NA
HETATM    8  C8  UNL     1      27.272   4.542  48.981  1.00  0.00     0.234 A 
HETATM    9  N2  UNL     1      26.168   5.279  48.841  1.00  0.00    -0.241 NA
HETATM   10  C9  UNL     1      25.096   4.888  49.500  1.00  0.00     0.071 A 
HETATM   11  C10 UNL     1      25.208   3.686  50.328  1.00  0.00     0.021 A 
HETATM   12  C11 UNL     1      24.263   3.100  51.173  1.00  0.00     0.027 C 
HETATM   13  C12 UNL     1      23.030   3.244  52.078  1.00  0.00     0.097 C 
HETATM   14  N3  UNL     1      23.225   4.547  52.748  1.00  0.00    -0.380 N 
HETATM   15  C19 UNL     1      22.829   5.464  51.709  1.00  0.00     0.096 C 
HETATM   16  C20 UNL     1      22.832   5.085  50.365  1.00  0.00    -0.016 C 
HETATM   17  C21 UNL     1      22.088   3.771  49.983  1.00  0.00     0.047 C 
HETATM   18  C22 UNL     1      21.743   3.418  51.245  1.00  0.00     0.076 C 
HETATM   19  C23 UNL     1      23.880   5.650  49.339  1.00  0.00     0.045 C 
HETATM   20  C24 UNL     1      27.498   1.994  52.270  1.00  0.00     0.111 A 
HETATM   21  H20 UNL     1      23.557   4.816  53.697  1.00  0.00     0.160 HD
ENDROOT
BRANCH  20  22
HETATM   22  O4  UNL     1      28.076   3.233  52.535  1.00  0.00    -0.357 OA
HETATM   23  H25 UNL     1      27.524   4.004  52.934  1.00  0.00     0.217 HD
ENDBRANCH  20  22
BRANCH   1  24
HETATM   24  O1  UNL     1      28.834   1.230  54.157  1.00  0.00    -0.353 OA
HETATM   25  C1  UNL     1      28.946   0.289  55.178  1.00  0.00     0.210 C 
ENDBRANCH   1  24
BRANCH  13  26
HETATM   26  C13 UNL     1      23.009   2.094  52.975  1.00  0.00     0.043 C 
BRANCH  26  27
HETATM   27  C14 UNL     1      23.172   0.724  52.481  1.00  0.00     0.010 C 
BRANCH  27  28
HETATM   28  C15 UNL     1      22.270  -0.340  52.989  1.00  0.00     0.011 C 
HETATM   29  C16 UNL     1      20.945   0.100  53.506  1.00  0.00     0.033 C 
HETATM   30  C17 UNL     1      20.966  -0.114  54.993  1.00  0.00     0.168 C 
HETATM   31  O2  UNL     1      21.881  -1.160  55.130  1.00  0.00    -0.391 OA
HETATM   32  C18 UNL     1      22.925  -0.885  54.266  1.00  0.00     0.172 C 
ENDBRANCH  27  28
ENDBRANCH  26  27
ENDBRANCH  13  26
BRANCH  18  33
HETATM   33  O3  UNL     1      20.583   3.161  52.020  1.00  0.00    -0.362 OA
HETATM   34  H23 UNL     1      19.834   2.707  51.510  1.00  0.00     0.217 HD
ENDBRANCH  18  33
TORSDOF 6
ENDMDL
MODEL 4
REMARK VINA RESULT:      -8.1      2.561      6.408
REMARK  6 active torsions:
REMARK  status: ('A' for Active; 'I' for Inactive)
REMARK    1  A    between atoms: O1_2  and  C2_3 
REMARK    2  A    between atoms: C12_15  and  C13_16 
REMARK    3  A    between atoms: C13_16  and  C14_17 
REMARK    4  A    between atoms: C14_17  and  C15_18 
REMARK    5  A    between atoms: C22_27  and  O3_28 
REMARK    6  A    between atoms: C24_30  and  O4_31 
ROOT
HETATM    1  C2  UNL     1      25.848   1.366  53.355  1.00  0.00     0.102 A 
HETATM    2  C3  UNL     1      24.674   0.640  53.251  1.00  0.00     0.040 A 
HETATM    3  C4  UNL     1      23.800   0.807  52.205  1.00  0.00     0.004 A 
HETATM    4  C5  UNL     1      24.119   1.723  51.248  1.00  0.00     0.017 A 
HETATM    5  C6  UNL     1      25.278   2.502  51.268  1.00  0.00     0.030 A 
HETATM    6  C7  UNL     1      25.824   3.460  50.362  1.00  0.00     0.083 A 
HETATM    7  N1  UNL     1      26.953   3.155  49.710  1.00  0.00    -0.240 NA
HETATM    8  C8  UNL     1      27.572   3.969  48.844  1.00  0.00     0.234 A 
HETATM    9  N2  UNL     1      27.145   5.192  48.520  1.00  0.00    -0.241 NA
HETATM   10  C9  UNL     1      26.039   5.615  49.098  1.00  0.00     0.071 A 
HETATM   11  C10 UNL     1      25.377   4.713  50.043  1.00  0.00     0.021 A 
HETATM   12  C11 UNL     1      24.249   4.932  50.836  1.00  0.00     0.027 C 
HETATM   13  C12 UNL     1      23.333   5.908  51.590  1.00  0.00     0.097 C 
HETATM   14  N3  UNL     1      24.260   6.912  52.151  1.00  0.00    -0.380 N 
HETATM   15  C19 UNL     1      24.529   7.730  50.995  1.00  0.00     0.096 C 
HETATM   16  C20 UNL     1      24.336   7.244  49.700  1.00  0.00    -0.016 C 
HETATM   17  C21 UNL     1      22.959   6.599  49.368  1.00  0.00     0.047 C 
HETATM   18  C22 UNL     1      22.436   6.700  50.615  1.00  0.00     0.076 C 
HETATM   19  C23 UNL     1      25.539   6.922  48.741  1.00  0.00     0.045 C 
HETATM   20  C24 UNL     1      26.120   2.276  52.363  1.00  0.00     0.111 A 
HETATM   21  H20 UNL     1      24.663   7.057  53.101  1.00  0.00     0.160 HD
ENDROOT
BRANCH  20  22
HETATM   22  O4  UNL     1      27.324   2.945  52.570  1.00  0.00    -0.357 OA
HETATM   23  H25 UNL     1      27.875   3.306  51.781  1.00  0.00     0.217 HD
ENDBRANCH  20  22
BRANCH   1  24
HETATM   24  O1  UNL     1      26.669   1.134  54.443  1.00  0.00    -0.353 OA
HETATM   25  C1  UNL     1      27.515   0.027  54.438  1.00  0.00     0.210 C 
ENDBRANCH   1  24
BRANCH  13  26
HETATM   26  C13 UNL     1      22.595   5.137  52.584  1.00  0.00     0.043 C 
BRANCH  26  27
HETATM   27  C14 UNL     1      22.004   3.833  52.270  1.00  0.00     0.010 C 
BRANCH  27  28
HETATM   28  C15 UNL     1      20.623   3.777  51.728  1.00  0.00     0.011 C 
HETATM   29  C16 UNL     1      19.764   2.660  52.209  1.00  0.00     0.033 C 
HETATM   30  C17 UNL     1      19.561   1.735  51.042  1.00  0.00     0.168 C 
HETATM   31  O2  UNL     1      19.693   2.598  49.952  1.00  0.00    -0.391 OA
HETATM   32  C18 UNL     1      20.759   3.432  50.238  1.00  0.00     0.172 C 
ENDBRANCH  27  28
ENDBRANCH  26  27
ENDBRANCH  13  26
BRANCH  18  33
HETATM   33  O3  UNL     1      21.339   7.298  51.285  1.00  0.00    -0.362 OA
HETATM   34  H23 UNL     1      20.501   7.381  50.721  1.00  0.00     0.217 HD
ENDBRANCH  18  33
TORSDOF 6
ENDMDL
MODEL 5
REMARK VINA RESULT:      -8.0      2.316      5.564
REMARK  6 active torsions:
REMARK  status: ('A' for Active; 'I' for Inactive)
REMARK    1  A    between atoms: O1_2  and  C2_3 
REMARK    2  A    between atoms: C12_15  and  C13_16 
REMARK    3  A    between atoms: C13_16  and  C14_17 
REMARK    4  A    between atoms: C14_17  and  C15_18 
REMARK    5  A    between atoms: C22_27  and  O3_28 
REMARK    6  A    between atoms: C24_30  and  O4_31 
ROOT
HETATM    1  C2  UNL     1      26.581   0.310  52.860  1.00  0.00     0.102 A 
HETATM    2  C3  UNL     1      27.045   1.585  53.132  1.00  0.00     0.040 A 
HETATM    3  C4  UNL     1      26.198   2.624  53.435  1.00  0.00     0.004 A 
HETATM    4  C5  UNL     1      24.860   2.368  53.464  1.00  0.00     0.017 A 
HETATM    5  C6  UNL     1      24.299   1.116  53.202  1.00  0.00     0.030 A 
HETATM    6  C7  UNL     1      22.960   0.623  53.230  1.00  0.00     0.083 A 
HETATM    7  N1  UNL     1      22.624  -0.267  54.171  1.00  0.00    -0.240 NA
HETATM    8  C8  UNL     1      21.407  -0.813  54.298  1.00  0.00     0.234 A 
HETATM    9  N2  UNL     1      20.371  -0.543  53.500  1.00  0.00    -0.241 NA
HETATM   10  C9  UNL     1      20.572   0.322  52.526  1.00  0.00     0.071 A 
HETATM   11  C10 UNL     1      21.909   0.908  52.402  1.00  0.00     0.021 A 
HETATM   12  C11 UNL     1      22.407   1.782  51.434  1.00  0.00     0.027 C 
HETATM   13  C12 UNL     1      22.361   2.331  50.000  1.00  0.00     0.097 C 
HETATM   14  N3  UNL     1      22.063   1.145  49.169  1.00  0.00    -0.380 N 
HETATM   15  C19 UNL     1      20.644   0.997  49.381  1.00  0.00     0.096 C 
HETATM   16  C20 UNL     1      20.016   1.547  50.501  1.00  0.00    -0.016 C 
HETATM   17  C21 UNL     1      20.267   3.054  50.803  1.00  0.00     0.047 C 
HETATM   18  C22 UNL     1      21.151   3.268  49.798  1.00  0.00     0.076 C 
HETATM   19  C23 UNL     1      19.459   0.655  51.669  1.00  0.00     0.045 C 
HETATM   20  C24 UNL     1      25.223   0.108  52.902  1.00  0.00     0.111 A 
HETATM   21  H20 UNL     1      22.652   0.527  48.573  1.00  0.00     0.160 HD
ENDROOT
BRANCH  20  22
HETATM   22  O4  UNL     1      24.871  -1.208  52.615  1.00  0.00    -0.357 OA
HETATM   23  H25 UNL     1      24.484  -1.826  53.339  1.00  0.00     0.217 HD
ENDBRANCH  20  22
BRANCH   1  24
HETATM   24  O1  UNL     1      27.504  -0.674  52.564  1.00  0.00    -0.353 OA
HETATM   25  C1  UNL     1      28.624  -0.831  53.378  1.00  0.00     0.210 C 
ENDBRANCH   1  24
BRANCH  13  26
HETATM   26  C13 UNL     1      23.650   2.956  49.729  1.00  0.00     0.043 C 
BRANCH  26  27
HETATM   27  C14 UNL     1      24.023   4.247  50.314  1.00  0.00     0.010 C 
BRANCH  27  28
HETATM   28  C15 UNL     1      25.461   4.574  50.488  1.00  0.00     0.011 C 
HETATM   29  C16 UNL     1      25.970   5.756  49.742  1.00  0.00     0.033 C 
HETATM   30  C17 UNL     1      26.889   5.233  48.673  1.00  0.00     0.168 C 
HETATM   31  O2  UNL     1      27.342   4.037  49.232  1.00  0.00    -0.391 OA
HETATM   32  C18 UNL     1      26.244   3.435  49.819  1.00  0.00     0.172 C 
ENDBRANCH  27  28
ENDBRANCH  26  27
ENDBRANCH  13  26
BRANCH  18  33
HETATM   33  O3  UNL     1      21.304   4.074  48.642  1.00  0.00    -0.362 OA
HETATM   34  H23 UNL     1      21.022   5.039  48.766  1.00  0.00     0.217 HD
ENDBRANCH  18  33
TORSDOF 6
ENDMDL
MODEL 6
REMARK VINA RESULT:      -8.0      2.103      5.425
REMARK  6 active torsions:
REMARK  status: ('A' for Active; 'I' for Inactive)
REMARK    1  A    between atoms: O1_2  and  C2_3 
REMARK    2  A    between atoms: C12_15  and  C13_16 
REMARK    3  A    between atoms: C13_16  and  C14_17 
REMARK    4  A    between atoms: C14_17  and  C15_18 
REMARK    5  A    between atoms: C22_27  and  O3_28 
REMARK    6  A    between atoms: C24_30  and  O4_31 
ROOT
HETATM    1  C2  UNL     1      25.629   3.455  50.431  1.00  0.00     0.102 A 
HETATM    2  C3  UNL     1      24.841   4.581  50.594  1.00  0.00     0.040 A 
HETATM    3  C4  UNL     1      24.069   4.779  51.712  1.00  0.00     0.004 A 
HETATM    4  C5  UNL     1      24.096   3.823  52.683  1.00  0.00     0.017 A 
HETATM    5  C6  UNL     1      24.857   2.655  52.607  1.00  0.00     0.030 A 
HETATM    6  C7  UNL     1      25.071   1.572  53.511  1.00  0.00     0.083 A 
HETATM    7  N1  UNL     1      26.284   1.422  54.057  1.00  0.00    -0.240 NA
HETATM    8  C8  UNL     1      26.617   0.442  54.908  1.00  0.00     0.234 A 
HETATM    9  N2  UNL     1      25.782  -0.515  55.321  1.00  0.00    -0.241 NA
HETATM   10  C9  UNL     1      24.551  -0.482  54.853  1.00  0.00     0.071 A 
HETATM   11  C10 UNL     1      24.206   0.595  53.923  1.00  0.00     0.021 A 
HETATM   12  C11 UNL     1      23.013   0.821  53.232  1.00  0.00     0.027 C 
HETATM   13  C12 UNL     1      21.727   0.269  52.599  1.00  0.00     0.097 C 
HETATM   14  N3  UNL     1      22.140  -1.024  52.013  1.00  0.00    -0.380 N 
HETATM   15  C19 UNL     1      22.177  -1.868  53.182  1.00  0.00     0.096 C 
HETATM   16  C20 UNL     1      22.305  -1.329  54.464  1.00  0.00    -0.016 C 
HETATM   17  C21 UNL     1      21.319  -0.195  54.874  1.00  0.00     0.047 C 
HETATM   18  C22 UNL     1      20.687  -0.101  53.678  1.00  0.00     0.076 C 
HETATM   19  C23 UNL     1      23.620  -1.488  55.309  1.00  0.00     0.045 C 
HETATM   20  C24 UNL     1      25.617   2.523  51.440  1.00  0.00     0.111 A 
HETATM   21  H20 UNL     1      22.368  -1.325  51.043  1.00  0.00     0.160 HD
ENDROOT
BRANCH  20  22
HETATM   22  O4  UNL     1      26.446   1.436  51.170  1.00  0.00    -0.357 OA
HETATM   23  H25 UNL     1      26.854   0.876  51.929  1.00  0.00     0.217 HD
ENDBRANCH  20  22
BRANCH   1  24
HETATM   24  O1  UNL     1      26.373   3.337  49.272  1.00  0.00    -0.353 OA
HETATM   25  C1  UNL     1      27.216   4.378  48.890  1.00  0.00     0.210 C 
ENDBRANCH   1  24
BRANCH  13  26
HETATM   26  C13 UNL     1      21.257   1.254  51.632  1.00  0.00     0.043 C 
BRANCH  26  27
HETATM   27  C14 UNL     1      22.064   1.648  50.474  1.00  0.00     0.010 C 
BRANCH  27  28
HETATM   28  C15 UNL     1      21.551   1.375  49.108  1.00  0.00     0.011 C 
HETATM   29  C16 UNL     1      22.259   2.046  47.984  1.00  0.00     0.033 C 
HETATM   30  C17 UNL     1      21.314   3.073  47.427  1.00  0.00     0.168 C 
HETATM   31  O2  UNL     1      20.067   2.532  47.742  1.00  0.00    -0.391 OA
HETATM   32  C18 UNL     1      20.167   2.035  49.029  1.00  0.00     0.172 C 
ENDBRANCH  27  28
ENDBRANCH  26  27
ENDBRANCH  13  26
BRANCH  18  33
HETATM   33  O3  UNL     1      19.388  -0.233  53.125  1.00  0.00    -0.362 OA
HETATM   34  H23 UNL     1      19.332  -0.871  52.340  1.00  0.00     0.217 HD
ENDBRANCH  18  33
TORSDOF 6
ENDMDL
MODEL 7
REMARK VINA RESULT:      -7.7      2.532      6.361
REMARK  6 active torsions:
REMARK  status: ('A' for Active; 'I' for Inactive)
REMARK    1  A    between atoms: O1_2  and  C2_3 
REMARK    2  A    between atoms: C12_15  and  C13_16 
REMARK    3  A    between atoms: C13_16  and  C14_17 
REMARK    4  A    between atoms: C14_17  and  C15_18 
REMARK    5  A    between atoms: C22_27  and  O3_28 
REMARK    6  A    between atoms: C24_30  and  O4_31 
ROOT
HETATM    1  C2  UNL     1      25.256   5.858  49.525  1.00  0.00     0.102 A 
HETATM    2  C3  UNL     1      26.415   5.118  49.676  1.00  0.00     0.040 A 
HETATM    3  C4  UNL     1      26.434   3.751  49.542  1.00  0.00     0.004 A 
HETATM    4  C5  UNL     1      25.261   3.123  49.249  1.00  0.00     0.017 A 
HETATM    5  C6  UNL     1      24.043   3.784  49.079  1.00  0.00     0.030 A 
HETATM    6  C7  UNL     1      22.734   3.340  48.724  1.00  0.00     0.083 A 
HETATM    7  N1  UNL     1      22.231   3.709  47.540  1.00  0.00    -0.240 NA
HETATM    8  C8  UNL     1      21.014   3.369  47.093  1.00  0.00     0.234 A 
HETATM    9  N2  UNL     1      20.143   2.621  47.773  1.00  0.00    -0.241 NA
HETATM   10  C9  UNL     1      20.517   2.192  48.962  1.00  0.00     0.071 A 
HETATM   11  C10 UNL     1      21.850   2.574  49.434  1.00  0.00     0.021 A 
HETATM   12  C11 UNL     1      22.461   2.320  50.663  1.00  0.00     0.027 C 
HETATM   13  C12 UNL     1      22.336   2.042  52.169  1.00  0.00     0.097 C 
HETATM   14  N3  UNL     1      21.200   2.885  52.598  1.00  0.00    -0.380 N 
HETATM   15  C19 UNL     1      20.077   2.100  52.148  1.00  0.00     0.096 C 
HETATM   16  C20 UNL     1      20.216   1.147  51.137  1.00  0.00    -0.016 C 
HETATM   17  C21 UNL     1      21.350   0.091  51.290  1.00  0.00     0.047 C 
HETATM   18  C22 UNL     1      21.875   0.594  52.434  1.00  0.00     0.076 C 
HETATM   19  C23 UNL     1      19.605   1.353  49.703  1.00  0.00     0.045 C 
HETATM   20  C24 UNL     1      24.102   5.174  49.231  1.00  0.00     0.111 A 
HETATM   21  H20 UNL     1      21.139   3.802  53.086  1.00  0.00     0.160 HD
ENDROOT
BRANCH  20  22
HETATM   22  O4  UNL     1      23.002   6.018  49.100  1.00  0.00    -0.357 OA
HETATM   23  H25 UNL     1      22.619   6.523  49.909  1.00  0.00     0.217 HD
ENDBRANCH  20  22
BRANCH   1  24
HETATM   24  O1  UNL     1      25.329   7.230  49.679  1.00  0.00    -0.353 OA
HETATM   25  C1  UNL     1      26.563   7.867  49.570  1.00  0.00     0.210 C 
ENDBRANCH   1  24
BRANCH  13  26
HETATM   26  C13 UNL     1      23.614   2.383  52.784  1.00  0.00     0.043 C 
BRANCH  26  27
HETATM   27  C14 UNL     1      24.882   1.850  52.280  1.00  0.00     0.010 C 
BRANCH  27  28
HETATM   28  C15 UNL     1      25.579   0.789  53.051  1.00  0.00     0.011 C 
HETATM   29  C16 UNL     1      26.546   1.244  54.086  1.00  0.00     0.033 C 
HETATM   30  C17 UNL     1      27.917   0.874  53.591  1.00  0.00     0.168 C 
HETATM   31  O2  UNL     1      27.652  -0.228  52.777  1.00  0.00    -0.391 OA
HETATM   32  C18 UNL     1      26.511   0.079  52.059  1.00  0.00     0.172 C 
ENDBRANCH  27  28
ENDBRANCH  26  27
ENDBRANCH  13  26
BRANCH  18  33
HETATM   33  O3  UNL     1      22.128   0.203  53.773  1.00  0.00    -0.362 OA
HETATM   34  H23 UNL     1      21.383   0.429  54.421  1.00  0.00     0.217 HD
ENDBRANCH  18  33
TORSDOF 6
ENDMDL
MODEL 8
REMARK VINA RESULT:      -7.5      2.638      6.002
REMARK  6 active torsions:
REMARK  status: ('A' for Active; 'I' for Inactive)
REMARK    1  A    between atoms: O1_2  and  C2_3 
REMARK    2  A    between atoms: C12_15  and  C13_16 
REMARK    3  A    between atoms: C13_16  and  C14_17 
REMARK    4  A    between atoms: C14_17  and  C15_18 
REMARK    5  A    between atoms: C22_27  and  O3_28 
REMARK    6  A    between atoms: C24_30  and  O4_31 
ROOT
HETATM    1  C2  UNL     1      22.834   1.157  51.876  1.00  0.00     0.102 A 
HETATM    2  C3  UNL     1      21.791   0.684  51.098  1.00  0.00     0.040 A 
HETATM    3  C4  UNL     1      21.564   1.140  49.822  1.00  0.00     0.004 A 
HETATM    4  C5  UNL     1      22.406   2.089  49.325  1.00  0.00     0.017 A 
HETATM    5  C6  UNL     1      23.482   2.626  50.034  1.00  0.00     0.030 A 
HETATM    6  C7  UNL     1      24.500   3.567  49.695  1.00  0.00     0.083 A 
HETATM    7  N1  UNL     1      25.764   3.136  49.594  1.00  0.00    -0.240 NA
HETATM    8  C8  UNL     1      26.810   3.918  49.294  1.00  0.00     0.234 A 
HETATM    9  N2  UNL     1      26.729   5.230  49.059  1.00  0.00    -0.241 NA
HETATM   10  C9  UNL     1      25.534   5.781  49.130  1.00  0.00     0.071 A 
HETATM   11  C10 UNL     1      24.403   4.911  49.460  1.00  0.00     0.021 A 
HETATM   12  C11 UNL     1      23.062   5.242  49.665  1.00  0.00     0.027 C 
HETATM   13  C12 UNL     1      22.004   6.274  50.085  1.00  0.00     0.097 C 
HETATM   14  N3  UNL     1      22.640   7.008  51.199  1.00  0.00    -0.380 N 
HETATM   15  C19 UNL     1      23.525   7.895  50.487  1.00  0.00     0.096 C 
HETATM   16  C20 UNL     1      23.940   7.616  49.183  1.00  0.00    -0.016 C 
HETATM   17  C21 UNL     1      22.840   7.289  48.130  1.00  0.00     0.047 C 
HETATM   18  C22 UNL     1      21.789   7.334  48.985  1.00  0.00     0.076 C 
HETATM   19  C23 UNL     1      25.415   7.192  48.848  1.00  0.00     0.045 C 
HETATM   20  C24 UNL     1      23.651   2.113  51.325  1.00  0.00     0.111 A 
HETATM   21  H20 UNL     1      22.539   6.957  52.234  1.00  0.00     0.160 HD
ENDROOT
BRANCH  20  22
HETATM   22  O4  UNL     1      24.664   2.512  52.194  1.00  0.00    -0.357 OA
HETATM   23  H25 UNL     1      25.359   3.215  51.914  1.00  0.00     0.217 HD
ENDBRANCH  20  22
BRANCH   1  24
HETATM   24  O1  UNL     1      22.987   0.643  53.149  1.00  0.00    -0.353 OA
HETATM   25  C1  UNL     1      22.595  -0.668  53.411  1.00  0.00     0.210 C 
ENDBRANCH   1  24
BRANCH  13  26
HETATM   26  C13 UNL     1      20.797   5.540  50.449  1.00  0.00     0.043 C 
BRANCH  26  27
HETATM   27  C14 UNL     1      20.043   4.755  49.468  1.00  0.00     0.010 C 
BRANCH  27  28
HETATM   28  C15 UNL     1      19.067   3.744  49.947  1.00  0.00     0.011 C 
HETATM   29  C16 UNL     1      17.628   4.117  49.867  1.00  0.00     0.033 C 
HETATM   30  C17 UNL     1      17.148   4.297  51.280  1.00  0.00     0.168 C 
HETATM   31  O2  UNL     1      18.002   3.455  51.994  1.00  0.00    -0.391 OA
HETATM   32  C18 UNL     1      19.267   3.639  51.465  1.00  0.00     0.172 C 
ENDBRANCH  27  28
ENDBRANCH  26  27
ENDBRANCH  13  26
BRANCH  18  33
HETATM   33  O3  UNL     1      20.575   8.042  49.173  1.00  0.00    -0.362 OA
HETATM   34  H23 UNL     1      19.751   7.550  48.849  1.00  0.00     0.217 HD
ENDBRANCH  18  33
TORSDOF 6
ENDMDL
MODEL 9
REMARK VINA RESULT:      -7.5      2.881      6.122
REMARK  6 active torsions:
REMARK  status: ('A' for Active; 'I' for Inactive)
REMARK    1  A    between atoms: O1_2  and  C2_3 
REMARK    2  A    between atoms: C12_15  and  C13_16 
REMARK    3  A    between atoms: C13_16  and  C14_17 
REMARK    4  A    between atoms: C14_17  and  C15_18 
REMARK    5  A    between atoms: C22_27  and  O3_28 
REMARK    6  A    between atoms: C24_30  and  O4_31 
ROOT
HETATM    1  C2  UNL     1      27.148   5.020  48.956  1.00  0.00     0.102 A 
HETATM    2  C3  UNL     1      26.695   6.328  48.960  1.00  0.00     0.040 A 
HETATM    3  C4  UNL     1      25.536   6.700  49.597  1.00  0.00     0.004 A 
HETATM    4  C5  UNL     1      24.825   5.733  50.242  1.00  0.00     0.017 A 
HETATM    5  C6  UNL     1      25.202   4.389  50.292  1.00  0.00     0.030 A 
HETATM    6  C7  UNL     1      24.648   3.246  50.941  1.00  0.00     0.083 A 
HETATM    7  N1  UNL     1      25.329   2.687  51.949  1.00  0.00    -0.240 NA
HETATM    8  C8  UNL     1      24.925   1.607  52.631  1.00  0.00     0.234 A 
HETATM    9  N2  UNL     1      23.791   0.944  52.393  1.00  0.00    -0.241 NA
HETATM   10  C9  UNL     1      23.025   1.394  51.419  1.00  0.00     0.071 A 
HETATM   11  C10 UNL     1      23.483   2.574  50.683  1.00  0.00     0.021 A 
HETATM   12  C11 UNL     1      22.912   3.207  49.578  1.00  0.00     0.027 C 
HETATM   13  C12 UNL     1      22.041   3.129  48.315  1.00  0.00     0.097 C 
HETATM   14  N3  UNL     1      22.361   1.807  47.737  1.00  0.00    -0.380 N 
HETATM   15  C19 UNL     1      21.584   0.932  48.580  1.00  0.00     0.096 C 
HETATM   16  C20 UNL     1      21.167   1.330  49.852  1.00  0.00    -0.016 C 
HETATM   17  C21 UNL     1      20.426   2.694  49.976  1.00  0.00     0.047 C 
HETATM   18  C22 UNL     1      20.542   3.051  48.672  1.00  0.00     0.076 C 
HETATM   19  C23 UNL     1      21.777   0.714  51.162  1.00  0.00     0.045 C 
HETATM   20  C24 UNL     1      26.392   4.086  49.621  1.00  0.00     0.111 A 
HETATM   21  H20 UNL     1      22.970   1.503  46.949  1.00  0.00     0.160 HD
ENDROOT
BRANCH  20  22
HETATM   22  O4  UNL     1      26.943   2.809  49.553  1.00  0.00    -0.357 OA
HETATM   23  H25 UNL     1      27.874   2.609  49.940  1.00  0.00     0.217 HD
ENDBRANCH  20  22
BRANCH   1  24
HETATM   24  O1  UNL     1      28.324   4.735  48.288  1.00  0.00    -0.353 OA
HETATM   25  C1  UNL     1      29.322   5.705  48.213  1.00  0.00     0.210 C 
ENDBRANCH   1  24
BRANCH  13  26
HETATM   26  C13 UNL     1      22.393   4.264  47.470  1.00  0.00     0.043 C 
BRANCH  26  27
HETATM   27  C14 UNL     1      22.216   5.648  47.919  1.00  0.00     0.010 C 
BRANCH  27  28
HETATM   28  C15 UNL     1      22.223   6.741  46.914  1.00  0.00     0.011 C 
HETATM   29  C16 UNL     1      23.553   7.295  46.542  1.00  0.00     0.033 C 
HETATM   30  C17 UNL     1      23.615   8.689  47.099  1.00  0.00     0.168 C 
HETATM   31  O2  UNL     1      22.268   9.056  47.132  1.00  0.00    -0.391 OA
HETATM   32  C18 UNL     1      21.572   7.954  47.594  1.00  0.00     0.172 C 
ENDBRANCH  27  28
ENDBRANCH  26  27
ENDBRANCH  13  26
BRANCH  18  33
HETATM   33  O3  UNL     1      19.723   3.370  47.560  1.00  0.00    -0.362 OA
HETATM   34  H23 UNL     1      19.897   4.287  47.164  1.00  0.00     0.217 HD
ENDBRANCH  18  33
TORSDOF 6
ENDMDL
