MODEL 1
REMARK VINA RESULT:      -9.3      0.000      0.000
REMARK  0 active torsions:
REMARK  status: ('A' for Active; 'I' for Inactive)
ROOT
HETATM    1  C1  UNL     1      21.715  -1.772  54.591  1.00  0.00     0.049 C 
HETATM    2  C2  UNL     1      22.472  -0.779  53.745  1.00  0.00    -0.053 A 
HETATM    3  C3  UNL     1      21.785  -0.277  52.642  1.00  0.00     0.040 A 
HETATM    4  C4  UNL     1      22.471   0.627  51.874  1.00  0.00     0.073 A 
HETATM    5  N1  UNL     1      21.839   1.117  50.803  1.00  0.00    -0.241 NA
HETATM    6  C5  UNL     1      22.445   1.997  49.993  1.00  0.00     0.236 A 
HETATM    7  N2  UNL     1      23.707   2.382  50.279  1.00  0.00    -0.223 NA
HETATM    8  C6  UNL     1      24.324   1.884  51.355  1.00  0.00     0.144 A 
HETATM    9  C7  UNL     1      23.752   0.976  52.226  1.00  0.00     0.050 A 
HETATM   10  C8  UNL     1      24.379   0.446  53.329  1.00  0.00    -0.004 A 
HETATM   11  C9  UNL     1      23.780  -0.476  54.169  1.00  0.00    -0.044 A 
HETATM   12  C10 UNL     1      24.385  -1.136  55.319  1.00  0.00     0.049 C 
HETATM   13  C11 UNL     1      25.745   0.849  53.648  1.00  0.00    -0.016 A 
HETATM   14  C12 UNL     1      26.287   1.742  52.772  1.00  0.00     0.043 A 
HETATM   15  C13 UNL     1      27.656   2.316  52.850  1.00  0.00     0.030 C 
HETATM   16  C14 UNL     1      28.725   1.682  53.391  1.00  0.00     0.002 C 
HETATM   17  C15 UNL     1      28.828   0.338  54.017  1.00  0.00    -0.004 C 
HETATM   18  C16 UNL     1      27.765  -0.178  54.639  1.00  0.00    -0.022 C 
HETATM   19  C17 UNL     1      26.390   0.333  54.864  1.00  0.00     0.069 C 
HETATM   20  N3  UNL     1      25.658   2.307  51.614  1.00  0.00    -0.335 N 
HETATM   21  C18 UNL     1      26.341   3.239  50.779  1.00  0.00     0.158 C 
ENDROOT
TORSDOF 0
ENDMDL
MODEL 2
REMARK VINA RESULT:      -9.3      1.042      4.643
REMARK  0 active torsions:
REMARK  status: ('A' for Active; 'I' for Inactive)
ROOT
HETATM    1  C1  UNL     1      28.285   0.232  54.957  1.00  0.00     0.049 C 
HETATM    2  C2  UNL     1      27.244   0.678  53.960  1.00  0.00    -0.053 A 
HETATM    3  C3  UNL     1      27.680   1.580  52.993  1.00  0.00     0.040 A 
HETATM    4  C4  UNL     1      26.735   1.983  52.085  1.00  0.00     0.073 A 
HETATM    5  N1  UNL     1      27.124   2.857  51.153  1.00  0.00    -0.241 NA
HETATM    6  C5  UNL     1      26.258   3.310  50.235  1.00  0.00     0.236 A 
HETATM    7  N2  UNL     1      24.984   2.866  50.269  1.00  0.00    -0.223 NA
HETATM    8  C6  UNL     1      24.611   1.991  51.208  1.00  0.00     0.144 A 
HETATM    9  C7  UNL     1      25.458   1.488  52.178  1.00  0.00     0.050 A 
HETATM   10  C8  UNL     1      25.086   0.596  53.156  1.00  0.00    -0.004 A 
HETATM   11  C9  UNL     1      25.957   0.128  54.123  1.00  0.00    -0.044 A 
HETATM   12  C10 UNL     1      25.640  -0.765  55.231  1.00  0.00     0.049 C 
HETATM   13  C11 UNL     1      23.710   0.111  53.209  1.00  0.00    -0.016 A 
HETATM   14  C12 UNL     1      22.896   0.625  52.243  1.00  0.00     0.043 A 
HETATM   15  C13 UNL     1      21.454   0.311  52.064  1.00  0.00     0.030 C 
HETATM   16  C14 UNL     1      20.611  -0.033  53.069  1.00  0.00     0.002 C 
HETATM   17  C15 UNL     1      20.868  -0.187  54.525  1.00  0.00    -0.004 C 
HETATM   18  C16 UNL     1      22.080  -0.565  54.940  1.00  0.00    -0.022 C 
HETATM   19  C17 UNL     1      23.330  -0.893  54.213  1.00  0.00     0.069 C 
HETATM   20  N3  UNL     1      23.256   1.557  51.215  1.00  0.00    -0.335 N 
HETATM   21  C18 UNL     1      22.301   2.014  50.260  1.00  0.00     0.158 C 
ENDROOT
TORSDOF 0
ENDMDL
MODEL 3
REMARK VINA RESULT:      -9.2      2.059      4.213
REMARK  0 active torsions:
REMARK  status: ('A' for Active; 'I' for Inactive)
ROOT
HETATM    1  C1  UNL     1      19.393  -0.282  52.928  1.00  0.00     0.049 C 
HETATM    2  C2  UNL     1      20.876  -0.245  53.200  1.00  0.00    -0.053 A 
HETATM    3  C3  UNL     1      21.302  -0.940  54.329  1.00  0.00     0.040 A 
HETATM    4  C4  UNL     1      22.650  -0.908  54.575  1.00  0.00     0.073 A 
HETATM    5  N1  UNL     1      23.084  -1.558  55.659  1.00  0.00    -0.241 NA
HETATM    6  C5  UNL     1      24.386  -1.565  55.977  1.00  0.00     0.236 A 
HETATM    7  N2  UNL     1      25.254  -0.905  55.181  1.00  0.00    -0.223 NA
HETATM    8  C6  UNL     1      24.803  -0.262  54.099  1.00  0.00     0.144 A 
HETATM    9  C7  UNL     1      23.475  -0.219  53.721  1.00  0.00     0.050 A 
HETATM   10  C8  UNL     1      22.995   0.448  52.618  1.00  0.00    -0.004 A 
HETATM   11  C9  UNL     1      21.654   0.484  52.280  1.00  0.00    -0.044 A 
HETATM   12  C10 UNL     1      21.049   1.213  51.172  1.00  0.00     0.049 C 
HETATM   13  C11 UNL     1      23.921   1.171  51.751  1.00  0.00    -0.016 A 
HETATM   14  C12 UNL     1      25.223   1.115  52.148  1.00  0.00     0.043 A 
HETATM   15  C13 UNL     1      26.371   1.761  51.459  1.00  0.00     0.030 C 
HETATM   16  C14 UNL     1      26.288   2.902  50.732  1.00  0.00     0.002 C 
HETATM   17  C15 UNL     1      25.116   3.767  50.434  1.00  0.00    -0.004 C 
HETATM   18  C16 UNL     1      23.900   3.220  50.366  1.00  0.00    -0.022 C 
HETATM   19  C17 UNL     1      23.417   1.828  50.536  1.00  0.00     0.069 C 
HETATM   20  N3  UNL     1      25.749   0.431  53.293  1.00  0.00    -0.335 N 
HETATM   21  C18 UNL     1      27.143   0.451  53.594  1.00  0.00     0.158 C 
ENDROOT
TORSDOF 0
ENDMDL
MODEL 4
REMARK VINA RESULT:      -9.0      1.959      5.945
REMARK  0 active torsions:
REMARK  status: ('A' for Active; 'I' for Inactive)
ROOT
HETATM    1  C1  UNL     1      26.019   3.441  49.784  1.00  0.00     0.049 C 
HETATM    2  C2  UNL     1      25.683   2.474  50.892  1.00  0.00    -0.053 A 
HETATM    3  C3  UNL     1      26.772   1.882  51.528  1.00  0.00     0.040 A 
HETATM    4  C4  UNL     1      26.467   1.004  52.536  1.00  0.00     0.073 A 
HETATM    5  N1  UNL     1      27.493   0.413  53.156  1.00  0.00    -0.241 NA
HETATM    6  C5  UNL     1      27.280  -0.467  54.145  1.00  0.00     0.236 A 
HETATM    7  N2  UNL     1      26.009  -0.746  54.505  1.00  0.00    -0.223 NA
HETATM    8  C6  UNL     1      24.995  -0.145  53.875  1.00  0.00     0.144 A 
HETATM    9  C7  UNL     1      25.152   0.770  52.851  1.00  0.00     0.050 A 
HETATM   10  C8  UNL     1      24.118   1.387  52.187  1.00  0.00    -0.004 A 
HETATM   11  C9  UNL     1      24.312   2.285  51.153  1.00  0.00    -0.044 A 
HETATM   12  C10 UNL     1      23.283   2.937  50.353  1.00  0.00     0.049 C 
HETATM   13  C11 UNL     1      22.738   1.091  52.561  1.00  0.00    -0.016 A 
HETATM   14  C12 UNL     1      22.612   0.184  53.571  1.00  0.00     0.043 A 
HETATM   15  C13 UNL     1      21.331  -0.304  54.147  1.00  0.00     0.030 C 
HETATM   16  C14 UNL     1      20.165  -0.397  53.461  1.00  0.00     0.002 C 
HETATM   17  C15 UNL     1      19.856  -0.062  52.046  1.00  0.00    -0.004 C 
HETATM   18  C16 UNL     1      20.543   0.909  51.438  1.00  0.00    -0.022 C 
HETATM   19  C17 UNL     1      21.636   1.801  51.896  1.00  0.00     0.069 C 
HETATM   20  N3  UNL     1      23.671  -0.476  54.277  1.00  0.00    -0.335 N 
HETATM   21  C18 UNL     1      23.398  -1.407  55.322  1.00  0.00     0.158 C 
ENDROOT
TORSDOF 0
ENDMDL
MODEL 5
REMARK VINA RESULT:      -8.7      2.014      5.053
REMARK  0 active torsions:
REMARK  status: ('A' for Active; 'I' for Inactive)
ROOT
HETATM    1  C1  UNL     1      27.363  -0.628  53.137  1.00  0.00     0.049 C 
HETATM    2  C2  UNL     1      25.924  -0.176  53.135  1.00  0.00    -0.053 A 
HETATM    3  C3  UNL     1      25.065  -0.890  53.967  1.00  0.00     0.040 A 
HETATM    4  C4  UNL     1      23.757  -0.478  53.967  1.00  0.00     0.073 A 
HETATM    5  N1  UNL     1      22.909  -1.154  54.748  1.00  0.00    -0.241 NA
HETATM    6  C5  UNL     1      21.611  -0.822  54.796  1.00  0.00     0.236 A 
HETATM    7  N2  UNL     1      21.174   0.208  54.041  1.00  0.00    -0.223 NA
HETATM    8  C6  UNL     1      22.036   0.873  53.266  1.00  0.00     0.144 A 
HETATM    9  C7  UNL     1      23.384   0.579  53.175  1.00  0.00     0.050 A 
HETATM   10  C8  UNL     1      24.280   1.247  52.374  1.00  0.00    -0.004 A 
HETATM   11  C9  UNL     1      25.620   0.913  52.295  1.00  0.00    -0.044 A 
HETATM   12  C10 UNL     1      26.625   1.519  51.432  1.00  0.00     0.049 C 
HETATM   13  C11 UNL     1      23.821   2.360  51.547  1.00  0.00    -0.016 A 
HETATM   14  C12 UNL     1      22.489   2.627  51.653  1.00  0.00     0.043 A 
HETATM   15  C13 UNL     1      21.755   3.696  50.925  1.00  0.00     0.030 C 
HETATM   16  C14 UNL     1      22.099   4.167  49.701  1.00  0.00     0.002 C 
HETATM   17  C15 UNL     1      23.221   3.783  48.806  1.00  0.00    -0.004 C 
HETATM   18  C16 UNL     1      24.361   3.335  49.339  1.00  0.00    -0.022 C 
HETATM   19  C17 UNL     1      24.792   3.116  50.742  1.00  0.00     0.069 C 
HETATM   20  N3  UNL     1      21.533   1.945  52.477  1.00  0.00    -0.335 N 
HETATM   21  C18 UNL     1      20.161   2.331  52.495  1.00  0.00     0.158 C 
ENDROOT
TORSDOF 0
ENDMDL
MODEL 6
REMARK VINA RESULT:      -8.5      1.413      2.091
REMARK  0 active torsions:
REMARK  status: ('A' for Active; 'I' for Inactive)
ROOT
HETATM    1  C1  UNL     1      19.777  -0.138  52.426  1.00  0.00     0.049 C 
HETATM    2  C2  UNL     1      20.959   0.630  51.889  1.00  0.00    -0.053 A 
HETATM    3  C3  UNL     1      20.681   1.522  50.856  1.00  0.00     0.040 A 
HETATM    4  C4  UNL     1      21.755   2.223  50.370  1.00  0.00     0.073 A 
HETATM    5  N1  UNL     1      21.518   3.078  49.370  1.00  0.00    -0.241 NA
HETATM    6  C5  UNL     1      22.516   3.792  48.830  1.00  0.00     0.236 A 
HETATM    7  N2  UNL     1      23.766   3.634  49.315  1.00  0.00    -0.223 NA
HETATM    8  C6  UNL     1      23.984   2.776  50.316  1.00  0.00     0.144 A 
HETATM    9  C7  UNL     1      22.998   2.013  50.912  1.00  0.00     0.050 A 
HETATM   10  C8  UNL     1      23.210   1.118  51.935  1.00  0.00    -0.004 A 
HETATM   11  C9  UNL     1      22.200   0.358  52.496  1.00  0.00    -0.044 A 
HETATM   12  C10 UNL     1      22.339  -0.656  53.534  1.00  0.00     0.049 C 
HETATM   13  C11 UNL     1      24.557   0.932  52.466  1.00  0.00    -0.016 A 
HETATM   14  C12 UNL     1      25.511   1.694  51.858  1.00  0.00     0.043 A 
HETATM   15  C13 UNL     1      26.960   1.703  52.192  1.00  0.00     0.030 C 
HETATM   16  C14 UNL     1      27.641   0.641  52.690  1.00  0.00     0.002 C 
HETATM   17  C15 UNL     1      27.171  -0.729  53.022  1.00  0.00    -0.004 C 
HETATM   18  C16 UNL     1      25.906  -0.912  53.412  1.00  0.00    -0.022 C 
HETATM   19  C17 UNL     1      24.772   0.026  53.603  1.00  0.00     0.069 C 
HETATM   20  N3  UNL     1      25.318   2.631  50.790  1.00  0.00    -0.335 N 
HETATM   21  C18 UNL     1      26.410   3.369  50.245  1.00  0.00     0.158 C 
ENDROOT
TORSDOF 0
ENDMDL
MODEL 7
REMARK VINA RESULT:      -8.5      1.519      3.823
REMARK  0 active torsions:
REMARK  status: ('A' for Active; 'I' for Inactive)
ROOT
HETATM    1  C1  UNL     1      23.118   3.360  49.256  1.00  0.00     0.049 C 
HETATM    2  C2  UNL     1      23.271   2.434  50.438  1.00  0.00    -0.053 A 
HETATM    3  C3  UNL     1      22.092   1.872  50.921  1.00  0.00     0.040 A 
HETATM    4  C4  UNL     1      22.231   1.028  51.993  1.00  0.00     0.073 A 
HETATM    5  N1  UNL     1      21.114   0.483  52.484  1.00  0.00    -0.241 NA
HETATM    6  C5  UNL     1      21.162  -0.343  53.539  1.00  0.00     0.236 A 
HETATM    7  N2  UNL     1      22.360  -0.618  54.096  1.00  0.00    -0.223 NA
HETATM    8  C6  UNL     1      23.468  -0.065  53.592  1.00  0.00     0.144 A 
HETATM    9  C7  UNL     1      23.482   0.792  52.508  1.00  0.00     0.050 A 
HETATM   10  C8  UNL     1      24.612   1.377  51.985  1.00  0.00    -0.004 A 
HETATM   11  C9  UNL     1      24.585   2.245  50.909  1.00  0.00    -0.044 A 
HETATM   12  C10 UNL     1      25.716   2.957  50.329  1.00  0.00     0.049 C 
HETATM   13  C11 UNL     1      25.914   1.094  52.581  1.00  0.00    -0.016 A 
HETATM   14  C12 UNL     1      25.872   0.249  53.649  1.00  0.00     0.043 A 
HETATM   15  C13 UNL     1      27.042  -0.205  54.446  1.00  0.00     0.030 C 
HETATM   16  C14 UNL     1      28.172   0.520  54.633  1.00  0.00     0.002 C 
HETATM   17  C15 UNL     1      28.540   1.870  54.131  1.00  0.00    -0.004 C 
HETATM   18  C16 UNL     1      28.042   2.293  52.966  1.00  0.00    -0.022 C 
HETATM   19  C17 UNL     1      27.128   1.666  51.980  1.00  0.00     0.069 C 
HETATM   20  N3  UNL     1      24.710  -0.371  54.216  1.00  0.00    -0.335 N 
HETATM   21  C18 UNL     1      24.807  -1.243  55.340  1.00  0.00     0.158 C 
ENDROOT
TORSDOF 0
ENDMDL
MODEL 8
REMARK VINA RESULT:      -8.4      1.827      4.532
REMARK  0 active torsions:
REMARK  status: ('A' for Active; 'I' for Inactive)
ROOT
HETATM    1  C1  UNL     1      19.621   0.449  51.094  1.00  0.00     0.049 C 
HETATM    2  C2  UNL     1      21.078   0.626  51.443  1.00  0.00    -0.053 A 
HETATM    3  C3  UNL     1      21.532  -0.111  52.534  1.00  0.00     0.040 A 
HETATM    4  C4  UNL     1      22.857   0.048  52.850  1.00  0.00     0.073 A 
HETATM    5  N1  UNL     1      23.316  -0.639  53.901  1.00  0.00    -0.241 NA
HETATM    6  C5  UNL     1      24.597  -0.531  54.283  1.00  0.00     0.236 A 
HETATM    7  N2  UNL     1      25.416   0.285  53.586  1.00  0.00    -0.223 NA
HETATM    8  C6  UNL     1      24.941   0.965  52.538  1.00  0.00     0.144 A 
HETATM    9  C7  UNL     1      23.633   0.893  52.097  1.00  0.00     0.050 A 
HETATM   10  C8  UNL     1      23.127   1.595  51.027  1.00  0.00    -0.004 A 
HETATM   11  C9  UNL     1      21.806   1.512  50.625  1.00  0.00    -0.044 A 
HETATM   12  C10 UNL     1      21.169   2.260  49.549  1.00  0.00     0.049 C 
HETATM   13  C11 UNL     1      24.000   2.485  50.268  1.00  0.00    -0.016 A 
HETATM   14  C12 UNL     1      25.283   2.540  50.726  1.00  0.00     0.043 A 
HETATM   15  C13 UNL     1      26.377   3.364  50.150  1.00  0.00     0.030 C 
HETATM   16  C14 UNL     1      26.196   4.546  49.512  1.00  0.00     0.002 C 
HETATM   17  C15 UNL     1      24.946   5.299  49.225  1.00  0.00    -0.004 C 
HETATM   18  C16 UNL     1      23.804   4.629  49.052  1.00  0.00    -0.022 C 
HETATM   19  C17 UNL     1      23.476   3.183  49.085  1.00  0.00     0.069 C 
HETATM   20  N3  UNL     1      25.834   1.823  51.839  1.00  0.00    -0.335 N 
HETATM   21  C18 UNL     1      27.203   1.971  52.211  1.00  0.00     0.158 C 
ENDROOT
TORSDOF 0
ENDMDL
MODEL 9
REMARK VINA RESULT:      -8.2      1.934      5.206
REMARK  0 active torsions:
REMARK  status: ('A' for Active; 'I' for Inactive)
ROOT
HETATM    1  C1  UNL     1      21.245   4.792  50.275  1.00  0.00     0.049 C 
HETATM    2  C2  UNL     1      22.206   3.789  50.865  1.00  0.00    -0.053 A 
HETATM    3  C3  UNL     1      23.530   3.905  50.451  1.00  0.00     0.040 A 
HETATM    4  C4  UNL     1      24.404   2.996  50.989  1.00  0.00     0.073 A 
HETATM    5  N1  UNL     1      25.680   3.078  50.601  1.00  0.00    -0.241 NA
HETATM    6  C5  UNL     1      26.595   2.219  51.071  1.00  0.00     0.236 A 
HETATM    7  N2  UNL     1      26.205   1.267  51.946  1.00  0.00    -0.223 NA
HETATM    8  C6  UNL     1      24.925   1.200  52.324  1.00  0.00     0.144 A 
HETATM    9  C7  UNL     1      23.938   2.057  51.875  1.00  0.00     0.050 A 
HETATM   10  C8  UNL     1      22.616   1.993  52.248  1.00  0.00    -0.004 A 
HETATM   11  C9  UNL     1      21.651   2.857  51.763  1.00  0.00    -0.044 A 
HETATM   12  C10 UNL     1      20.223   2.827  52.050  1.00  0.00     0.049 C 
HETATM   13  C11 UNL     1      22.178   0.966  53.189  1.00  0.00    -0.016 A 
HETATM   14  C12 UNL     1      23.170   0.133  53.613  1.00  0.00     0.043 A 
HETATM   15  C13 UNL     1      23.008  -0.999  54.563  1.00  0.00     0.030 C 
HETATM   16  C14 UNL     1      21.872  -1.724  54.708  1.00  0.00     0.002 C 
HETATM   17  C15 UNL     1      20.562  -1.604  54.016  1.00  0.00    -0.004 C 
HETATM   18  C16 UNL     1      20.159  -0.407  53.580  1.00  0.00    -0.022 C 
HETATM   19  C17 UNL     1      20.778   0.940  53.637  1.00  0.00     0.069 C 
HETATM   20  N3  UNL     1      24.553   0.175  53.239  1.00  0.00    -0.335 N 
HETATM   21  C18 UNL     1      25.493  -0.761  53.763  1.00  0.00     0.158 C 
ENDROOT
TORSDOF 0
ENDMDL
