MODEL 1
REMARK VINA RESULT:      -9.5      0.000      0.000
REMARK  4 active torsions:
REMARK  status: ('A' for Active; 'I' for Inactive)
REMARK    1  A    between atoms: O1_2  and  C2_3 
REMARK    2  A    between atoms: C6_7  and  C7_8 
REMARK    3  A    between atoms: C9_10  and  C10_11 
REMARK    4  A    between atoms: N3_22  and  C17_23 
ROOT
HETATM    1  C7  UNL     1      25.321   1.301  53.454  1.00  0.00     0.149 C 
HETATM    2  C8  UNL     1      25.468   2.753  53.104  1.00  0.00     0.095 C 
HETATM    3  C9  UNL     1      25.691   2.674  51.636  1.00  0.00     0.082 C 
HETATM    4  N2  UNL     1      26.177   1.492  51.348  1.00  0.00    -0.174 NA
HETATM    5  N3  UNL     1      26.313   0.724  52.530  1.00  0.00    -0.260 N 
ENDROOT
BRANCH   3   6
HETATM    6  C10 UNL     1      25.414   3.745  50.670  1.00  0.00     0.062 C 
HETATM    7  N1  UNL     1      24.378   4.497  50.826  1.00  0.00    -0.253 NA
HETATM    8  C11 UNL     1      23.991   5.573  49.964  1.00  0.00     0.301 C 
HETATM    9  O2  UNL     1      23.310   6.582  50.596  1.00  0.00    -0.357 OA
HETATM   10  C14 UNL     1      25.162   6.138  49.215  1.00  0.00     0.093 C 
HETATM   11  C12 UNL     1      24.025   7.759  50.724  1.00  0.00     0.197 C 
HETATM   12  C13 UNL     1      24.332   8.375  49.355  1.00  0.00     0.201 C 
HETATM   13  O3  UNL     1      25.176   7.433  48.714  1.00  0.00    -0.349 OA
HETATM   14  C15 UNL     1      26.208   5.346  49.044  1.00  0.00     0.016 C 
HETATM   15  C16 UNL     1      26.336   3.945  49.522  1.00  0.00     0.090 C 
ENDBRANCH   3   6
BRANCH   1  16
HETATM   16  C6  UNL     1      23.985   0.754  53.261  1.00  0.00    -0.030 A 
HETATM   17  C5  UNL     1      23.731  -0.597  53.415  1.00  0.00     0.009 A 
HETATM   18  C4  UNL     1      22.489  -1.172  53.247  1.00  0.00     0.003 A 
HETATM   19  C3  UNL     1      21.407  -0.392  52.905  1.00  0.00     0.037 A 
HETATM   20  C2  UNL     1      21.599   0.958  52.738  1.00  0.00     0.068 A 
HETATM   21  C23 UNL     1      22.868   1.474  52.920  1.00  0.00     0.046 A 
BRANCH  20  22
HETATM   22  O1  UNL     1      20.520   1.776  52.389  1.00  0.00    -0.356 OA
HETATM   23  C1  UNL     1      20.776   3.169  52.317  1.00  0.00     0.210 C 
ENDBRANCH  20  22
ENDBRANCH   1  16
BRANCH   5  24
HETATM   24  C17 UNL     1      27.206  -0.358  52.768  1.00  0.00     0.053 A 
HETATM   25  C18 UNL     1      26.939  -1.682  52.489  1.00  0.00     0.031 A 
HETATM   26  C19 UNL     1      27.814  -2.701  52.728  1.00  0.00     0.002 A 
HETATM   27  C20 UNL     1      29.060  -2.431  53.287  1.00  0.00     0.000 A 
HETATM   28  C21 UNL     1      29.306  -1.107  53.557  1.00  0.00     0.002 A 
HETATM   29  C22 UNL     1      28.430  -0.064  53.321  1.00  0.00     0.031 A 
ENDBRANCH   5  24
TORSDOF 4
ENDMDL
MODEL 2
REMARK VINA RESULT:      -9.2      3.390      6.995
REMARK  4 active torsions:
REMARK  status: ('A' for Active; 'I' for Inactive)
REMARK    1  A    between atoms: O1_2  and  C2_3 
REMARK    2  A    between atoms: C6_7  and  C7_8 
REMARK    3  A    between atoms: C9_10  and  C10_11 
REMARK    4  A    between atoms: N3_22  and  C17_23 
ROOT
HETATM    1  C7  UNL     1      21.494   1.919  51.946  1.00  0.00     0.149 C 
HETATM    2  C8  UNL     1      22.625   2.068  52.920  1.00  0.00     0.095 C 
HETATM    3  C9  UNL     1      23.230   0.710  52.869  1.00  0.00     0.082 C 
HETATM    4  N2  UNL     1      22.315  -0.142  52.476  1.00  0.00    -0.174 NA
HETATM    5  N3  UNL     1      21.092   0.533  52.245  1.00  0.00    -0.260 N 
ENDROOT
BRANCH   3   6
HETATM    6  C10 UNL     1      24.621   0.380  53.203  1.00  0.00     0.062 C 
HETATM    7  N1  UNL     1      25.586   0.920  52.540  1.00  0.00    -0.253 NA
HETATM    8  C11 UNL     1      26.982   0.688  52.761  1.00  0.00     0.301 C 
HETATM    9  O2  UNL     1      27.786   1.752  52.439  1.00  0.00    -0.357 OA
HETATM   10  C14 UNL     1      27.259   0.245  54.167  1.00  0.00     0.093 C 
HETATM   11  C12 UNL     1      28.348   2.391  53.528  1.00  0.00     0.197 C 
HETATM   12  C13 UNL     1      29.312   1.465  54.279  1.00  0.00     0.201 C 
HETATM   13  O3  UNL     1      28.495   0.417  54.776  1.00  0.00    -0.349 OA
HETATM   14  C15 UNL     1      26.266  -0.326  54.827  1.00  0.00     0.016 C 
HETATM   15  C16 UNL     1      24.895  -0.576  54.308  1.00  0.00     0.090 C 
ENDBRANCH   3   6
BRANCH   1  16
HETATM   16  C6  UNL     1      21.855   2.111  50.548  1.00  0.00    -0.030 A 
HETATM   17  C5  UNL     1      21.493   1.194  49.577  1.00  0.00     0.009 A 
HETATM   18  C4  UNL     1      21.805   1.323  48.241  1.00  0.00     0.003 A 
HETATM   19  C3  UNL     1      22.519   2.416  47.800  1.00  0.00     0.037 A 
HETATM   20  C2  UNL     1      22.905   3.360  48.719  1.00  0.00     0.068 A 
HETATM   21  C23 UNL     1      22.562   3.174  50.044  1.00  0.00     0.046 A 
BRANCH  20  22
HETATM   22  O1  UNL     1      23.632   4.480  48.301  1.00  0.00    -0.356 OA
HETATM   23  C1  UNL     1      22.900   5.684  48.133  1.00  0.00     0.210 C 
ENDBRANCH  20  22
ENDBRANCH   1  16
BRANCH   5  24
HETATM   24  C17 UNL     1      19.776  -0.006  52.293  1.00  0.00     0.053 A 
HETATM   25  C18 UNL     1      18.794   0.217  51.352  1.00  0.00     0.031 A 
HETATM   26  C19 UNL     1      17.539  -0.312  51.422  1.00  0.00     0.002 A 
HETATM   27  C20 UNL     1      17.188  -1.131  52.492  1.00  0.00     0.000 A 
HETATM   28  C21 UNL     1      18.181  -1.341  53.418  1.00  0.00     0.002 A 
HETATM   29  C22 UNL     1      19.456  -0.812  53.360  1.00  0.00     0.031 A 
ENDBRANCH   5  24
TORSDOF 4
ENDMDL
MODEL 3
REMARK VINA RESULT:      -8.8      1.887      2.336
REMARK  4 active torsions:
REMARK  status: ('A' for Active; 'I' for Inactive)
REMARK    1  A    between atoms: O1_2  and  C2_3 
REMARK    2  A    between atoms: C6_7  and  C7_8 
REMARK    3  A    between atoms: C9_10  and  C10_11 
REMARK    4  A    between atoms: N3_22  and  C17_23 
ROOT
HETATM    1  C7  UNL     1      24.779   2.047  53.199  1.00  0.00     0.149 C 
HETATM    2  C8  UNL     1      24.567   3.361  52.508  1.00  0.00     0.095 C 
HETATM    3  C9  UNL     1      24.849   2.992  51.094  1.00  0.00     0.082 C 
HETATM    4  N2  UNL     1      25.626   1.937  51.084  1.00  0.00    -0.174 NA
HETATM    5  N3  UNL     1      25.913   1.534  52.411  1.00  0.00    -0.260 N 
ENDROOT
BRANCH   3   6
HETATM    6  C10 UNL     1      24.341   3.694  49.910  1.00  0.00     0.062 C 
HETATM    7  N1  UNL     1      23.236   3.315  49.363  1.00  0.00    -0.253 NA
HETATM    8  C11 UNL     1      22.630   3.908  48.209  1.00  0.00     0.301 C 
HETATM    9  O2  UNL     1      21.262   3.811  48.182  1.00  0.00    -0.357 OA
HETATM   10  C14 UNL     1      23.044   5.340  48.035  1.00  0.00     0.093 C 
HETATM   11  C12 UNL     1      20.601   5.008  48.384  1.00  0.00     0.197 C 
HETATM   12  C13 UNL     1      20.884   5.999  47.249  1.00  0.00     0.201 C 
HETATM   13  O3  UNL     1      22.275   6.261  47.335  1.00  0.00    -0.349 OA
HETATM   14  C15 UNL     1      24.189   5.708  48.583  1.00  0.00     0.016 C 
HETATM   15  C16 UNL     1      25.113   4.839  49.356  1.00  0.00     0.090 C 
ENDBRANCH   3   6
BRANCH   1  16
HETATM   16  C6  UNL     1      23.632   1.150  53.184  1.00  0.00    -0.030 A 
HETATM   17  C5  UNL     1      23.733  -0.158  53.623  1.00  0.00     0.009 A 
HETATM   18  C4  UNL     1      22.683  -1.051  53.633  1.00  0.00     0.003 A 
HETATM   19  C3  UNL     1      21.439  -0.661  53.189  1.00  0.00     0.037 A 
HETATM   20  C2  UNL     1      21.278   0.627  52.740  1.00  0.00     0.068 A 
HETATM   21  C23 UNL     1      22.369   1.475  52.755  1.00  0.00     0.046 A 
BRANCH  20  22
HETATM   22  O1  UNL     1      20.027   1.052  52.283  1.00  0.00    -0.356 OA
HETATM   23  C1  UNL     1      19.124   0.039  51.871  1.00  0.00     0.210 C 
ENDBRANCH  20  22
ENDBRANCH   1  16
BRANCH   5  24
HETATM   24  C17 UNL     1      27.042   0.803  52.874  1.00  0.00     0.053 A 
HETATM   25  C18 UNL     1      28.118   1.347  53.544  1.00  0.00     0.031 A 
HETATM   26  C19 UNL     1      29.189   0.622  53.978  1.00  0.00     0.002 A 
HETATM   27  C20 UNL     1      29.238  -0.751  53.750  1.00  0.00     0.000 A 
HETATM   28  C21 UNL     1      28.157  -1.272  53.082  1.00  0.00     0.002 A 
HETATM   29  C22 UNL     1      27.066  -0.552  52.637  1.00  0.00     0.031 A 
ENDBRANCH   5  24
TORSDOF 4
ENDMDL
MODEL 4
REMARK VINA RESULT:      -8.7      2.463      3.040
REMARK  4 active torsions:
REMARK  status: ('A' for Active; 'I' for Inactive)
REMARK    1  A    between atoms: O1_2  and  C2_3 
REMARK    2  A    between atoms: C6_7  and  C7_8 
REMARK    3  A    between atoms: C9_10  and  C10_11 
REMARK    4  A    between atoms: N3_22  and  C17_23 
ROOT
HETATM    1  C7  UNL     1      23.601   1.591  53.366  1.00  0.00     0.149 C 
HETATM    2  C8  UNL     1      23.157   2.772  52.555  1.00  0.00     0.095 C 
HETATM    3  C9  UNL     1      23.388   2.276  51.172  1.00  0.00     0.082 C 
HETATM    4  N2  UNL     1      24.303   1.338  51.211  1.00  0.00    -0.174 NA
HETATM    5  N3  UNL     1      24.737   1.141  52.544  1.00  0.00    -0.260 N 
ENDROOT
BRANCH   3   6
HETATM    6  C10 UNL     1      22.704   2.756  49.966  1.00  0.00     0.062 C 
HETATM    7  N1  UNL     1      22.442   4.012  49.833  1.00  0.00    -0.253 NA
HETATM    8  C11 UNL     1      21.783   4.613  48.712  1.00  0.00     0.301 C 
HETATM    9  O2  UNL     1      22.158   5.910  48.470  1.00  0.00    -0.357 OA
HETATM   10  C14 UNL     1      21.943   3.793  47.465  1.00  0.00     0.093 C 
HETATM   11  C12 UNL     1      22.920   6.079  47.329  1.00  0.00     0.197 C 
HETATM   12  C13 UNL     1      22.121   5.725  46.069  1.00  0.00     0.201 C 
HETATM   13  O3  UNL     1      21.843   4.340  46.192  1.00  0.00    -0.349 OA
HETATM   14  C15 UNL     1      22.188   2.503  47.618  1.00  0.00     0.016 C 
HETATM   15  C16 UNL     1      22.321   1.781  48.910  1.00  0.00     0.090 C 
ENDBRANCH   3   6
BRANCH   1  16
HETATM   16  C6  UNL     1      22.593   0.555  53.549  1.00  0.00    -0.030 A 
HETATM   17  C5  UNL     1      22.871  -0.605  54.249  1.00  0.00     0.009 A 
HETATM   18  C4  UNL     1      21.959  -1.619  54.455  1.00  0.00     0.003 A 
HETATM   19  C3  UNL     1      20.681  -1.511  53.952  1.00  0.00     0.037 A 
HETATM   20  C2  UNL     1      20.348  -0.380  53.248  1.00  0.00     0.068 A 
HETATM   21  C23 UNL     1      21.306   0.600  53.075  1.00  0.00     0.046 A 
BRANCH  20  22
HETATM   22  O1  UNL     1      19.058  -0.243  52.724  1.00  0.00    -0.356 OA
HETATM   23  C1  UNL     1      18.072  -1.132  53.224  1.00  0.00     0.210 C 
ENDBRANCH  20  22
ENDBRANCH   1  16
BRANCH   5  24
HETATM   24  C17 UNL     1      25.988   0.626  52.986  1.00  0.00     0.053 A 
HETATM   25  C18 UNL     1      26.821   1.241  53.896  1.00  0.00     0.031 A 
HETATM   26  C19 UNL     1      28.017   0.726  54.303  1.00  0.00     0.002 A 
HETATM   27  C20 UNL     1      28.459  -0.492  53.792  1.00  0.00     0.000 A 
HETATM   28  C21 UNL     1      27.614  -1.088  52.888  1.00  0.00     0.002 A 
HETATM   29  C22 UNL     1      26.401  -0.579  52.466  1.00  0.00     0.031 A 
ENDBRANCH   5  24
TORSDOF 4
ENDMDL
MODEL 5
REMARK VINA RESULT:      -8.7      3.380      7.196
REMARK  4 active torsions:
REMARK  status: ('A' for Active; 'I' for Inactive)
REMARK    1  A    between atoms: O1_2  and  C2_3 
REMARK    2  A    between atoms: C6_7  and  C7_8 
REMARK    3  A    between atoms: C9_10  and  C10_11 
REMARK    4  A    between atoms: N3_22  and  C17_23 
ROOT
HETATM    1  C7  UNL     1      21.105   2.278  51.657  1.00  0.00     0.149 C 
HETATM    2  C8  UNL     1      22.142   2.649  52.676  1.00  0.00     0.095 C 
HETATM    3  C9  UNL     1      22.880   1.365  52.816  1.00  0.00     0.082 C 
HETATM    4  N2  UNL     1      22.085   0.384  52.466  1.00  0.00    -0.174 NA
HETATM    5  N3  UNL     1      20.821   0.897  52.085  1.00  0.00    -0.260 N 
ENDROOT
BRANCH   3   6
HETATM    6  C10 UNL     1      24.268   1.222  53.270  1.00  0.00     0.062 C 
HETATM    7  N1  UNL     1      24.711   0.066  53.630  1.00  0.00    -0.253 NA
HETATM    8  C11 UNL     1      26.038  -0.213  54.092  1.00  0.00     0.301 C 
HETATM    9  O2  UNL     1      26.472  -1.485  53.814  1.00  0.00    -0.357 OA
HETATM   10  C14 UNL     1      27.029   0.789  53.579  1.00  0.00     0.093 C 
HETATM   11  C12 UNL     1      27.457  -1.552  52.846  1.00  0.00     0.197 C 
HETATM   12  C13 UNL     1      28.742  -0.857  53.311  1.00  0.00     0.201 C 
HETATM   13  O3  UNL     1      28.384   0.507  53.459  1.00  0.00    -0.349 OA
HETATM   14  C15 UNL     1      26.564   1.978  53.235  1.00  0.00     0.016 C 
HETATM   15  C16 UNL     1      25.147   2.421  53.309  1.00  0.00     0.090 C 
ENDBRANCH   3   6
BRANCH   1  16
HETATM   16  C6  UNL     1      21.546   2.358  50.271  1.00  0.00    -0.030 A 
HETATM   17  C5  UNL     1      21.453   1.270  49.421  1.00  0.00     0.009 A 
HETATM   18  C4  UNL     1      21.853   1.286  48.102  1.00  0.00     0.003 A 
HETATM   19  C3  UNL     1      22.382   2.435  47.554  1.00  0.00     0.037 A 
HETATM   20  C2  UNL     1      22.498   3.547  48.351  1.00  0.00     0.068 A 
HETATM   21  C23 UNL     1      22.080   3.467  49.665  1.00  0.00     0.046 A 
BRANCH  20  22
HETATM   22  O1  UNL     1      23.032   4.727  47.823  1.00  0.00    -0.356 OA
HETATM   23  C1  UNL     1      23.448   5.709  48.758  1.00  0.00     0.210 C 
ENDBRANCH  20  22
ENDBRANCH   1  16
BRANCH   5  24
HETATM   24  C17 UNL     1      19.565   0.229  52.113  1.00  0.00     0.053 A 
HETATM   25  C18 UNL     1      18.584   0.346  51.151  1.00  0.00     0.031 A 
HETATM   26  C19 UNL     1      17.387  -0.306  51.202  1.00  0.00     0.002 A 
HETATM   27  C20 UNL     1      17.099  -1.148  52.273  1.00  0.00     0.000 A 
HETATM   28  C21 UNL     1      18.089  -1.251  53.220  1.00  0.00     0.002 A 
HETATM   29  C22 UNL     1      19.306  -0.597  53.182  1.00  0.00     0.031 A 
ENDBRANCH   5  24
TORSDOF 4
ENDMDL
MODEL 6
REMARK VINA RESULT:      -8.6      3.131      4.733
REMARK  4 active torsions:
REMARK  status: ('A' for Active; 'I' for Inactive)
REMARK    1  A    between atoms: O1_2  and  C2_3 
REMARK    2  A    between atoms: C6_7  and  C7_8 
REMARK    3  A    between atoms: C9_10  and  C10_11 
REMARK    4  A    between atoms: N3_22  and  C17_23 
ROOT
HETATM    1  C7  UNL     1      24.029   3.913  50.538  1.00  0.00     0.149 C 
HETATM    2  C8  UNL     1      24.807   5.195  50.497  1.00  0.00     0.095 C 
HETATM    3  C9  UNL     1      26.057   4.752  49.824  1.00  0.00     0.082 C 
HETATM    4  N2  UNL     1      26.204   3.464  50.017  1.00  0.00    -0.174 NA
HETATM    5  N3  UNL     1      25.128   2.966  50.791  1.00  0.00    -0.260 N 
ENDROOT
BRANCH   3   6
HETATM    6  C10 UNL     1      26.973   5.615  49.068  1.00  0.00     0.062 C 
HETATM    7  N1  UNL     1      26.747   6.882  48.994  1.00  0.00    -0.253 NA
HETATM    8  C11 UNL     1      27.556   7.835  48.294  1.00  0.00     0.301 C 
HETATM    9  O2  UNL     1      27.532   9.096  48.833  1.00  0.00    -0.357 OA
HETATM   10  C14 UNL     1      28.974   7.366  48.153  1.00  0.00     0.093 C 
HETATM   11  C12 UNL     1      28.710   9.473  49.452  1.00  0.00     0.197 C 
HETATM   12  C13 UNL     1      29.862   9.566  48.445  1.00  0.00     0.201 C 
HETATM   13  O3  UNL     1      30.037   8.241  47.971  1.00  0.00    -0.349 OA
HETATM   14  C15 UNL     1      29.187   6.062  48.209  1.00  0.00     0.016 C 
HETATM   15  C16 UNL     1      28.155   5.010  48.398  1.00  0.00     0.090 C 
ENDBRANCH   3   6
BRANCH   1  16
HETATM   16  C6  UNL     1      23.288   3.603  49.323  1.00  0.00    -0.030 A 
HETATM   17  C5  UNL     1      22.831   2.323  49.064  1.00  0.00     0.009 A 
HETATM   18  C4  UNL     1      22.125   1.971  47.934  1.00  0.00     0.003 A 
HETATM   19  C3  UNL     1      21.832   2.919  46.978  1.00  0.00     0.037 A 
HETATM   20  C2  UNL     1      22.261   4.208  47.181  1.00  0.00     0.068 A 
HETATM   21  C23 UNL     1      22.964   4.498  48.334  1.00  0.00     0.046 A 
BRANCH  20  22
HETATM   22  O1  UNL     1      21.980   5.192  46.228  1.00  0.00    -0.356 OA
HETATM   23  C1  UNL     1      21.582   4.737  44.944  1.00  0.00     0.210 C 
ENDBRANCH  20  22
ENDBRANCH   1  16
BRANCH   5  24
HETATM   24  C17 UNL     1      25.116   1.813  51.625  1.00  0.00     0.053 A 
HETATM   25  C18 UNL     1      24.039   1.388  52.375  1.00  0.00     0.031 A 
HETATM   26  C19 UNL     1      24.053   0.278  53.167  1.00  0.00     0.002 A 
HETATM   27  C20 UNL     1      25.205  -0.500  53.252  1.00  0.00     0.000 A 
HETATM   28  C21 UNL     1      26.265  -0.061  52.498  1.00  0.00     0.002 A 
HETATM   29  C22 UNL     1      26.266   1.061  51.691  1.00  0.00     0.031 A 
ENDBRANCH   5  24
TORSDOF 4
ENDMDL
MODEL 7
REMARK VINA RESULT:      -8.5      2.411      4.966
REMARK  4 active torsions:
REMARK  status: ('A' for Active; 'I' for Inactive)
REMARK    1  A    between atoms: O1_2  and  C2_3 
REMARK    2  A    between atoms: C6_7  and  C7_8 
REMARK    3  A    between atoms: C9_10  and  C10_11 
REMARK    4  A    between atoms: N3_22  and  C17_23 
ROOT
HETATM    1  C7  UNL     1      23.670   1.366  51.313  1.00  0.00     0.149 C 
HETATM    2  C8  UNL     1      23.305   2.526  50.435  1.00  0.00     0.095 C 
HETATM    3  C9  UNL     1      22.910   3.541  51.448  1.00  0.00     0.082 C 
HETATM    4  N2  UNL     1      22.540   2.921  52.541  1.00  0.00    -0.174 NA
HETATM    5  N3  UNL     1      22.648   1.520  52.363  1.00  0.00    -0.260 N 
ENDROOT
BRANCH   3   6
HETATM    6  C10 UNL     1      22.933   4.996  51.254  1.00  0.00     0.062 C 
HETATM    7  N1  UNL     1      24.060   5.620  51.205  1.00  0.00    -0.253 NA
HETATM    8  C11 UNL     1      24.225   7.031  51.021  1.00  0.00     0.301 C 
HETATM    9  O2  UNL     1      25.390   7.381  50.386  1.00  0.00    -0.357 OA
HETATM   10  C14 UNL     1      23.053   7.642  50.312  1.00  0.00     0.093 C 
HETATM   11  C12 UNL     1      25.217   7.856  49.100  1.00  0.00     0.197 C 
HETATM   12  C13 UNL     1      24.429   9.171  49.093  1.00  0.00     0.201 C 
HETATM   13  O3  UNL     1      23.148   8.829  49.595  1.00  0.00    -0.349 OA
HETATM   14  C15 UNL     1      21.899   7.003  50.391  1.00  0.00     0.016 C 
HETATM   15  C16 UNL     1      21.647   5.731  51.117  1.00  0.00     0.090 C 
ENDBRANCH   3   6
BRANCH   1  16
HETATM   16  C6  UNL     1      25.028   1.396  51.841  1.00  0.00    -0.030 A 
HETATM   17  C5  UNL     1      25.940   2.352  51.430  1.00  0.00     0.009 A 
HETATM   18  C4  UNL     1      27.235   2.430  51.895  1.00  0.00     0.003 A 
HETATM   19  C3  UNL     1      27.692   1.523  52.825  1.00  0.00     0.037 A 
HETATM   20  C2  UNL     1      26.831   0.550  53.269  1.00  0.00     0.068 A 
HETATM   21  C23 UNL     1      25.544   0.524  52.766  1.00  0.00     0.046 A 
BRANCH  20  22
HETATM   22  O1  UNL     1      27.266  -0.386  54.213  1.00  0.00    -0.356 OA
HETATM   23  C1  UNL     1      28.409  -0.032  54.976  1.00  0.00     0.210 C 
ENDBRANCH  20  22
ENDBRANCH   1  16
BRANCH   5  24
HETATM   24  C17 UNL     1      21.930   0.497  53.043  1.00  0.00     0.053 A 
HETATM   25  C18 UNL     1      20.668   0.056  52.704  1.00  0.00     0.031 A 
HETATM   26  C19 UNL     1      20.001  -0.928  53.374  1.00  0.00     0.002 A 
HETATM   27  C20 UNL     1      20.594  -1.548  54.470  1.00  0.00     0.000 A 
HETATM   28  C21 UNL     1      21.851  -1.095  54.790  1.00  0.00     0.002 A 
HETATM   29  C22 UNL     1      22.539  -0.100  54.122  1.00  0.00     0.031 A 
ENDBRANCH   5  24
TORSDOF 4
ENDMDL
MODEL 8
REMARK VINA RESULT:      -8.2      3.290      7.162
REMARK  4 active torsions:
REMARK  status: ('A' for Active; 'I' for Inactive)
REMARK    1  A    between atoms: O1_2  and  C2_3 
REMARK    2  A    between atoms: C6_7  and  C7_8 
REMARK    3  A    between atoms: C9_10  and  C10_11 
REMARK    4  A    between atoms: N3_22  and  C17_23 
ROOT
HETATM    1  C7  UNL     1      21.873   2.995  51.744  1.00  0.00     0.149 C 
HETATM    2  C8  UNL     1      22.828   2.670  52.854  1.00  0.00     0.095 C 
HETATM    3  C9  UNL     1      23.429   1.403  52.357  1.00  0.00     0.082 C 
HETATM    4  N2  UNL     1      22.589   0.840  51.523  1.00  0.00    -0.174 NA
HETATM    5  N3  UNL     1      21.423   1.635  51.400  1.00  0.00    -0.260 N 
ENDROOT
BRANCH   3   6
HETATM    6  C10 UNL     1      24.743   0.873  52.737  1.00  0.00     0.062 C 
HETATM    7  N1  UNL     1      25.814   1.400  52.249  1.00  0.00    -0.253 NA
HETATM    8  C11 UNL     1      27.154   0.983  52.535  1.00  0.00     0.301 C 
HETATM    9  O2  UNL     1      28.083   1.990  52.457  1.00  0.00    -0.357 OA
HETATM   10  C14 UNL     1      27.254   0.297  53.865  1.00  0.00     0.093 C 
HETATM   11  C12 UNL     1      28.601   2.382  53.678  1.00  0.00     0.197 C 
HETATM   12  C13 UNL     1      29.396   1.249  54.336  1.00  0.00     0.201 C 
HETATM   13  O3  UNL     1      28.439   0.233  54.587  1.00  0.00    -0.349 OA
HETATM   14  C15 UNL     1      26.153  -0.258  54.342  1.00  0.00     0.016 C 
HETATM   15  C16 UNL     1      24.819  -0.270  53.686  1.00  0.00     0.090 C 
ENDBRANCH   3   6
BRANCH   1  16
HETATM   16  C6  UNL     1      22.462   3.696  50.610  1.00  0.00    -0.030 A 
HETATM   17  C5  UNL     1      23.482   4.614  50.782  1.00  0.00     0.009 A 
HETATM   18  C4  UNL     1      24.078   5.307  49.750  1.00  0.00     0.003 A 
HETATM   19  C3  UNL     1      23.665   5.102  48.451  1.00  0.00     0.037 A 
HETATM   20  C2  UNL     1      22.655   4.201  48.220  1.00  0.00     0.068 A 
HETATM   21  C23 UNL     1      22.098   3.539  49.297  1.00  0.00     0.046 A 
BRANCH  20  22
HETATM   22  O1  UNL     1      22.214   3.973  46.912  1.00  0.00    -0.356 OA
HETATM   23  C1  UNL     1      20.893   3.477  46.766  1.00  0.00     0.210 C 
ENDBRANCH  20  22
ENDBRANCH   1  16
BRANCH   5  24
HETATM   24  C17 UNL     1      20.116   1.213  51.030  1.00  0.00     0.053 A 
HETATM   25  C18 UNL     1      19.372   1.749  49.999  1.00  0.00     0.031 A 
HETATM   26  C19 UNL     1      18.119   1.325  49.665  1.00  0.00     0.002 A 
HETATM   27  C20 UNL     1      17.519   0.294  50.383  1.00  0.00     0.000 A 
HETATM   28  C21 UNL     1      18.277  -0.226  51.404  1.00  0.00     0.002 A 
HETATM   29  C22 UNL     1      19.546   0.192  51.754  1.00  0.00     0.031 A 
ENDBRANCH   5  24
TORSDOF 4
ENDMDL
MODEL 9
REMARK VINA RESULT:      -8.2      2.714      7.869
REMARK  4 active torsions:
REMARK  status: ('A' for Active; 'I' for Inactive)
REMARK    1  A    between atoms: O1_2  and  C2_3 
REMARK    2  A    between atoms: C6_7  and  C7_8 
REMARK    3  A    between atoms: C9_10  and  C10_11 
REMARK    4  A    between atoms: N3_22  and  C17_23 
ROOT
HETATM    1  C7  UNL     1      22.887   4.958  51.918  1.00  0.00     0.149 C 
HETATM    2  C8  UNL     1      23.677   4.192  52.938  1.00  0.00     0.095 C 
HETATM    3  C9  UNL     1      23.732   2.845  52.308  1.00  0.00     0.082 C 
HETATM    4  N2  UNL     1      22.717   2.724  51.488  1.00  0.00    -0.174 NA
HETATM    5  N3  UNL     1      21.941   3.909  51.500  1.00  0.00    -0.260 N 
ENDROOT
BRANCH   3   6
HETATM    6  C10 UNL     1      24.754   1.824  52.563  1.00  0.00     0.062 C 
HETATM    7  N1  UNL     1      25.989   2.065  52.279  1.00  0.00    -0.253 NA
HETATM    8  C11 UNL     1      27.083   1.162  52.475  1.00  0.00     0.301 C 
HETATM    9  O2  UNL     1      28.284   1.779  52.716  1.00  0.00    -0.357 OA
HETATM   10  C14 UNL     1      26.794   0.164  53.558  1.00  0.00     0.093 C 
HETATM   11  C12 UNL     1      28.743   1.646  54.014  1.00  0.00     0.197 C 
HETATM   12  C13 UNL     1      29.051   0.181  54.347  1.00  0.00     0.201 C 
HETATM   13  O3  UNL     1      27.799  -0.480  54.269  1.00  0.00    -0.349 OA
HETATM   14  C15 UNL     1      25.524  -0.090  53.823  1.00  0.00     0.016 C 
HETATM   15  C16 UNL     1      24.348   0.519  53.149  1.00  0.00     0.090 C 
ENDBRANCH   3   6
BRANCH   1  16
HETATM   16  C6  UNL     1      23.666   5.488  50.807  1.00  0.00    -0.030 A 
HETATM   17  C5  UNL     1      23.415   5.103  49.502  1.00  0.00     0.009 A 
HETATM   18  C4  UNL     1      24.117   5.571  48.412  1.00  0.00     0.003 A 
HETATM   19  C3  UNL     1      25.139   6.479  48.586  1.00  0.00     0.037 A 
HETATM   20  C2  UNL     1      25.433   6.898  49.860  1.00  0.00     0.068 A 
HETATM   21  C23 UNL     1      24.693   6.392  50.911  1.00  0.00     0.046 A 
BRANCH  20  22
HETATM   22  O1  UNL     1      26.465   7.819  50.067  1.00  0.00    -0.356 OA
HETATM   23  C1  UNL     1      26.109   9.191  50.021  1.00  0.00     0.210 C 
ENDBRANCH  20  22
ENDBRANCH   1  16
BRANCH   5  24
HETATM   24  C17 UNL     1      20.561   4.050  51.182  1.00  0.00     0.053 A 
HETATM   25  C18 UNL     1      20.046   4.949  50.272  1.00  0.00     0.031 A 
HETATM   26  C19 UNL     1      18.718   5.064  49.985  1.00  0.00     0.002 A 
HETATM   27  C20 UNL     1      17.794   4.245  50.629  1.00  0.00     0.000 A 
HETATM   28  C21 UNL     1      18.327   3.357  51.531  1.00  0.00     0.002 A 
HETATM   29  C22 UNL     1      19.670   3.228  51.831  1.00  0.00     0.031 A 
ENDBRANCH   5  24
TORSDOF 4
ENDMDL
