MODEL 1
REMARK VINA RESULT:      -6.6      0.000      0.000
REMARK  8 active torsions:
REMARK  status: ('A' for Active; 'I' for Inactive)
REMARK    1  A    between atoms: C1_2  and  C2_3 
REMARK       I    between atoms: C1_2  and  N1_10 
REMARK    2  A    between atoms: C2_3  and  C3_4 
REMARK    3  A    between atoms: C3_4  and  C4_5 
REMARK    4  A    between atoms: C4_5  and  C5_6 
REMARK    5  A    between atoms: C5_6  and  C6_7 
REMARK    6  A    between atoms: C6_7  and  C7_8 
REMARK    7  A    between atoms: N1_10  and  S1_11 
REMARK    8  A    between atoms: S1_11  and  C8_14 
ROOT
HETATM    1  O1  UNL     1      26.665   2.824  49.307  1.00  0.00    -0.273 OA
HETATM    2  C1  UNL     1      26.182   3.774  49.956  1.00  0.00     0.231 C 
HETATM    3  N1  UNL     1      25.460   3.849  51.156  1.00  0.00    -0.250 N 
HETATM    4  H9  UNL     1      25.150   4.776  51.517  1.00  0.00     0.181 HD
ENDROOT
BRANCH   3   5
HETATM    5  S1  UNL     1      25.029   2.501  52.110  1.00  0.00     0.265 S 
HETATM    6  O2  UNL     1      24.300   3.036  53.324  1.00  0.00    -0.200 OA
HETATM    7  O3  UNL     1      24.017   1.690  51.340  1.00  0.00    -0.200 OA
BRANCH   5   8
HETATM    8  C8  UNL     1      26.413   1.531  52.567  1.00  0.00     0.080 A 
HETATM    9  C9  UNL     1      26.390   0.158  52.442  1.00  0.00     0.027 A 
HETATM   10  C10 UNL     1      27.485  -0.601  52.804  1.00  0.00     0.025 A 
HETATM   11  C11 UNL     1      28.630   0.030  53.303  1.00  0.00     0.034 A 
HETATM   12 CL1  UNL     1      30.005  -0.977  53.754  1.00  0.00    -0.084 Cl
HETATM   13  C12 UNL     1      28.678   1.420  53.440  1.00  0.00     0.025 A 
HETATM   14  C13 UNL     1      27.552   2.160  53.063  1.00  0.00     0.027 A 
ENDBRANCH   5   8
ENDBRANCH   3   5
BRANCH   2  15
HETATM   15  C2  UNL     1      26.482   5.038  49.238  1.00  0.00     0.105 C 
BRANCH  15  16
HETATM   16  C3  UNL     1      27.837   4.982  48.571  1.00  0.00     0.026 C 
BRANCH  16  17
HETATM   17  C4  UNL     1      28.322   6.325  48.179  1.00  0.00     0.067 C 
BRANCH  17  18
HETATM   18  C5  UNL     1      29.567   6.402  47.728  1.00  0.00    -0.170 C 
BRANCH  18  19
HETATM   19  C6  UNL     1      30.851   6.255  47.429  1.00  0.00     0.078 C 
BRANCH  19  20
HETATM   20  C7  UNL     1      31.596   5.218  48.186  1.00  0.00     0.102 C 
HETATM   21 BR1  UNL     1      32.075   3.825  46.932  1.00  0.00    -0.095 Br
ENDBRANCH  19  20
ENDBRANCH  18  19
ENDBRANCH  17  18
ENDBRANCH  16  17
ENDBRANCH  15  16
ENDBRANCH   2  15
TORSDOF 8
ENDMDL
MODEL 2
REMARK VINA RESULT:      -6.6      2.033      2.786
REMARK  8 active torsions:
REMARK  status: ('A' for Active; 'I' for Inactive)
REMARK    1  A    between atoms: C1_2  and  C2_3 
REMARK       I    between atoms: C1_2  and  N1_10 
REMARK    2  A    between atoms: C2_3  and  C3_4 
REMARK    3  A    between atoms: C3_4  and  C4_5 
REMARK    4  A    between atoms: C4_5  and  C5_6 
REMARK    5  A    between atoms: C5_6  and  C6_7 
REMARK    6  A    between atoms: C6_7  and  C7_8 
REMARK    7  A    between atoms: N1_10  and  S1_11 
REMARK    8  A    between atoms: S1_11  and  C8_14 
ROOT
HETATM    1  O1  UNL     1      26.832   2.743  49.484  1.00  0.00    -0.273 OA
HETATM    2  C1  UNL     1      26.250   3.710  50.017  1.00  0.00     0.231 C 
HETATM    3  N1  UNL     1      25.438   3.836  51.154  1.00  0.00    -0.250 N 
HETATM    4  H9  UNL     1      25.051   4.768  51.414  1.00  0.00     0.181 HD
ENDROOT
BRANCH   3   5
HETATM    5  S1  UNL     1      25.014   2.544  52.185  1.00  0.00     0.265 S 
HETATM    6  O2  UNL     1      24.349   3.151  53.401  1.00  0.00    -0.200 OA
HETATM    7  O3  UNL     1      23.952   1.725  51.494  1.00  0.00    -0.200 OA
BRANCH   5   8
HETATM    8  C8  UNL     1      26.391   1.558  52.630  1.00  0.00     0.080 A 
HETATM    9  C9  UNL     1      27.512   2.120  53.204  1.00  0.00     0.027 A 
HETATM   10  C10 UNL     1      28.593   1.338  53.552  1.00  0.00     0.025 A 
HETATM   11  C11 UNL     1      28.554  -0.041  53.319  1.00  0.00     0.034 A 
HETATM   12 CL1  UNL     1      29.958  -1.004  53.778  1.00  0.00    -0.084 Cl
HETATM   13  C12 UNL     1      27.430  -0.636  52.737  1.00  0.00     0.025 A 
HETATM   14  C13 UNL     1      26.350   0.186  52.397  1.00  0.00     0.027 A 
ENDBRANCH   5   8
ENDBRANCH   3   5
BRANCH   2  15
HETATM   15  C2  UNL     1      26.532   4.929  49.218  1.00  0.00     0.105 C 
BRANCH  15  16
HETATM   16  C3  UNL     1      27.890   4.852  48.559  1.00  0.00     0.026 C 
BRANCH  16  17
HETATM   17  C4  UNL     1      28.422   6.191  48.220  1.00  0.00     0.067 C 
BRANCH  17  18
HETATM   18  C5  UNL     1      27.548   7.090  47.789  1.00  0.00    -0.170 C 
BRANCH  18  19
HETATM   19  C6  UNL     1      26.829   8.165  47.494  1.00  0.00     0.078 C 
BRANCH  19  20
HETATM   20  C7  UNL     1      25.939   8.683  48.563  1.00  0.00     0.102 C 
HETATM   21 BR1  UNL     1      27.059   9.134  50.075  1.00  0.00    -0.095 Br
ENDBRANCH  19  20
ENDBRANCH  18  19
ENDBRANCH  17  18
ENDBRANCH  16  17
ENDBRANCH  15  16
ENDBRANCH   2  15
TORSDOF 8
ENDMDL
MODEL 3
REMARK VINA RESULT:      -6.3      3.657      4.537
REMARK  8 active torsions:
REMARK  status: ('A' for Active; 'I' for Inactive)
REMARK    1  A    between atoms: C1_2  and  C2_3 
REMARK       I    between atoms: C1_2  and  N1_10 
REMARK    2  A    between atoms: C2_3  and  C3_4 
REMARK    3  A    between atoms: C3_4  and  C4_5 
REMARK    4  A    between atoms: C4_5  and  C5_6 
REMARK    5  A    between atoms: C5_6  and  C6_7 
REMARK    6  A    between atoms: C6_7  and  C7_8 
REMARK    7  A    between atoms: N1_10  and  S1_11 
REMARK    8  A    between atoms: S1_11  and  C8_14 
ROOT
HETATM    1  O1  UNL     1      25.468   2.879  52.166  1.00  0.00    -0.273 OA
HETATM    2  C1  UNL     1      26.240   2.003  51.726  1.00  0.00     0.231 C 
HETATM    3  N1  UNL     1      26.748   0.812  52.265  1.00  0.00    -0.250 N 
HETATM    4  H9  UNL     1      27.396   0.222  51.700  1.00  0.00     0.181 HD
ENDROOT
BRANCH   3   5
HETATM    5  S1  UNL     1      26.382   0.224  53.825  1.00  0.00     0.265 S 
HETATM    6  O2  UNL     1      27.363  -0.890  54.117  1.00  0.00    -0.200 OA
HETATM    7  O3  UNL     1      26.687   1.318  54.818  1.00  0.00    -0.200 OA
BRANCH   5   8
HETATM    8  C8  UNL     1      24.726  -0.324  53.966  1.00  0.00     0.080 A 
HETATM    9  C9  UNL     1      23.819  -0.116  52.948  1.00  0.00     0.027 A 
HETATM   10  C10 UNL     1      22.515  -0.550  53.066  1.00  0.00     0.025 A 
HETATM   11  C11 UNL     1      22.107  -1.209  54.231  1.00  0.00     0.034 A 
HETATM   12 CL1  UNL     1      20.431  -1.747  54.341  1.00  0.00    -0.084 Cl
HETATM   13  C12 UNL     1      23.006  -1.431  55.278  1.00  0.00     0.025 A 
HETATM   14  C13 UNL     1      24.321  -0.978  55.126  1.00  0.00     0.027 A 
ENDBRANCH   5   8
ENDBRANCH   3   5
BRANCH   2  15
HETATM   15  C2  UNL     1      26.650   2.382  50.351  1.00  0.00     0.105 C 
BRANCH  15  16
HETATM   16  C3  UNL     1      26.208   3.787  50.013  1.00  0.00     0.026 C 
BRANCH  16  17
HETATM   17  C4  UNL     1      27.100   4.431  49.022  1.00  0.00     0.067 C 
BRANCH  17  18
HETATM   18  C5  UNL     1      26.825   5.687  48.698  1.00  0.00    -0.170 C 
BRANCH  18  19
HETATM   19  C6  UNL     1      26.821   6.971  48.365  1.00  0.00     0.078 C 
BRANCH  19  20
HETATM   20  C7  UNL     1      28.069   7.729  48.626  1.00  0.00     0.102 C 
HETATM   21 BR1  UNL     1      29.428   7.022  47.443  1.00  0.00    -0.095 Br
ENDBRANCH  19  20
ENDBRANCH  18  19
ENDBRANCH  17  18
ENDBRANCH  16  17
ENDBRANCH  15  16
ENDBRANCH   2  15
TORSDOF 8
ENDMDL
MODEL 4
REMARK VINA RESULT:      -6.3      3.411      6.865
REMARK  8 active torsions:
REMARK  status: ('A' for Active; 'I' for Inactive)
REMARK    1  A    between atoms: C1_2  and  C2_3 
REMARK       I    between atoms: C1_2  and  N1_10 
REMARK    2  A    between atoms: C2_3  and  C3_4 
REMARK    3  A    between atoms: C3_4  and  C4_5 
REMARK    4  A    between atoms: C4_5  and  C5_6 
REMARK    5  A    between atoms: C5_6  and  C6_7 
REMARK    6  A    between atoms: C6_7  and  C7_8 
REMARK    7  A    between atoms: N1_10  and  S1_11 
REMARK    8  A    between atoms: S1_11  and  C8_14 
ROOT
HETATM    1  O1  UNL     1      23.159   3.205  52.213  1.00  0.00    -0.273 OA
HETATM    2  C1  UNL     1      24.396   3.096  52.086  1.00  0.00     0.231 C 
HETATM    3  N1  UNL     1      25.331   3.698  51.232  1.00  0.00    -0.250 N 
HETATM    4  H9  UNL     1      26.340   3.446  51.308  1.00  0.00     0.181 HD
ENDROOT
BRANCH   3   5
HETATM    5  S1  UNL     1      24.944   4.850  50.033  1.00  0.00     0.265 S 
HETATM    6  O2  UNL     1      23.985   4.180  49.073  1.00  0.00    -0.200 OA
HETATM    7  O3  UNL     1      24.167   5.963  50.691  1.00  0.00    -0.200 OA
BRANCH   5   8
HETATM    8  C8  UNL     1      26.360   5.461  49.206  1.00  0.00     0.080 A 
HETATM    9  C9  UNL     1      27.437   4.643  48.940  1.00  0.00     0.027 A 
HETATM   10  C10 UNL     1      28.551   5.131  48.288  1.00  0.00     0.025 A 
HETATM   11  C11 UNL     1      28.588   6.473  47.892  1.00  0.00     0.034 A 
HETATM   12 CL1  UNL     1      30.030   7.057  47.063  1.00  0.00    -0.084 Cl
HETATM   13  C12 UNL     1      27.509   7.324  48.151  1.00  0.00     0.025 A 
HETATM   14  C13 UNL     1      26.396   6.797  48.814  1.00  0.00     0.027 A 
ENDBRANCH   5   8
ENDBRANCH   3   5
BRANCH   2  15
HETATM   15  C2  UNL     1      24.887   2.111  53.081  1.00  0.00     0.105 C 
BRANCH  15  16
HETATM   16  C3  UNL     1      24.237   0.761  52.885  1.00  0.00     0.026 C 
BRANCH  16  17
HETATM   17  C4  UNL     1      24.949  -0.314  53.615  1.00  0.00     0.067 C 
BRANCH  17  18
HETATM   18  C5  UNL     1      26.236  -0.473  53.336  1.00  0.00    -0.170 C 
BRANCH  18  19
HETATM   19  C6  UNL     1      27.526  -0.360  53.051  1.00  0.00     0.078 C 
BRANCH  19  20
HETATM   20  C7  UNL     1      28.384   0.265  54.089  1.00  0.00     0.102 C 
HETATM   21 BR1  UNL     1      28.611   2.125  53.602  1.00  0.00    -0.095 Br
ENDBRANCH  19  20
ENDBRANCH  18  19
ENDBRANCH  17  18
ENDBRANCH  16  17
ENDBRANCH  15  16
ENDBRANCH   2  15
TORSDOF 8
ENDMDL
MODEL 5
REMARK VINA RESULT:      -6.2      4.269      5.928
REMARK  8 active torsions:
REMARK  status: ('A' for Active; 'I' for Inactive)
REMARK    1  A    between atoms: C1_2  and  C2_3 
REMARK       I    between atoms: C1_2  and  N1_10 
REMARK    2  A    between atoms: C2_3  and  C3_4 
REMARK    3  A    between atoms: C3_4  and  C4_5 
REMARK    4  A    between atoms: C4_5  and  C5_6 
REMARK    5  A    between atoms: C5_6  and  C6_7 
REMARK    6  A    between atoms: C6_7  and  C7_8 
REMARK    7  A    between atoms: N1_10  and  S1_11 
REMARK    8  A    between atoms: S1_11  and  C8_14 
ROOT
HETATM    1  O1  UNL     1      23.708   4.376  51.011  1.00  0.00    -0.273 OA
HETATM    2  C1  UNL     1      24.127   3.714  50.039  1.00  0.00     0.231 C 
HETATM    3  N1  UNL     1      23.566   2.694  49.258  1.00  0.00    -0.250 N 
HETATM    4  H9  UNL     1      24.116   2.277  48.476  1.00  0.00     0.181 HD
ENDROOT
BRANCH   3   5
HETATM    5  S1  UNL     1      22.002   2.050  49.488  1.00  0.00     0.265 S 
HETATM    6  O2  UNL     1      21.035   3.213  49.433  1.00  0.00    -0.200 OA
HETATM    7  O3  UNL     1      21.677   1.181  48.298  1.00  0.00    -0.200 OA
BRANCH   5   8
HETATM    8  C8  UNL     1      21.854   1.161  50.988  1.00  0.00     0.080 A 
HETATM    9  C9  UNL     1      22.943   0.974  51.814  1.00  0.00     0.027 A 
HETATM   10  C10 UNL     1      22.820   0.272  52.995  1.00  0.00     0.025 A 
HETATM   11  C11 UNL     1      21.577  -0.256  53.360  1.00  0.00     0.034 A 
HETATM   12 CL1  UNL     1      21.463  -1.148  54.877  1.00  0.00    -0.084 Cl
HETATM   13  C12 UNL     1      20.457  -0.082  52.540  1.00  0.00     0.025 A 
HETATM   14  C13 UNL     1      20.617   0.635  51.350  1.00  0.00     0.027 A 
ENDBRANCH   5   8
ENDBRANCH   3   5
BRANCH   2  15
HETATM   15  C2  UNL     1      25.502   4.170  49.715  1.00  0.00     0.105 C 
BRANCH  15  16
HETATM   16  C3  UNL     1      26.508   3.058  49.903  1.00  0.00     0.026 C 
BRANCH  16  17
HETATM   17  C4  UNL     1      26.704   2.719  51.331  1.00  0.00     0.067 C 
BRANCH  17  18
HETATM   18  C5  UNL     1      26.561   1.444  51.667  1.00  0.00    -0.170 C 
BRANCH  18  19
HETATM   19  C6  UNL     1      26.640   0.133  51.850  1.00  0.00     0.078 C 
BRANCH  19  20
HETATM   20  C7  UNL     1      26.814  -0.334  53.248  1.00  0.00     0.102 C 
HETATM   21 BR1  UNL     1      28.716  -0.503  53.565  1.00  0.00    -0.095 Br
ENDBRANCH  19  20
ENDBRANCH  18  19
ENDBRANCH  17  18
ENDBRANCH  16  17
ENDBRANCH  15  16
ENDBRANCH   2  15
TORSDOF 8
ENDMDL
MODEL 6
REMARK VINA RESULT:      -6.1      1.943      2.131
REMARK  8 active torsions:
REMARK  status: ('A' for Active; 'I' for Inactive)
REMARK    1  A    between atoms: C1_2  and  C2_3 
REMARK       I    between atoms: C1_2  and  N1_10 
REMARK    2  A    between atoms: C2_3  and  C3_4 
REMARK    3  A    between atoms: C3_4  and  C4_5 
REMARK    4  A    between atoms: C4_5  and  C5_6 
REMARK    5  A    between atoms: C5_6  and  C6_7 
REMARK    6  A    between atoms: C6_7  and  C7_8 
REMARK    7  A    between atoms: N1_10  and  S1_11 
REMARK    8  A    between atoms: S1_11  and  C8_14 
ROOT
HETATM    1  O1  UNL     1      24.862   3.859  48.885  1.00  0.00    -0.273 OA
HETATM    2  C1  UNL     1      25.223   4.693  49.739  1.00  0.00     0.231 C 
HETATM    3  N1  UNL     1      24.990   4.821  51.116  1.00  0.00    -0.250 N 
HETATM    4  H9  UNL     1      25.404   5.621  51.640  1.00  0.00     0.181 HD
ENDROOT
BRANCH   3   5
HETATM    5  S1  UNL     1      24.050   3.737  52.042  1.00  0.00     0.265 S 
HETATM    6  O2  UNL     1      23.795   4.405  53.375  1.00  0.00    -0.200 OA
HETATM    7  O3  UNL     1      22.703   3.604  51.377  1.00  0.00    -0.200 OA
BRANCH   5   8
HETATM    8  C8  UNL     1      24.822   2.179  52.240  1.00  0.00     0.080 A 
HETATM    9  C9  UNL     1      24.194   1.156  52.918  1.00  0.00     0.027 A 
HETATM   10  C10 UNL     1      24.808  -0.070  53.071  1.00  0.00     0.025 A 
HETATM   11  C11 UNL     1      26.082  -0.279  52.531  1.00  0.00     0.034 A 
HETATM   12 CL1  UNL     1      26.832  -1.859  52.750  1.00  0.00    -0.084 Cl
HETATM   13  C12 UNL     1      26.741   0.743  51.840  1.00  0.00     0.025 A 
HETATM   14  C13 UNL     1      26.090   1.973  51.703  1.00  0.00     0.027 A 
ENDBRANCH   5   8
ENDBRANCH   3   5
BRANCH   2  15
HETATM   15  C2  UNL     1      26.065   5.718  49.072  1.00  0.00     0.105 C 
BRANCH  15  16
HETATM   16  C3  UNL     1      27.378   5.132  48.607  1.00  0.00     0.026 C 
BRANCH  16  17
HETATM   17  C4  UNL     1      28.341   6.178  48.193  1.00  0.00     0.067 C 
BRANCH  17  18
HETATM   18  C5  UNL     1      29.598   5.796  48.018  1.00  0.00    -0.170 C 
BRANCH  18  19
HETATM   19  C6  UNL     1      30.899   5.544  48.078  1.00  0.00     0.078 C 
BRANCH  19  20
HETATM   20  C7  UNL     1      31.601   5.966  49.316  1.00  0.00     0.102 C 
HETATM   21 BR1  UNL     1      31.587   7.901  49.353  1.00  0.00    -0.095 Br
ENDBRANCH  19  20
ENDBRANCH  18  19
ENDBRANCH  17  18
ENDBRANCH  16  17
ENDBRANCH  15  16
ENDBRANCH   2  15
TORSDOF 8
ENDMDL
MODEL 7
REMARK VINA RESULT:      -6.0      4.798      7.266
REMARK  8 active torsions:
REMARK  status: ('A' for Active; 'I' for Inactive)
REMARK    1  A    between atoms: C1_2  and  C2_3 
REMARK       I    between atoms: C1_2  and  N1_10 
REMARK    2  A    between atoms: C2_3  and  C3_4 
REMARK    3  A    between atoms: C3_4  and  C4_5 
REMARK    4  A    between atoms: C4_5  and  C5_6 
REMARK    5  A    between atoms: C5_6  and  C6_7 
REMARK    6  A    between atoms: C6_7  and  C7_8 
REMARK    7  A    between atoms: N1_10  and  S1_11 
REMARK    8  A    between atoms: S1_11  and  C8_14 
ROOT
HETATM    1  O1  UNL     1      21.031   4.572  51.590  1.00  0.00    -0.273 OA
HETATM    2  C1  UNL     1      21.302   3.368  51.775  1.00  0.00     0.231 C 
HETATM    3  N1  UNL     1      22.486   2.687  52.092  1.00  0.00    -0.250 N 
HETATM    4  H9  UNL     1      22.476   1.651  52.200  1.00  0.00     0.181 HD
ENDROOT
BRANCH   3   5
HETATM    5  S1  UNL     1      24.001   3.440  52.325  1.00  0.00     0.265 S 
HETATM    6  O2  UNL     1      24.276   4.266  51.087  1.00  0.00    -0.200 OA
HETATM    7  O3  UNL     1      23.862   4.424  53.460  1.00  0.00    -0.200 OA
BRANCH   5   8
HETATM    8  C8  UNL     1      25.284   2.289  52.630  1.00  0.00     0.080 A 
HETATM    9  C9  UNL     1      25.857   2.178  53.879  1.00  0.00     0.027 A 
HETATM   10  C10 UNL     1      26.868   1.269  54.112  1.00  0.00     0.025 A 
HETATM   11  C11 UNL     1      27.318   0.451  53.070  1.00  0.00     0.034 A 
HETATM   12 CL1  UNL     1      28.612  -0.697  53.410  1.00  0.00    -0.084 Cl
HETATM   13  C12 UNL     1      26.754   0.545  51.793  1.00  0.00     0.025 A 
HETATM   14  C13 UNL     1      25.730   1.476  51.591  1.00  0.00     0.027 A 
ENDBRANCH   5   8
ENDBRANCH   3   5
BRANCH   2  15
HETATM   15  C2  UNL     1      20.060   2.573  51.604  1.00  0.00     0.105 C 
BRANCH  15  16
HETATM   16  C3  UNL     1      20.372   1.123  51.311  1.00  0.00     0.026 C 
BRANCH  16  17
HETATM   17  C4  UNL     1      19.684   0.204  52.246  1.00  0.00     0.067 C 
BRANCH  17  18
HETATM   18  C5  UNL     1      20.243   0.035  53.437  1.00  0.00    -0.170 C 
BRANCH  18  19
HETATM   19  C6  UNL     1      20.861   0.132  54.607  1.00  0.00     0.078 C 
BRANCH  19  20
HETATM   20  C7  UNL     1      21.910  -0.879  54.890  1.00  0.00     0.102 C 
HETATM   21 BR1  UNL     1      23.257  -0.710  53.510  1.00  0.00    -0.095 Br
ENDBRANCH  19  20
ENDBRANCH  18  19
ENDBRANCH  17  18
ENDBRANCH  16  17
ENDBRANCH  15  16
ENDBRANCH   2  15
TORSDOF 8
ENDMDL
MODEL 8
REMARK VINA RESULT:      -5.8      4.871      6.370
REMARK  8 active torsions:
REMARK  status: ('A' for Active; 'I' for Inactive)
REMARK    1  A    between atoms: C1_2  and  C2_3 
REMARK       I    between atoms: C1_2  and  N1_10 
REMARK    2  A    between atoms: C2_3  and  C3_4 
REMARK    3  A    between atoms: C3_4  and  C4_5 
REMARK    4  A    between atoms: C4_5  and  C5_6 
REMARK    5  A    between atoms: C5_6  and  C6_7 
REMARK    6  A    between atoms: C6_7  and  C7_8 
REMARK    7  A    between atoms: N1_10  and  S1_11 
REMARK    8  A    between atoms: S1_11  and  C8_14 
ROOT
HETATM    1  O1  UNL     1      25.663   2.887  52.972  1.00  0.00    -0.273 OA
HETATM    2  C1  UNL     1      26.085   1.994  52.210  1.00  0.00     0.231 C 
HETATM    3  N1  UNL     1      26.133   0.595  52.303  1.00  0.00    -0.250 N 
HETATM    4  H9  UNL     1      26.541   0.037  51.523  1.00  0.00     0.181 HD
ENDROOT
BRANCH   3   5
HETATM    5  S1  UNL     1      25.559  -0.304  53.636  1.00  0.00     0.265 S 
HETATM    6  O2  UNL     1      26.246  -1.652  53.586  1.00  0.00    -0.200 OA
HETATM    7  O3  UNL     1      26.049   0.366  54.895  1.00  0.00    -0.200 OA
BRANCH   5   8
HETATM    8  C8  UNL     1      23.817  -0.469  53.636  1.00  0.00     0.080 A 
HETATM    9  C9  UNL     1      23.164  -1.121  54.661  1.00  0.00     0.027 A 
HETATM   10  C10 UNL     1      21.790  -1.247  54.654  1.00  0.00     0.025 A 
HETATM   11  C11 UNL     1      21.050  -0.708  53.596  1.00  0.00     0.034 A 
HETATM   12 CL1  UNL     1      19.297  -0.893  53.626  1.00  0.00    -0.084 Cl
HETATM   13  C12 UNL     1      21.688  -0.044  52.544  1.00  0.00     0.025 A 
HETATM   14  C13 UNL     1      23.082   0.067  52.581  1.00  0.00     0.027 A 
ENDBRANCH   5   8
ENDBRANCH   3   5
BRANCH   2  15
HETATM   15  C2  UNL     1      26.623   2.634  50.984  1.00  0.00     0.105 C 
BRANCH  15  16
HETATM   16  C3  UNL     1      25.559   3.434  50.269  1.00  0.00     0.026 C 
BRANCH  16  17
HETATM   17  C4  UNL     1      24.252   2.739  50.255  1.00  0.00     0.067 C 
BRANCH  17  18
HETATM   18  C5  UNL     1      23.433   3.029  49.254  1.00  0.00    -0.170 C 
BRANCH  18  19
HETATM   19  C6  UNL     1      22.741   3.560  48.254  1.00  0.00     0.078 C 
BRANCH  19  20
HETATM   20  C7  UNL     1      21.768   2.670  47.572  1.00  0.00     0.102 C 
HETATM   21 BR1  UNL     1      21.322   1.252  48.811  1.00  0.00    -0.095 Br
ENDBRANCH  19  20
ENDBRANCH  18  19
ENDBRANCH  17  18
ENDBRANCH  16  17
ENDBRANCH  15  16
ENDBRANCH   2  15
TORSDOF 8
ENDMDL
MODEL 9
REMARK VINA RESULT:      -5.8      3.846      4.502
REMARK  8 active torsions:
REMARK  status: ('A' for Active; 'I' for Inactive)
REMARK    1  A    between atoms: C1_2  and  C2_3 
REMARK       I    between atoms: C1_2  and  N1_10 
REMARK    2  A    between atoms: C2_3  and  C3_4 
REMARK    3  A    between atoms: C3_4  and  C4_5 
REMARK    4  A    between atoms: C4_5  and  C5_6 
REMARK    5  A    between atoms: C5_6  and  C6_7 
REMARK    6  A    between atoms: C6_7  and  C7_8 
REMARK    7  A    between atoms: N1_10  and  S1_11 
REMARK    8  A    between atoms: S1_11  and  C8_14 
ROOT
HETATM    1  O1  UNL     1      27.107   3.204  50.823  1.00  0.00    -0.273 OA
HETATM    2  C1  UNL     1      25.942   3.181  50.377  1.00  0.00     0.231 C 
HETATM    3  N1  UNL     1      24.762   2.552  50.802  1.00  0.00    -0.250 N 
HETATM    4  H9  UNL     1      23.882   2.678  50.258  1.00  0.00     0.181 HD
ENDROOT
BRANCH   3   5
HETATM    5  S1  UNL     1      24.641   1.560  52.186  1.00  0.00     0.265 S 
HETATM    6  O2  UNL     1      25.663   0.456  52.027  1.00  0.00    -0.200 OA
HETATM    7  O3  UNL     1      25.085   2.370  53.379  1.00  0.00    -0.200 OA
BRANCH   5   8
HETATM    8  C8  UNL     1      23.029   0.918  52.414  1.00  0.00     0.080 A 
HETATM    9  C9  UNL     1      22.119   0.898  51.378  1.00  0.00     0.027 A 
HETATM   10  C10 UNL     1      20.849   0.391  51.564  1.00  0.00     0.025 A 
HETATM   11  C11 UNL     1      20.481  -0.110  52.818  1.00  0.00     0.034 A 
HETATM   12 CL1  UNL     1      18.849  -0.748  53.014  1.00  0.00    -0.084 Cl
HETATM   13  C12 UNL     1      21.385  -0.100  53.885  1.00  0.00     0.025 A 
HETATM   14  C13 UNL     1      22.663   0.421  53.662  1.00  0.00     0.027 A 
ENDBRANCH   5   8
ENDBRANCH   3   5
BRANCH   2  15
HETATM   15  C2  UNL     1      25.889   4.015  49.151  1.00  0.00     0.105 C 
BRANCH  15  16
HETATM   16  C3  UNL     1      25.855   5.488  49.489  1.00  0.00     0.026 C 
BRANCH  16  17
HETATM   17  C4  UNL     1      26.779   6.277  48.643  1.00  0.00     0.067 C 
BRANCH  17  18
HETATM   18  C5  UNL     1      28.010   5.803  48.502  1.00  0.00    -0.170 C 
BRANCH  18  19
HETATM   19  C6  UNL     1      29.206   5.395  48.098  1.00  0.00     0.078 C 
BRANCH  19  20
HETATM   20  C7  UNL     1      30.363   6.239  48.485  1.00  0.00     0.102 C 
HETATM   21 BR1  UNL     1      31.106   6.976  46.857  1.00  0.00    -0.095 Br
ENDBRANCH  19  20
ENDBRANCH  18  19
ENDBRANCH  17  18
ENDBRANCH  16  17
ENDBRANCH  15  16
ENDBRANCH   2  15
TORSDOF 8
ENDMDL
