MODEL 1
REMARK VINA RESULT:      -8.2      0.000      0.000
REMARK  1 active torsions:
REMARK  status: ('A' for Active; 'I' for Inactive)
REMARK    1  A    between atoms: N1_5  and  C5_6 
ROOT
HETATM    1  C5  UNL     1      25.871   0.365  54.748  1.00  0.00     0.238 C 
HETATM    2  N2  UNL     1      26.147   1.724  54.516  1.00  0.00    -0.275 NA
HETATM    3  C6  UNL     1      25.636   2.689  53.887  1.00  0.00     0.091 C 
HETATM    4  C7  UNL     1      24.601   3.303  53.021  1.00  0.00     0.086 C 
HETATM    5  C8  UNL     1      23.785   2.318  52.264  1.00  0.00    -0.040 A 
HETATM    6  C9  UNL     1      23.457   2.852  51.022  1.00  0.00     0.027 A 
HETATM    7  C10 UNL     1      22.712   2.079  50.144  1.00  0.00     0.116 A 
HETATM    8  N3  UNL     1      22.277   0.829  50.409  1.00  0.00    -0.272 NA
HETATM    9  C11 UNL     1      22.559   0.228  51.611  1.00  0.00     0.129 A 
HETATM   10  C12 UNL     1      23.314   1.030  52.491  1.00  0.00    -0.001 A 
HETATM   11  C13 UNL     1      23.433   0.146  53.676  1.00  0.00    -0.014 A 
HETATM   12  C14 UNL     1      22.150  -0.443  53.719  1.00  0.00     0.013 A 
HETATM   13  C15 UNL     1      21.971  -1.377  54.753  1.00  0.00     0.001 A 
HETATM   14  C16 UNL     1      23.029  -1.640  55.627  1.00  0.00     0.001 A 
HETATM   15  C17 UNL     1      24.271  -1.013  55.523  1.00  0.00     0.012 A 
HETATM   16  C18 UNL     1      24.502  -0.090  54.526  1.00  0.00    -0.004 A 
ENDROOT
BRANCH   1  17
HETATM   17  N1  UNL     1      26.835  -0.475  53.926  1.00  0.00    -0.370 N 
HETATM   18  C4  UNL     1      26.235  -1.423  52.881  1.00  0.00     0.121 A 
HETATM   19  C3  UNL     1      26.768  -2.379  51.906  1.00  0.00     0.054 A 
HETATM   20  C2  UNL     1      27.781  -1.873  52.509  1.00  0.00    -0.045 A 
HETATM   21  C1  UNL     1      28.612  -1.438  53.024  1.00  0.00    -0.045 A 
HETATM   22  C20 UNL     1      29.582  -0.907  53.650  1.00  0.00     0.054 A 
HETATM   23  C19 UNL     1      28.346  -0.316  54.195  1.00  0.00     0.121 A 
ENDBRANCH   1  17
TORSDOF 1
ENDMDL
MODEL 2
REMARK VINA RESULT:      -8.0      4.177      7.308
REMARK  1 active torsions:
REMARK  status: ('A' for Active; 'I' for Inactive)
REMARK    1  A    between atoms: N1_5  and  C5_6 
ROOT
HETATM    1  C5  UNL     1      24.794   3.288  49.515  1.00  0.00     0.238 C 
HETATM    2  N2  UNL     1      23.544   3.086  48.901  1.00  0.00    -0.275 NA
HETATM    3  C6  UNL     1      22.686   3.767  48.278  1.00  0.00     0.091 C 
HETATM    4  C7  UNL     1      22.169   5.028  47.693  1.00  0.00     0.086 C 
HETATM    5  C8  UNL     1      22.821   6.252  48.226  1.00  0.00    -0.040 A 
HETATM    6  C9  UNL     1      21.886   7.280  48.287  1.00  0.00     0.027 A 
HETATM    7  C10 UNL     1      22.286   8.512  48.781  1.00  0.00     0.116 A 
HETATM    8  N3  UNL     1      23.534   8.792  49.214  1.00  0.00    -0.272 NA
HETATM    9  C11 UNL     1      24.517   7.833  49.189  1.00  0.00     0.129 A 
HETATM   10  C12 UNL     1      24.091   6.588  48.681  1.00  0.00    -0.001 A 
HETATM   11  C13 UNL     1      25.340   5.791  48.753  1.00  0.00    -0.014 A 
HETATM   12  C14 UNL     1      26.306   6.746  48.368  1.00  0.00     0.013 A 
HETATM   13  C15 UNL     1      27.629   6.271  48.372  1.00  0.00     0.001 A 
HETATM   14  C16 UNL     1      27.879   4.947  48.738  1.00  0.00     0.001 A 
HETATM   15  C17 UNL     1      26.867   4.058  49.105  1.00  0.00     0.012 A 
HETATM   16  C18 UNL     1      25.552   4.471  49.120  1.00  0.00    -0.004 A 
ENDROOT
BRANCH   1  17
HETATM   17  N1  UNL     1      24.604   3.275  51.023  1.00  0.00    -0.370 N 
HETATM   18  C4  UNL     1      23.792   4.418  51.645  1.00  0.00     0.121 A 
HETATM   19  C3  UNL     1      23.377   4.789  53.001  1.00  0.00     0.054 A 
HETATM   20  C2  UNL     1      24.052   3.704  53.113  1.00  0.00    -0.045 A 
HETATM   21  C1  UNL     1      24.619   2.799  53.184  1.00  0.00    -0.045 A 
HETATM   22  C20 UNL     1      25.295   1.724  53.242  1.00  0.00     0.054 A 
HETATM   23  C19 UNL     1      25.235   2.116  51.823  1.00  0.00     0.121 A 
ENDBRANCH   1  17
TORSDOF 1
ENDMDL
MODEL 3
REMARK VINA RESULT:      -7.9      2.586      5.266
REMARK  1 active torsions:
REMARK  status: ('A' for Active; 'I' for Inactive)
REMARK    1  A    between atoms: N1_5  and  C5_6 
ROOT
HETATM    1  C5  UNL     1      21.646   1.937  51.697  1.00  0.00     0.238 C 
HETATM    2  N2  UNL     1      21.315   3.065  52.469  1.00  0.00    -0.275 NA
HETATM    3  C6  UNL     1      21.534   4.306  52.455  1.00  0.00     0.091 C 
HETATM    4  C7  UNL     1      22.127   5.538  51.881  1.00  0.00     0.086 C 
HETATM    5  C8  UNL     1      23.238   5.285  50.927  1.00  0.00    -0.040 A 
HETATM    6  C9  UNL     1      24.182   6.300  51.044  1.00  0.00     0.027 A 
HETATM    7  C10 UNL     1      25.319   6.242  50.253  1.00  0.00     0.116 A 
HETATM    8  N3  UNL     1      25.583   5.259  49.366  1.00  0.00    -0.272 NA
HETATM    9  C11 UNL     1      24.704   4.218  49.191  1.00  0.00     0.129 A 
HETATM   10  C12 UNL     1      23.553   4.296  50.002  1.00  0.00    -0.001 A 
HETATM   11  C13 UNL     1      22.806   3.086  49.581  1.00  0.00    -0.014 A 
HETATM   12  C14 UNL     1      23.044   3.076  48.190  1.00  0.00     0.013 A 
HETATM   13  C15 UNL     1      22.467   1.994  47.506  1.00  0.00     0.001 A 
HETATM   14  C16 UNL     1      21.729   1.048  48.222  1.00  0.00     0.001 A 
HETATM   15  C17 UNL     1      21.533   1.127  49.602  1.00  0.00     0.012 A 
HETATM   16  C18 UNL     1      22.078   2.167  50.322  1.00  0.00    -0.004 A 
ENDROOT
BRANCH   1  17
HETATM   17  N1  UNL     1      22.696   1.127  52.441  1.00  0.00    -0.370 N 
HETATM   18  C4  UNL     1      22.202   0.078  53.444  1.00  0.00     0.121 A 
HETATM   19  C3  UNL     1      22.836  -0.889  54.344  1.00  0.00     0.054 A 
HETATM   20  C2  UNL     1      23.789  -0.276  53.742  1.00  0.00    -0.045 A 
HETATM   21  C1  UNL     1      24.568   0.248  53.227  1.00  0.00    -0.045 A 
HETATM   22  C20 UNL     1      25.474   0.884  52.604  1.00  0.00     0.054 A 
HETATM   23  C19 UNL     1      24.181   1.412  52.135  1.00  0.00     0.121 A 
ENDBRANCH   1  17
TORSDOF 1
ENDMDL
MODEL 4
REMARK VINA RESULT:      -7.9      2.571      3.704
REMARK  1 active torsions:
REMARK  status: ('A' for Active; 'I' for Inactive)
REMARK    1  A    between atoms: N1_5  and  C5_6 
ROOT
HETATM    1  C5  UNL     1      23.610   2.878  52.942  1.00  0.00     0.238 C 
HETATM    2  N2  UNL     1      23.203   4.195  52.662  1.00  0.00    -0.275 NA
HETATM    3  C6  UNL     1      22.435   4.787  51.857  1.00  0.00     0.091 C 
HETATM    4  C7  UNL     1      21.466   4.819  50.736  1.00  0.00     0.086 C 
HETATM    5  C8  UNL     1      21.464   3.587  49.905  1.00  0.00    -0.040 A 
HETATM    6  C9  UNL     1      21.208   3.928  48.580  1.00  0.00     0.027 A 
HETATM    7  C10 UNL     1      21.185   2.920  47.628  1.00  0.00     0.116 A 
HETATM    8  N3  UNL     1      21.396   1.614  47.895  1.00  0.00    -0.272 NA
HETATM    9  C11 UNL     1      21.656   1.193  49.177  1.00  0.00     0.129 A 
HETATM   10  C12 UNL     1      21.673   2.231  50.130  1.00  0.00    -0.001 A 
HETATM   11  C13 UNL     1      21.945   1.485  51.383  1.00  0.00    -0.014 A 
HETATM   12  C14 UNL     1      21.169   0.321  51.192  1.00  0.00     0.013 A 
HETATM   13  C15 UNL     1      21.254  -0.614  52.236  1.00  0.00     0.001 A 
HETATM   14  C16 UNL     1      22.063  -0.335  53.340  1.00  0.00     0.001 A 
HETATM   15  C17 UNL     1      22.801   0.844  53.460  1.00  0.00     0.012 A 
HETATM   16  C18 UNL     1      22.755   1.795  52.464  1.00  0.00    -0.004 A 
ENDROOT
BRANCH   1  17
HETATM   17  N1  UNL     1      25.027   2.685  52.426  1.00  0.00    -0.370 N 
HETATM   18  C4  UNL     1      25.286   2.979  50.944  1.00  0.00     0.121 A 
HETATM   19  C3  UNL     1      26.452   2.931  50.056  1.00  0.00     0.054 A 
HETATM   20  C2  UNL     1      26.864   2.566  51.215  1.00  0.00    -0.045 A 
HETATM   21  C1  UNL     1      27.186   2.265  52.190  1.00  0.00    -0.045 A 
HETATM   22  C20 UNL     1      27.545   1.911  53.357  1.00  0.00     0.054 A 
HETATM   23  C19 UNL     1      26.104   2.213  53.425  1.00  0.00     0.121 A 
ENDBRANCH   1  17
TORSDOF 1
ENDMDL
MODEL 5
REMARK VINA RESULT:      -7.8      2.666      6.001
REMARK  1 active torsions:
REMARK  status: ('A' for Active; 'I' for Inactive)
REMARK    1  A    between atoms: N1_5  and  C5_6 
ROOT
HETATM    1  C5  UNL     1      24.703   2.956  50.260  1.00  0.00     0.238 C 
HETATM    2  N2  UNL     1      25.600   2.282  51.108  1.00  0.00    -0.275 NA
HETATM    3  C6  UNL     1      25.571   1.340  51.944  1.00  0.00     0.091 C 
HETATM    4  C7  UNL     1      24.883   0.273  52.710  1.00  0.00     0.086 C 
HETATM    5  C8  UNL     1      23.405   0.419  52.754  1.00  0.00    -0.040 A 
HETATM    6  C9  UNL     1      22.936  -0.028  53.985  1.00  0.00     0.027 A 
HETATM    7  C10 UNL     1      21.576   0.043  54.242  1.00  0.00     0.116 A 
HETATM    8  N3  UNL     1      20.659   0.522  53.374  1.00  0.00    -0.272 NA
HETATM    9  C11 UNL     1      21.039   0.985  52.138  1.00  0.00     0.129 A 
HETATM   10  C12 UNL     1      22.425   0.902  51.894  1.00  0.00    -0.001 A 
HETATM   11  C13 UNL     1      22.520   1.434  50.513  1.00  0.00    -0.014 A 
HETATM   12  C14 UNL     1      21.369   0.876  49.916  1.00  0.00     0.013 A 
HETATM   13  C15 UNL     1      21.173   1.241  48.573  1.00  0.00     0.001 A 
HETATM   14  C16 UNL     1      22.094   2.090  47.954  1.00  0.00     0.001 A 
HETATM   15  C17 UNL     1      23.214   2.601  48.612  1.00  0.00     0.012 A 
HETATM   16  C18 UNL     1      23.453   2.277  49.929  1.00  0.00    -0.004 A 
ENDROOT
BRANCH   1  17
HETATM   17  N1  UNL     1      24.406   4.324  50.853  1.00  0.00    -0.370 N 
HETATM   18  C4  UNL     1      23.445   4.386  52.046  1.00  0.00     0.121 A 
HETATM   19  C3  UNL     1      22.899   5.449  52.896  1.00  0.00     0.054 A 
HETATM   20  C2  UNL     1      23.670   6.024  52.046  1.00  0.00    -0.045 A 
HETATM   21  C1  UNL     1      24.317   6.483  51.328  1.00  0.00    -0.045 A 
HETATM   22  C20 UNL     1      25.091   7.005  50.466  1.00  0.00     0.054 A 
HETATM   23  C19 UNL     1      25.092   5.552  50.218  1.00  0.00     0.121 A 
ENDBRANCH   1  17
TORSDOF 1
ENDMDL
MODEL 6
REMARK VINA RESULT:      -7.7      3.322      6.687
REMARK  1 active torsions:
REMARK  status: ('A' for Active; 'I' for Inactive)
REMARK    1  A    between atoms: N1_5  and  C5_6 
ROOT
HETATM    1  C5  UNL     1      21.097   0.570  50.349  1.00  0.00     0.238 C 
HETATM    2  N2  UNL     1      21.260   0.863  48.983  1.00  0.00    -0.275 NA
HETATM    3  C6  UNL     1      21.968   1.619  48.266  1.00  0.00     0.091 C 
HETATM    4  C7  UNL     1      23.013   2.651  48.062  1.00  0.00     0.086 C 
HETATM    5  C8  UNL     1      23.336   3.432  49.284  1.00  0.00    -0.040 A 
HETATM    6  C9  UNL     1      23.642   4.740  48.924  1.00  0.00     0.027 A 
HETATM    7  C10 UNL     1      23.953   5.648  49.925  1.00  0.00     0.116 A 
HETATM    8  N3  UNL     1      23.980   5.352  51.242  1.00  0.00    -0.272 NA
HETATM    9  C11 UNL     1      23.689   4.083  51.682  1.00  0.00     0.129 A 
HETATM   10  C12 UNL     1      23.378   3.175  50.650  1.00  0.00    -0.001 A 
HETATM   11  C13 UNL     1      23.143   1.924  51.411  1.00  0.00    -0.014 A 
HETATM   12  C14 UNL     1      24.147   2.001  52.399  1.00  0.00     0.013 A 
HETATM   13  C15 UNL     1      24.151   0.934  53.313  1.00  0.00     0.001 A 
HETATM   14  C16 UNL     1      23.203  -0.083  53.179  1.00  0.00     0.001 A 
HETATM   15  C17 UNL     1      22.239  -0.092  52.170  1.00  0.00     0.012 A 
HETATM   16  C18 UNL     1      22.189   0.930  51.248  1.00  0.00    -0.004 A 
ENDROOT
BRANCH   1  17
HETATM   17  N1  UNL     1      19.800   1.202  50.832  1.00  0.00    -0.370 N 
HETATM   18  C4  UNL     1      18.635   0.262  51.161  1.00  0.00     0.121 A 
HETATM   19  C3  UNL     1      17.259   0.429  51.638  1.00  0.00     0.054 A 
HETATM   20  C2  UNL     1      17.758   1.607  51.554  1.00  0.00    -0.045 A 
HETATM   21  C1  UNL     1      18.195   2.581  51.476  1.00  0.00    -0.045 A 
HETATM   22  C20 UNL     1      18.736   3.727  51.376  1.00  0.00     0.054 A 
HETATM   23  C19 UNL     1      19.747   2.739  50.961  1.00  0.00     0.121 A 
ENDBRANCH   1  17
TORSDOF 1
ENDMDL
MODEL 7
REMARK VINA RESULT:      -7.5     10.378     12.937
REMARK  1 active torsions:
REMARK  status: ('A' for Active; 'I' for Inactive)
REMARK    1  A    between atoms: N1_5  and  C5_6 
ROOT
HETATM    1  C5  UNL     1      31.843   8.186  46.437  1.00  0.00     0.238 C 
HETATM    2  N2  UNL     1      32.632   8.479  47.563  1.00  0.00    -0.275 NA
HETATM    3  C6  UNL     1      33.625   7.987  48.165  1.00  0.00     0.091 C 
HETATM    4  C7  UNL     1      34.689   6.971  48.349  1.00  0.00     0.086 C 
HETATM    5  C8  UNL     1      34.443   5.701  47.619  1.00  0.00    -0.040 A 
HETATM    6  C9  UNL     1      34.938   4.638  48.369  1.00  0.00     0.027 A 
HETATM    7  C10 UNL     1      34.789   3.352  47.874  1.00  0.00     0.116 A 
HETATM    8  N3  UNL     1      34.190   3.049  46.703  1.00  0.00    -0.272 NA
HETATM    9  C11 UNL     1      33.673   4.039  45.903  1.00  0.00     0.129 A 
HETATM   10  C12 UNL     1      33.837   5.340  46.421  1.00  0.00    -0.001 A 
HETATM   11  C13 UNL     1      33.221   6.168  45.356  1.00  0.00    -0.014 A 
HETATM   12  C14 UNL     1      33.656   5.498  44.191  1.00  0.00     0.013 A 
HETATM   13  C15 UNL     1      33.190   6.055  42.989  1.00  0.00     0.001 A 
HETATM   14  C16 UNL     1      32.368   7.184  43.033  1.00  0.00     0.001 A 
HETATM   15  C17 UNL     1      31.982   7.794  44.227  1.00  0.00     0.012 A 
HETATM   16  C18 UNL     1      32.409   7.288  45.435  1.00  0.00    -0.004 A 
ENDROOT
BRANCH   1  17
HETATM   17  N1  UNL     1      30.499   7.652  46.909  1.00  0.00    -0.370 N 
HETATM   18  C4  UNL     1      29.259   8.510  46.630  1.00  0.00     0.121 A 
HETATM   19  C3  UNL     1      27.823   8.390  46.895  1.00  0.00     0.054 A 
HETATM   20  C2  UNL     1      28.369   7.333  47.376  1.00  0.00    -0.045 A 
HETATM   21  C1  UNL     1      28.846   6.459  47.769  1.00  0.00    -0.045 A 
HETATM   22  C20 UNL     1      29.435   5.431  48.228  1.00  0.00     0.054 A 
HETATM   23  C19 UNL     1      30.474   6.289  47.631  1.00  0.00     0.121 A 
ENDBRANCH   1  17
TORSDOF 1
ENDMDL
MODEL 8
REMARK VINA RESULT:      -7.4      9.468     12.030
REMARK  1 active torsions:
REMARK  status: ('A' for Active; 'I' for Inactive)
REMARK    1  A    between atoms: N1_5  and  C5_6 
ROOT
HETATM    1  C5  UNL     1      28.442   9.070  46.462  1.00  0.00     0.238 C 
HETATM    2  N2  UNL     1      29.351   9.134  45.390  1.00  0.00    -0.275 NA
HETATM    3  C6  UNL     1      30.375   8.517  44.993  1.00  0.00     0.091 C 
HETATM    4  C7  UNL     1      31.408   7.459  45.106  1.00  0.00     0.086 C 
HETATM    5  C8  UNL     1      31.526   6.873  46.466  1.00  0.00    -0.040 A 
HETATM    6  C9  UNL     1      32.856   6.550  46.712  1.00  0.00     0.027 A 
HETATM    7  C10 UNL     1      33.190   6.006  47.944  1.00  0.00     0.116 A 
HETATM    8  N3  UNL     1      32.306   5.765  48.936  1.00  0.00    -0.272 NA
HETATM    9  C11 UNL     1      30.973   6.056  48.774  1.00  0.00     0.129 A 
HETATM   10  C12 UNL     1      30.654   6.604  47.515  1.00  0.00    -0.001 A 
HETATM   11  C13 UNL     1      29.186   6.783  47.628  1.00  0.00    -0.014 A 
HETATM   12  C14 UNL     1      28.813   5.615  48.328  1.00  0.00     0.013 A 
HETATM   13  C15 UNL     1      27.441   5.519  48.614  1.00  0.00     0.001 A 
HETATM   14  C16 UNL     1      26.583   6.541  48.200  1.00  0.00     0.001 A 
HETATM   15  C17 UNL     1      27.027   7.667  47.506  1.00  0.00     0.012 A 
HETATM   16  C18 UNL     1      28.363   7.813  47.201  1.00  0.00    -0.004 A 
ENDROOT
BRANCH   1  17
HETATM   17  N1  UNL     1      28.735  10.215  47.419  1.00  0.00    -0.370 N 
HETATM   18  C4  UNL     1      27.671  11.310  47.559  1.00  0.00     0.121 A 
HETATM   19  C3  UNL     1      27.538  12.547  48.334  1.00  0.00     0.054 A 
HETATM   20  C2  UNL     1      28.676  12.044  48.647  1.00  0.00    -0.045 A 
HETATM   21  C1  UNL     1      29.621  11.606  48.893  1.00  0.00    -0.045 A 
HETATM   22  C20 UNL     1      30.739  11.067  49.169  1.00  0.00     0.054 A 
HETATM   23  C19 UNL     1      30.075  10.196  48.183  1.00  0.00     0.121 A 
ENDBRANCH   1  17
TORSDOF 1
ENDMDL
MODEL 9
REMARK VINA RESULT:      -7.4      9.222     10.722
REMARK  1 active torsions:
REMARK  status: ('A' for Active; 'I' for Inactive)
REMARK    1  A    between atoms: N1_5  and  C5_6 
ROOT
HETATM    1  C5  UNL     1      30.932   6.055  48.714  1.00  0.00     0.238 C 
HETATM    2  N2  UNL     1      31.730   7.016  49.361  1.00  0.00    -0.275 NA
HETATM    3  C6  UNL     1      31.722   8.260  49.560  1.00  0.00     0.091 C 
HETATM    4  C7  UNL     1      31.140   9.617  49.423  1.00  0.00     0.086 C 
HETATM    5  C8  UNL     1      30.142   9.738  48.330  1.00  0.00    -0.040 A 
HETATM    6  C9  UNL     1      30.234  11.006  47.764  1.00  0.00     0.027 A 
HETATM    7  C10 UNL     1      29.399  11.321  46.703  1.00  0.00     0.116 A 
HETATM    8  N3  UNL     1      28.490  10.475  46.170  1.00  0.00    -0.272 NA
HETATM    9  C11 UNL     1      28.337   9.205  46.670  1.00  0.00     0.129 A 
HETATM   10  C12 UNL     1      29.192   8.905  47.749  1.00  0.00    -0.001 A 
HETATM   11  C13 UNL     1      28.786   7.517  48.078  1.00  0.00    -0.014 A 
HETATM   12  C14 UNL     1      27.387   7.584  47.906  1.00  0.00     0.013 A 
HETATM   13  C15 UNL     1      26.713   6.372  48.127  1.00  0.00     0.001 A 
HETATM   14  C16 UNL     1      27.446   5.239  48.488  1.00  0.00     0.001 A 
HETATM   15  C17 UNL     1      28.833   5.251  48.642  1.00  0.00     0.012 A 
HETATM   16  C18 UNL     1      29.544   6.413  48.436  1.00  0.00    -0.004 A 
ENDROOT
BRANCH   1  17
HETATM   17  N1  UNL     1      31.624   5.633  47.428  1.00  0.00    -0.370 N 
HETATM   18  C4  UNL     1      31.890   6.718  46.377  1.00  0.00     0.121 A 
HETATM   19  C3  UNL     1      32.506   6.758  45.048  1.00  0.00     0.054 A 
HETATM   20  C2  UNL     1      32.578   5.540  45.444  1.00  0.00    -0.045 A 
HETATM   21  C1  UNL     1      32.628   4.530  45.793  1.00  0.00    -0.045 A 
HETATM   22  C20 UNL     1      32.675   3.337  46.231  1.00  0.00     0.054 A 
HETATM   23  C19 UNL     1      32.014   4.148  47.269  1.00  0.00     0.121 A 
ENDBRANCH   1  17
TORSDOF 1
ENDMDL
