MODEL 1
REMARK VINA RESULT:      -7.2      0.000      0.000
REMARK  7 active torsions:
REMARK  status: ('A' for Active; 'I' for Inactive)
REMARK    1  A    between atoms: C2_2  and  O1_3 
REMARK    2  A    between atoms: C2_2  and  C3_4 
REMARK    3  A    between atoms: C5_6  and  C6_7 
REMARK    4  A    between atoms: C7_9  and  N1_10 
REMARK    5  A    between atoms: N1_10  and  C8_11 
REMARK    6  A    between atoms: C14_19  and  C15_20 
REMARK    7  A    between atoms: C15_20  and  O2_21 
ROOT
HETATM    1  C8  UNL     1      22.833   1.652  52.135  1.00  0.00     0.062 A 
HETATM    2  C9  UNL     1      22.146   2.700  51.710  1.00  0.00     0.088 A 
HETATM    3  C10 UNL     1      22.699   3.645  50.796  1.00  0.00     0.103 C 
HETATM    4  N2  UNL     1      23.159   4.394  50.070  1.00  0.00    -0.191 NA
HETATM    5  C11 UNL     1      20.789   2.851  52.220  1.00  0.00     0.135 A 
HETATM    6  N3  UNL     1      20.118   2.120  53.037  1.00  0.00    -0.295 NA
HETATM    7  C12 UNL     1      20.731   0.943  53.587  1.00  0.00     0.189 A 
HETATM    8  C13 UNL     1      22.089   0.807  53.065  1.00  0.00    -0.012 A 
HETATM    9  C14 UNL     1      22.678  -0.284  53.565  1.00  0.00     0.010 C 
ENDROOT
BRANCH   1  10
HETATM   10  N1  UNL     1      24.145   1.395  51.721  1.00  0.00    -0.363 N 
HETATM   11  H9  UNL     1      24.120   0.611  51.008  1.00  0.00     0.165 HD
BRANCH  10  12
HETATM   12  C7  UNL     1      25.334   2.014  52.122  1.00  0.00     0.112 C 
HETATM   13  C6  UNL     1      26.457   1.337  52.300  1.00  0.00     0.050 C 
HETATM   14 CL1  UNL     1      27.743   2.410  52.805  1.00  0.00    -0.083 Cl
BRANCH  13  15
HETATM   15  C5  UNL     1      26.500  -0.098  52.082  1.00  0.00     0.034 C 
HETATM   16  C3  UNL     1      27.194  -0.979  52.772  1.00  0.00    -0.028 C 
HETATM   17  C4  UNL     1      27.084  -2.425  52.364  1.00  0.00     0.051 C 
BRANCH  16  18
HETATM   18  C2  UNL     1      28.051  -0.641  53.893  1.00  0.00     0.062 C 
HETATM   19  C1  UNL     1      29.359  -0.911  53.746  1.00  0.00     0.051 C 
BRANCH  18  20
HETATM   20  O1  UNL     1      28.565  -0.213  55.100  1.00  0.00    -0.361 OA
HETATM   21  H3  UNL     1      29.554   0.037  55.227  1.00  0.00     0.217 HD
ENDBRANCH  18  20
ENDBRANCH  16  18
ENDBRANCH  13  15
ENDBRANCH  10  12
ENDBRANCH   1  10
BRANCH   9  22
HETATM   22  C15 UNL     1      22.172  -1.297  54.506  1.00  0.00     0.195 C 
BRANCH  22  23
HETATM   23  O2  UNL     1      22.962  -1.458  55.644  1.00  0.00    -0.392 OA
HETATM   24  C16 UNL     1      24.306  -1.205  55.375  1.00  0.00     0.201 C 
ENDBRANCH  22  23
ENDBRANCH   9  22
TORSDOF 7
ENDMDL
MODEL 2
REMARK VINA RESULT:      -7.2      3.044      5.549
REMARK  7 active torsions:
REMARK  status: ('A' for Active; 'I' for Inactive)
REMARK    1  A    between atoms: C2_2  and  O1_3 
REMARK    2  A    between atoms: C2_2  and  C3_4 
REMARK    3  A    between atoms: C5_6  and  C6_7 
REMARK    4  A    between atoms: C7_9  and  N1_10 
REMARK    5  A    between atoms: N1_10  and  C8_11 
REMARK    6  A    between atoms: C14_19  and  C15_20 
REMARK    7  A    between atoms: C15_20  and  O2_21 
ROOT
HETATM    1  C8  UNL     1      24.810   0.885  52.677  1.00  0.00     0.062 A 
HETATM    2  C9  UNL     1      26.098   1.186  52.645  1.00  0.00     0.088 A 
HETATM    3  C10 UNL     1      26.632   2.120  51.707  1.00  0.00     0.103 C 
HETATM    4  N2  UNL     1      27.042   2.864  50.947  1.00  0.00    -0.191 NA
HETATM    5  C11 UNL     1      26.957   0.518  53.613  1.00  0.00     0.135 A 
HETATM    6  N3  UNL     1      26.675  -0.342  54.526  1.00  0.00    -0.295 NA
HETATM    7  C12 UNL     1      25.313  -0.771  54.686  1.00  0.00     0.189 A 
HETATM    8  C13 UNL     1      24.467  -0.091  53.708  1.00  0.00    -0.012 A 
HETATM    9  C14 UNL     1      23.193  -0.476  53.840  1.00  0.00     0.010 C 
ENDROOT
BRANCH   1  10
HETATM   10  N1  UNL     1      23.882   1.457  51.800  1.00  0.00    -0.363 N 
HETATM   11  H9  UNL     1      24.098   1.116  50.820  1.00  0.00     0.165 HD
BRANCH  10  12
HETATM   12  C7  UNL     1      22.826   2.332  52.079  1.00  0.00     0.112 C 
HETATM   13  C6  UNL     1      22.638   3.451  51.400  1.00  0.00     0.050 C 
HETATM   14 CL1  UNL     1      21.239   4.307  52.009  1.00  0.00    -0.083 Cl
BRANCH  13  15
HETATM   15  C5  UNL     1      23.534   3.822  50.319  1.00  0.00     0.034 C 
HETATM   16  C3  UNL     1      24.230   4.936  50.219  1.00  0.00    -0.028 C 
HETATM   17  C4  UNL     1      25.099   5.106  49.001  1.00  0.00     0.051 C 
BRANCH  16  18
HETATM   18  C2  UNL     1      24.207   6.000  51.206  1.00  0.00     0.062 C 
HETATM   19  C1  UNL     1      23.586   7.135  50.845  1.00  0.00     0.051 C 
BRANCH  18  20
HETATM   20  O1  UNL     1      24.363   6.778  52.335  1.00  0.00    -0.361 OA
HETATM   21  H3  UNL     1      24.389   6.384  53.283  1.00  0.00     0.217 HD
ENDBRANCH  18  20
ENDBRANCH  16  18
ENDBRANCH  13  15
ENDBRANCH  10  12
ENDBRANCH   1  10
BRANCH   9  22
HETATM   22  C15 UNL     1      22.575  -1.428  54.776  1.00  0.00     0.195 C 
BRANCH  22  23
HETATM   23  O2  UNL     1      21.219  -1.197  55.007  1.00  0.00    -0.392 OA
HETATM   24  C16 UNL     1      20.765  -0.076  54.314  1.00  0.00     0.201 C 
ENDBRANCH  22  23
ENDBRANCH   9  22
TORSDOF 7
ENDMDL
MODEL 3
REMARK VINA RESULT:      -7.1      2.420      3.840
REMARK  7 active torsions:
REMARK  status: ('A' for Active; 'I' for Inactive)
REMARK    1  A    between atoms: C2_2  and  O1_3 
REMARK    2  A    between atoms: C2_2  and  C3_4 
REMARK    3  A    between atoms: C5_6  and  C6_7 
REMARK    4  A    between atoms: C7_9  and  N1_10 
REMARK    5  A    between atoms: N1_10  and  C8_11 
REMARK    6  A    between atoms: C14_19  and  C15_20 
REMARK    7  A    between atoms: C15_20  and  O2_21 
ROOT
HETATM    1  C8  UNL     1      22.550   0.060  52.709  1.00  0.00     0.062 A 
HETATM    2  C9  UNL     1      21.791  -0.499  53.637  1.00  0.00     0.088 A 
HETATM    3  C10 UNL     1      22.349  -1.127  54.790  1.00  0.00     0.103 C 
HETATM    4  N2  UNL     1      22.811  -1.630  55.703  1.00  0.00    -0.191 NA
HETATM    5  C11 UNL     1      20.349  -0.449  53.430  1.00  0.00     0.135 A 
HETATM    6  N3  UNL     1      19.660   0.061  52.473  1.00  0.00    -0.295 NA
HETATM    7  C12 UNL     1      20.344   0.706  51.386  1.00  0.00     0.189 A 
HETATM    8  C13 UNL     1      21.787   0.647  51.610  1.00  0.00    -0.012 A 
HETATM    9  C14 UNL     1      22.443   1.243  50.609  1.00  0.00     0.010 C 
ENDROOT
BRANCH   1  10
HETATM   10  N1  UNL     1      23.946   0.078  52.790  1.00  0.00    -0.363 N 
HETATM   11  H9  UNL     1      24.269  -0.859  53.166  1.00  0.00     0.165 HD
BRANCH  10  12
HETATM   12  C7  UNL     1      24.837   1.104  52.455  1.00  0.00     0.112 C 
HETATM   13  C6  UNL     1      26.107   0.870  52.167  1.00  0.00     0.050 C 
HETATM   14 CL1  UNL     1      26.936   2.367  51.800  1.00  0.00    -0.083 Cl
BRANCH  13  15
HETATM   15  C5  UNL     1      26.636  -0.482  52.187  1.00  0.00     0.034 C 
HETATM   16  C3  UNL     1      27.572  -0.950  52.986  1.00  0.00    -0.028 C 
HETATM   17  C4  UNL     1      27.964  -2.396  52.826  1.00  0.00     0.051 C 
BRANCH  16  18
HETATM   18  C2  UNL     1      28.243  -0.161  54.002  1.00  0.00     0.062 C 
HETATM   19  C1  UNL     1      29.515   0.189  53.741  1.00  0.00     0.051 C 
BRANCH  18  20
HETATM   20  O1  UNL     1      28.575   0.559  55.132  1.00  0.00    -0.361 OA
HETATM   21  H3  UNL     1      29.531   0.599  55.505  1.00  0.00     0.217 HD
ENDBRANCH  18  20
ENDBRANCH  16  18
ENDBRANCH  13  15
ENDBRANCH  10  12
ENDBRANCH   1  10
BRANCH   9  22
HETATM   22  C15 UNL     1      21.937   1.906  49.396  1.00  0.00     0.195 C 
BRANCH  22  23
HETATM   23  O2  UNL     1      22.917   2.581  48.669  1.00  0.00    -0.392 OA
HETATM   24  C16 UNL     1      23.870   3.159  49.507  1.00  0.00     0.201 C 
ENDBRANCH  22  23
ENDBRANCH   9  22
TORSDOF 7
ENDMDL
MODEL 4
REMARK VINA RESULT:      -7.0      2.934      5.610
REMARK  7 active torsions:
REMARK  status: ('A' for Active; 'I' for Inactive)
REMARK    1  A    between atoms: C2_2  and  O1_3 
REMARK    2  A    between atoms: C2_2  and  C3_4 
REMARK    3  A    between atoms: C5_6  and  C6_7 
REMARK    4  A    between atoms: C7_9  and  N1_10 
REMARK    5  A    between atoms: N1_10  and  C8_11 
REMARK    6  A    between atoms: C14_19  and  C15_20 
REMARK    7  A    between atoms: C15_20  and  O2_21 
ROOT
HETATM    1  C8  UNL     1      25.480   0.967  53.104  1.00  0.00     0.062 A 
HETATM    2  C9  UNL     1      26.637   0.987  53.744  1.00  0.00     0.088 A 
HETATM    3  C10 UNL     1      27.715   1.824  53.328  1.00  0.00     0.103 C 
HETATM    4  N2  UNL     1      28.568   2.495  52.978  1.00  0.00    -0.191 NA
HETATM    5  C11 UNL     1      26.767   0.112  54.902  1.00  0.00     0.135 A 
HETATM    6  N3  UNL     1      25.927  -0.705  55.429  1.00  0.00    -0.295 NA
HETATM    7  C12 UNL     1      24.622  -0.840  54.844  1.00  0.00     0.189 A 
HETATM    8  C13 UNL     1      24.509   0.044  53.687  1.00  0.00    -0.012 A 
HETATM    9  C14 UNL     1      23.300  -0.066  53.127  1.00  0.00     0.010 C 
ENDROOT
BRANCH   1  10
HETATM   10  N1  UNL     1      25.229   1.759  51.978  1.00  0.00    -0.363 N 
HETATM   11  H9  UNL     1      25.471   1.195  51.114  1.00  0.00     0.165 HD
BRANCH  10  12
HETATM   12  C7  UNL     1      24.744   3.070  51.912  1.00  0.00     0.112 C 
HETATM   13  C6  UNL     1      23.681   3.395  51.194  1.00  0.00     0.050 C 
HETATM   14 CL1  UNL     1      23.354   5.108  51.328  1.00  0.00    -0.083 Cl
BRANCH  13  15
HETATM   15  C5  UNL     1      22.964   2.386  50.434  1.00  0.00     0.034 C 
HETATM   16  C3  UNL     1      21.735   1.966  50.647  1.00  0.00    -0.028 C 
HETATM   17  C4  UNL     1      21.192   0.905  49.725  1.00  0.00     0.051 C 
BRANCH  16  18
HETATM   18  C2  UNL     1      20.879   2.459  51.711  1.00  0.00     0.062 C 
HETATM   19  C1  UNL     1      19.943   3.356  51.355  1.00  0.00     0.051 C 
BRANCH  18  20
HETATM   20  O1  UNL     1      20.260   2.714  52.917  1.00  0.00    -0.361 OA
HETATM   21  H3  UNL     1      20.697   2.504  53.823  1.00  0.00     0.217 HD
ENDBRANCH  18  20
ENDBRANCH  16  18
ENDBRANCH  13  15
ENDBRANCH  10  12
ENDBRANCH   1  10
BRANCH   9  22
HETATM   22  C15 UNL     1      22.147  -0.903  53.499  1.00  0.00     0.195 C 
BRANCH  22  23
HETATM   23  O2  UNL     1      21.061  -0.183  53.995  1.00  0.00    -0.392 OA
HETATM   24  C16 UNL     1      19.851  -0.686  53.519  1.00  0.00     0.201 C 
ENDBRANCH  22  23
ENDBRANCH   9  22
TORSDOF 7
ENDMDL
MODEL 5
REMARK VINA RESULT:      -7.0      2.498      4.079
REMARK  7 active torsions:
REMARK  status: ('A' for Active; 'I' for Inactive)
REMARK    1  A    between atoms: C2_2  and  O1_3 
REMARK    2  A    between atoms: C2_2  and  C3_4 
REMARK    3  A    between atoms: C5_6  and  C6_7 
REMARK    4  A    between atoms: C7_9  and  N1_10 
REMARK    5  A    between atoms: N1_10  and  C8_11 
REMARK    6  A    between atoms: C14_19  and  C15_20 
REMARK    7  A    between atoms: C15_20  and  O2_21 
ROOT
HETATM    1  C8  UNL     1      22.966   0.855  53.360  1.00  0.00     0.062 A 
HETATM    2  C9  UNL     1      21.816   0.299  53.704  1.00  0.00     0.088 A 
HETATM    3  C10 UNL     1      21.759  -0.896  54.482  1.00  0.00     0.103 C 
HETATM    4  N2  UNL     1      21.731  -1.855  55.098  1.00  0.00    -0.191 NA
HETATM    5  C11 UNL     1      20.600   0.962  53.252  1.00  0.00     0.135 A 
HETATM    6  N3  UNL     1      20.441   2.029  52.554  1.00  0.00    -0.295 NA
HETATM    7  C12 UNL     1      21.601   2.748  52.102  1.00  0.00     0.189 A 
HETATM    8  C13 UNL     1      22.809   2.070  52.565  1.00  0.00    -0.012 A 
HETATM    9  C14 UNL     1      23.901   2.725  52.156  1.00  0.00     0.010 C 
ENDROOT
BRANCH   1  10
HETATM   10  N1  UNL     1      24.203   0.316  53.731  1.00  0.00    -0.363 N 
HETATM   11  H9  UNL     1      24.585   0.885  54.539  1.00  0.00     0.165 HD
BRANCH  10  12
HETATM   12  C7  UNL     1      24.888  -0.777  53.187  1.00  0.00     0.112 C 
HETATM   13  C6  UNL     1      26.074  -0.653  52.615  1.00  0.00     0.050 C 
HETATM   14 CL1  UNL     1      26.640  -2.206  52.040  1.00  0.00    -0.083 Cl
BRANCH  13  15
HETATM   15  C5  UNL     1      26.723   0.643  52.526  1.00  0.00     0.034 C 
HETATM   16  C3  UNL     1      27.790   1.037  53.191  1.00  0.00    -0.028 C 
HETATM   17  C4  UNL     1      28.291   2.434  52.936  1.00  0.00     0.051 C 
BRANCH  16  18
HETATM   18  C2  UNL     1      28.503   0.210  54.147  1.00  0.00     0.062 C 
HETATM   19  C1  UNL     1      29.641  -0.358  53.711  1.00  0.00     0.051 C 
BRANCH  18  20
HETATM   20  O1  UNL     1      28.918  -0.485  55.264  1.00  0.00    -0.361 OA
HETATM   21  H3  UNL     1      28.543  -0.303  56.203  1.00  0.00     0.217 HD
ENDBRANCH  18  20
ENDBRANCH  16  18
ENDBRANCH  13  15
ENDBRANCH  10  12
ENDBRANCH   1  10
BRANCH   9  22
HETATM   22  C15 UNL     1      24.036   3.954  51.356  1.00  0.00     0.195 C 
BRANCH  22  23
HETATM   23  O2  UNL     1      24.498   3.738  50.059  1.00  0.00    -0.392 OA
HETATM   24  C16 UNL     1      25.821   3.300  50.052  1.00  0.00     0.201 C 
ENDBRANCH  22  23
ENDBRANCH   9  22
TORSDOF 7
ENDMDL
MODEL 6
REMARK VINA RESULT:      -6.8      3.149      4.644
REMARK  7 active torsions:
REMARK  status: ('A' for Active; 'I' for Inactive)
REMARK    1  A    between atoms: C2_2  and  O1_3 
REMARK    2  A    between atoms: C2_2  and  C3_4 
REMARK    3  A    between atoms: C5_6  and  C6_7 
REMARK    4  A    between atoms: C7_9  and  N1_10 
REMARK    5  A    between atoms: N1_10  and  C8_11 
REMARK    6  A    between atoms: C14_19  and  C15_20 
REMARK    7  A    between atoms: C15_20  and  O2_21 
ROOT
HETATM    1  C8  UNL     1      20.858  -0.114  52.576  1.00  0.00     0.062 A 
HETATM    2  C9  UNL     1      20.554  -0.901  53.595  1.00  0.00     0.088 A 
HETATM    3  C10 UNL     1      21.535  -1.327  54.539  1.00  0.00     0.103 C 
HETATM    4  N2  UNL     1      22.334  -1.663  55.280  1.00  0.00    -0.191 NA
HETATM    5  C11 UNL     1      19.163  -1.319  53.715  1.00  0.00     0.135 A 
HETATM    6  N3  UNL     1      18.144  -1.049  52.981  1.00  0.00    -0.295 NA
HETATM    7  C12 UNL     1      18.315  -0.204  51.831  1.00  0.00     0.189 A 
HETATM    8  C13 UNL     1      19.713   0.206  51.727  1.00  0.00    -0.012 A 
HETATM    9  C14 UNL     1      19.894   0.995  50.663  1.00  0.00     0.010 C 
ENDROOT
BRANCH   1  10
HETATM   10  N1  UNL     1      22.157   0.355  52.350  1.00  0.00    -0.363 N 
HETATM   11  H9  UNL     1      22.691  -0.389  51.817  1.00  0.00     0.165 HD
BRANCH  10  12
HETATM   12  C7  UNL     1      22.732   1.574  52.724  1.00  0.00     0.112 C 
HETATM   13  C6  UNL     1      24.027   1.701  52.963  1.00  0.00     0.050 C 
HETATM   14 CL1  UNL     1      24.408   3.349  53.410  1.00  0.00    -0.083 Cl
BRANCH  13  15
HETATM   15  C5  UNL     1      24.918   0.559  52.844  1.00  0.00     0.034 C 
HETATM   16  C3  UNL     1      26.187   0.584  52.496  1.00  0.00    -0.028 C 
HETATM   17  C4  UNL     1      26.919  -0.732  52.440  1.00  0.00     0.051 C 
BRANCH  16  18
HETATM   18  C2  UNL     1      26.916   1.794  52.165  1.00  0.00     0.062 C 
HETATM   19  C1  UNL     1      27.872   2.170  53.032  1.00  0.00     0.051 C 
BRANCH  18  20
HETATM   20  O1  UNL     1      27.399   2.943  51.572  1.00  0.00    -0.361 OA
HETATM   21  H3  UNL     1      27.594   3.011  50.566  1.00  0.00     0.217 HD
ENDBRANCH  18  20
ENDBRANCH  16  18
ENDBRANCH  13  15
ENDBRANCH  10  12
ENDBRANCH   1  10
BRANCH   9  22
HETATM   22  C15 UNL     1      18.936   1.472  49.653  1.00  0.00     0.195 C 
BRANCH  22  23
HETATM   23  O2  UNL     1      19.416   2.517  48.865  1.00  0.00    -0.392 OA
HETATM   24  C16 UNL     1      20.609   3.033  49.369  1.00  0.00     0.201 C 
ENDBRANCH  22  23
ENDBRANCH   9  22
TORSDOF 7
ENDMDL
MODEL 7
REMARK VINA RESULT:      -6.7      3.466      5.413
REMARK  7 active torsions:
REMARK  status: ('A' for Active; 'I' for Inactive)
REMARK    1  A    between atoms: C2_2  and  O1_3 
REMARK    2  A    between atoms: C2_2  and  C3_4 
REMARK    3  A    between atoms: C5_6  and  C6_7 
REMARK    4  A    between atoms: C7_9  and  N1_10 
REMARK    5  A    between atoms: N1_10  and  C8_11 
REMARK    6  A    between atoms: C14_19  and  C15_20 
REMARK    7  A    between atoms: C15_20  and  O2_21 
ROOT
HETATM    1  C8  UNL     1      21.937  -0.214  52.600  1.00  0.00     0.062 A 
HETATM    2  C9  UNL     1      21.347  -0.750  53.656  1.00  0.00     0.088 A 
HETATM    3  C10 UNL     1      22.095  -1.283  54.748  1.00  0.00     0.103 C 
HETATM    4  N2  UNL     1      22.708  -1.711  55.609  1.00  0.00    -0.191 NA
HETATM    5  C11 UNL     1      19.891  -0.773  53.658  1.00  0.00     0.135 A 
HETATM    6  N3  UNL     1      19.048  -0.350  52.786  1.00  0.00    -0.295 NA
HETATM    7  C12 UNL     1      19.536   0.258  51.579  1.00  0.00     0.189 A 
HETATM    8  C13 UNL     1      20.997   0.274  51.594  1.00  0.00    -0.012 A 
HETATM    9  C14 UNL     1      21.473   0.837  50.479  1.00  0.00     0.010 C 
ENDROOT
BRANCH   1  10
HETATM   10  N1  UNL     1      23.329  -0.132  52.476  1.00  0.00    -0.363 N 
HETATM   11  H9  UNL     1      23.625  -0.728  51.652  1.00  0.00     0.165 HD
BRANCH  10  12
HETATM   12  C7  UNL     1      24.243   0.585  53.256  1.00  0.00     0.112 C 
HETATM   13  C6  UNL     1      24.941   1.599  52.772  1.00  0.00     0.050 C 
HETATM   14 CL1  UNL     1      25.988   2.264  54.006  1.00  0.00    -0.083 Cl
BRANCH  13  15
HETATM   15  C5  UNL     1      24.783   2.016  51.390  1.00  0.00     0.034 C 
HETATM   16  C3  UNL     1      24.311   3.169  50.964  1.00  0.00    -0.028 C 
HETATM   17  C4  UNL     1      24.238   3.384  49.475  1.00  0.00     0.051 C 
BRANCH  16  18
HETATM   18  C2  UNL     1      23.861   4.237  51.839  1.00  0.00     0.062 C 
HETATM   19  C1  UNL     1      22.550   4.251  52.135  1.00  0.00     0.051 C 
BRANCH  18  20
HETATM   20  O1  UNL     1      23.770   5.341  52.661  1.00  0.00    -0.361 OA
HETATM   21  H3  UNL     1      23.590   6.287  52.304  1.00  0.00     0.217 HD
ENDBRANCH  18  20
ENDBRANCH  16  18
ENDBRANCH  13  15
ENDBRANCH  10  12
ENDBRANCH   1  10
BRANCH   9  22
HETATM   22  C15 UNL     1      20.767   1.405  49.318  1.00  0.00     0.195 C 
BRANCH  22  23
HETATM   23  O2  UNL     1      20.799   2.797  49.261  1.00  0.00    -0.392 OA
HETATM   24  C16 UNL     1      20.784   3.257  47.945  1.00  0.00     0.201 C 
ENDBRANCH  22  23
ENDBRANCH   9  22
TORSDOF 7
ENDMDL
MODEL 8
REMARK VINA RESULT:      -6.6      2.797      4.827
REMARK  7 active torsions:
REMARK  status: ('A' for Active; 'I' for Inactive)
REMARK    1  A    between atoms: C2_2  and  O1_3 
REMARK    2  A    between atoms: C2_2  and  C3_4 
REMARK    3  A    between atoms: C5_6  and  C6_7 
REMARK    4  A    between atoms: C7_9  and  N1_10 
REMARK    5  A    between atoms: N1_10  and  C8_11 
REMARK    6  A    between atoms: C14_19  and  C15_20 
REMARK    7  A    between atoms: C15_20  and  O2_21 
ROOT
HETATM    1  C8  UNL     1      22.535   1.137  52.884  1.00  0.00     0.062 A 
HETATM    2  C9  UNL     1      21.274   1.223  53.275  1.00  0.00     0.088 A 
HETATM    3  C10 UNL     1      20.391   2.220  52.762  1.00  0.00     0.103 C 
HETATM    4  N2  UNL     1      19.701   3.026  52.346  1.00  0.00    -0.191 NA
HETATM    5  C11 UNL     1      20.820   0.251  54.261  1.00  0.00     0.135 A 
HETATM    6  N3  UNL     1      21.450  -0.709  54.838  1.00  0.00    -0.295 NA
HETATM    7  C12 UNL     1      22.833  -0.931  54.516  1.00  0.00     0.189 A 
HETATM    8  C13 UNL     1      23.270   0.051  53.527  1.00  0.00    -0.012 A 
HETATM    9  C14 UNL     1      24.556  -0.138  53.213  1.00  0.00     0.010 C 
ENDROOT
BRANCH   1  10
HETATM   10  N1  UNL     1      23.092   2.011  51.943  1.00  0.00    -0.363 N 
HETATM   11  H9  UNL     1      23.587   2.789  52.465  1.00  0.00     0.165 HD
BRANCH  10  12
HETATM   12  C7  UNL     1      23.052   1.946  50.546  1.00  0.00     0.112 C 
HETATM   13  C6  UNL     1      23.136   3.026  49.786  1.00  0.00     0.050 C 
HETATM   14 CL1  UNL     1      23.048   2.590  48.094  1.00  0.00    -0.083 Cl
BRANCH  13  15
HETATM   15  C5  UNL     1      23.276   4.343  50.382  1.00  0.00     0.034 C 
HETATM   16  C3  UNL     1      24.396   5.010  50.565  1.00  0.00    -0.028 C 
HETATM   17  C4  UNL     1      24.300   6.369  51.206  1.00  0.00     0.051 C 
BRANCH  16  18
HETATM   18  C2  UNL     1      25.708   4.515  50.188  1.00  0.00     0.062 C 
HETATM   19  C1  UNL     1      26.255   5.056  49.085  1.00  0.00     0.051 C 
BRANCH  18  20
HETATM   20  O1  UNL     1      26.912   3.846  50.113  1.00  0.00    -0.361 OA
HETATM   21  H3  UNL     1      27.472   3.613  50.942  1.00  0.00     0.217 HD
ENDBRANCH  18  20
ENDBRANCH  16  18
ENDBRANCH  13  15
ENDBRANCH  10  12
ENDBRANCH   1  10
BRANCH   9  22
HETATM   22  C15 UNL     1      25.522  -1.137  53.699  1.00  0.00     0.195 C 
BRANCH  22  23
HETATM   23  O2  UNL     1      26.752  -0.600  54.075  1.00  0.00    -0.392 OA
HETATM   24  C16 UNL     1      26.609   0.673  54.626  1.00  0.00     0.201 C 
ENDBRANCH  22  23
ENDBRANCH   9  22
TORSDOF 7
ENDMDL
MODEL 9
REMARK VINA RESULT:      -6.6      3.428      5.900
REMARK  7 active torsions:
REMARK  status: ('A' for Active; 'I' for Inactive)
REMARK    1  A    between atoms: C2_2  and  O1_3 
REMARK    2  A    between atoms: C2_2  and  C3_4 
REMARK    3  A    between atoms: C5_6  and  C6_7 
REMARK    4  A    between atoms: C7_9  and  N1_10 
REMARK    5  A    between atoms: N1_10  and  C8_11 
REMARK    6  A    between atoms: C14_19  and  C15_20 
REMARK    7  A    between atoms: C15_20  and  O2_21 
ROOT
HETATM    1  C8  UNL     1      23.532  -0.024  53.516  1.00  0.00     0.062 A 
HETATM    2  C9  UNL     1      24.271  -0.619  54.438  1.00  0.00     0.088 A 
HETATM    3  C10 UNL     1      25.686  -0.444  54.499  1.00  0.00     0.103 C 
HETATM    4  N2  UNL     1      26.817  -0.298  54.529  1.00  0.00    -0.191 NA
HETATM    5  C11 UNL     1      23.576  -1.467  55.396  1.00  0.00     0.135 A 
HETATM    6  N3  UNL     1      22.328  -1.750  55.509  1.00  0.00    -0.295 NA
HETATM    7  C12 UNL     1      21.395  -1.179  54.578  1.00  0.00     0.189 A 
HETATM    8  C13 UNL     1      22.108  -0.331  53.626  1.00  0.00    -0.012 A 
HETATM    9  C14 UNL     1      21.257   0.211  52.749  1.00  0.00     0.010 C 
ENDROOT
BRANCH   1  10
HETATM   10  N1  UNL     1      24.079   0.815  52.539  1.00  0.00    -0.363 N 
HETATM   11  H9  UNL     1      24.523   0.209  51.791  1.00  0.00     0.165 HD
BRANCH  10  12
HETATM   12  C7  UNL     1      24.085   2.213  52.479  1.00  0.00     0.112 C 
HETATM   13  C6  UNL     1      23.650   2.876  51.420  1.00  0.00     0.050 C 
HETATM   14 CL1  UNL     1      23.803   4.601  51.674  1.00  0.00    -0.083 Cl
BRANCH  13  15
HETATM   15  C5  UNL     1      23.141   2.168  50.259  1.00  0.00     0.034 C 
HETATM   16  C3  UNL     1      21.915   2.219  49.780  1.00  0.00    -0.028 C 
HETATM   17  C4  UNL     1      21.611   1.394  48.557  1.00  0.00     0.051 C 
BRANCH  16  18
HETATM   18  C2  UNL     1      20.849   3.016  50.359  1.00  0.00     0.062 C 
HETATM   19  C1  UNL     1      20.445   4.079  49.643  1.00  0.00     0.051 C 
BRANCH  18  20
HETATM   20  O1  UNL     1      19.858   3.538  51.165  1.00  0.00    -0.361 OA
HETATM   21  H3  UNL     1      20.043   3.909  52.104  1.00  0.00     0.217 HD
ENDBRANCH  18  20
ENDBRANCH  16  18
ENDBRANCH  13  15
ENDBRANCH  10  12
ENDBRANCH   1  10
BRANCH   9  22
HETATM   22  C15 UNL     1      19.796   0.076  52.626  1.00  0.00     0.195 C 
BRANCH  22  23
HETATM   23  O2  UNL     1      19.343   0.000  51.310  1.00  0.00    -0.392 OA
HETATM   24  C16 UNL     1      17.979   0.275  51.221  1.00  0.00     0.201 C 
ENDBRANCH  22  23
ENDBRANCH   9  22
TORSDOF 7
ENDMDL
