MODEL 1
REMARK VINA RESULT:      -8.2      0.000      0.000
REMARK  5 active torsions:
REMARK  status: ('A' for Active; 'I' for Inactive)
REMARK    1  A    between atoms: N1_1  and  C1_2 
REMARK    2  A    between atoms: C10_11  and  C11_12 
REMARK    3  A    between atoms: C11_12  and  O1_13 
REMARK    4  A    between atoms: C14_16  and  N2_17 
REMARK    5  A    between atoms: N2_17  and  C15_18 
ROOT
HETATM    1  C1  UNL     1      23.177   3.167  50.893  1.00  0.00     0.015 C 
HETATM    2  C2  UNL     1      22.475   4.275  50.658  1.00  0.00     0.026 C 
HETATM    3  C3  UNL     1      22.428   5.149  51.839  1.00  0.00     0.014 C 
HETATM    4  C4  UNL     1      23.110   4.937  52.936  1.00  0.00    -0.029 C 
HETATM    5  C5  UNL     1      23.887   3.903  53.057  1.00  0.00     0.001 C 
HETATM    6  C6  UNL     1      23.855   2.800  52.147  1.00  0.00     0.023 C 
HETATM    7  C7  UNL     1      23.172   1.561  52.679  1.00  0.00    -0.001 C 
HETATM    8  C8  UNL     1      22.497   0.831  51.684  1.00  0.00     0.047 C 
HETATM    9  C9  UNL     1      22.041  -0.265  52.579  1.00  0.00    -0.012 C 
HETATM   10  C10 UNL     1      22.031  -0.870  53.812  1.00  0.00    -0.038 C 
HETATM   11  C12 UNL     1      23.535  -0.438  53.733  1.00  0.00     0.007 C 
HETATM   12  C13 UNL     1      24.722   0.106  53.187  1.00  0.00    -0.001 C 
HETATM   13  C14 UNL     1      25.258   0.753  51.959  1.00  0.00     0.108 C 
HETATM   14  C18 UNL     1      25.298   2.257  51.900  1.00  0.00     0.049 C 
ENDROOT
BRANCH   1  15
HETATM   15  N1  UNL     1      23.231   2.324  49.762  1.00  0.00    -0.401 N 
HETATM   16  H1  UNL     1      24.006   1.678  49.477  1.00  0.00     0.156 HD
HETATM   17  H2  UNL     1      22.744   2.007  48.919  1.00  0.00     0.156 HD
ENDBRANCH   1  15
BRANCH  13  18
HETATM   18  N2  UNL     1      26.602   0.190  51.808  1.00  0.00    -0.361 N 
HETATM   19  H15 UNL     1      26.940  -0.245  50.927  1.00  0.00     0.162 HD
BRANCH  18  20
HETATM   20  C15 UNL     1      27.426   0.273  52.945  1.00  0.00     0.166 A 
HETATM   21  N3  UNL     1      27.756  -0.591  53.955  1.00  0.00    -0.236 NA
HETATM   22  C16 UNL     1      28.623   0.004  54.810  1.00  0.00     0.126 A 
HETATM   23  C17 UNL     1      29.188   1.296  54.794  1.00  0.00     0.072 A 
HETATM   24  S1  UNL     1      28.336   1.857  53.238  1.00  0.00    -0.063 SA
ENDBRANCH  18  20
ENDBRANCH  13  18
BRANCH  10  25
HETATM   25  C11 UNL     1      21.937  -1.605  55.076  1.00  0.00     0.202 C 
BRANCH  25  26
HETATM   26  O1  UNL     1      23.164  -1.629  55.786  1.00  0.00    -0.396 OA
HETATM   27  H11 UNL     1      23.197  -0.865  56.417  1.00  0.00     0.209 HD
ENDBRANCH  25  26
ENDBRANCH  10  25
TORSDOF 5
ENDMDL
MODEL 2
REMARK VINA RESULT:      -7.9      3.256      5.785
REMARK  5 active torsions:
REMARK  status: ('A' for Active; 'I' for Inactive)
REMARK    1  A    between atoms: N1_1  and  C1_2 
REMARK    2  A    between atoms: C10_11  and  C11_12 
REMARK    3  A    between atoms: C11_12  and  O1_13 
REMARK    4  A    between atoms: C14_16  and  N2_17 
REMARK    5  A    between atoms: N2_17  and  C15_18 
ROOT
HETATM    1  C1  UNL     1      26.281   1.507  53.580  1.00  0.00     0.015 C 
HETATM    2  C2  UNL     1      26.723   0.602  54.452  1.00  0.00     0.026 C 
HETATM    3  C3  UNL     1      27.062  -0.668  53.793  1.00  0.00     0.014 C 
HETATM    4  C4  UNL     1      27.068  -0.842  52.495  1.00  0.00    -0.029 C 
HETATM    5  C5  UNL     1      26.753   0.124  51.685  1.00  0.00     0.001 C 
HETATM    6  C6  UNL     1      26.130   1.333  52.126  1.00  0.00     0.023 C 
HETATM    7  C7  UNL     1      24.655   1.435  51.813  1.00  0.00    -0.001 C 
HETATM    8  C8  UNL     1      23.929   2.136  52.793  1.00  0.00     0.047 C 
HETATM    9  C9  UNL     1      22.615   2.047  52.103  1.00  0.00    -0.012 C 
HETATM   10  C10 UNL     1      21.863   1.683  51.014  1.00  0.00    -0.038 C 
HETATM   11  C12 UNL     1      23.142   2.230  50.292  1.00  0.00     0.007 C 
HETATM   12  C13 UNL     1      24.418   2.825  50.144  1.00  0.00    -0.001 C 
HETATM   13  C14 UNL     1      25.527   3.430  50.929  1.00  0.00     0.108 C 
HETATM   14  C18 UNL     1      26.685   2.554  51.326  1.00  0.00     0.049 C 
ENDROOT
BRANCH   1  15
HETATM   15  N1  UNL     1      25.957   2.730  54.205  1.00  0.00    -0.401 N 
HETATM   16  H1  UNL     1      25.160   2.929  54.858  1.00  0.00     0.156 HD
HETATM   17  H2  UNL     1      26.209   3.717  54.317  1.00  0.00     0.156 HD
ENDBRANCH   1  15
BRANCH  13  18
HETATM   18  N2  UNL     1      25.983   4.555  50.109  1.00  0.00    -0.361 N 
HETATM   19  H15 UNL     1      26.762   4.482  49.426  1.00  0.00     0.162 HD
BRANCH  18  20
HETATM   20  C15 UNL     1      25.293   5.766  50.303  1.00  0.00     0.166 A 
HETATM   21  N3  UNL     1      24.145   6.121  50.962  1.00  0.00    -0.236 NA
HETATM   22  C16 UNL     1      23.936   7.455  50.842  1.00  0.00     0.126 A 
HETATM   23  C17 UNL     1      24.689   8.447  50.181  1.00  0.00     0.072 A 
HETATM   24  S1  UNL     1      26.014   7.298  49.559  1.00  0.00    -0.063 SA
ENDBRANCH  18  20
ENDBRANCH  13  18
BRANCH  10  25
HETATM   25  C11 UNL     1      20.956   1.336  49.916  1.00  0.00     0.202 C 
BRANCH  25  26
HETATM   26  O1  UNL     1      21.634   1.140  48.688  1.00  0.00    -0.396 OA
HETATM   27  H11 UNL     1      22.579   0.895  48.865  1.00  0.00     0.209 HD
ENDBRANCH  25  26
ENDBRANCH  10  25
TORSDOF 5
ENDMDL
MODEL 3
REMARK VINA RESULT:      -7.8      2.022      5.491
REMARK  5 active torsions:
REMARK  status: ('A' for Active; 'I' for Inactive)
REMARK    1  A    between atoms: N1_1  and  C1_2 
REMARK    2  A    between atoms: C10_11  and  C11_12 
REMARK    3  A    between atoms: C11_12  and  O1_13 
REMARK    4  A    between atoms: C14_16  and  N2_17 
REMARK    5  A    between atoms: N2_17  and  C15_18 
ROOT
HETATM    1  C1  UNL     1      28.144   0.087  53.776  1.00  0.00     0.015 C 
HETATM    2  C2  UNL     1      29.316  -0.411  54.166  1.00  0.00     0.026 C 
HETATM    3  C3  UNL     1      29.528  -1.772  53.653  1.00  0.00     0.014 C 
HETATM    4  C4  UNL     1      28.731  -2.365  52.800  1.00  0.00    -0.029 C 
HETATM    5  C5  UNL     1      27.666  -1.774  52.349  1.00  0.00     0.001 C 
HETATM    6  C6  UNL     1      27.138  -0.580  52.931  1.00  0.00     0.023 C 
HETATM    7  C7  UNL     1      25.903  -0.781  53.779  1.00  0.00    -0.001 C 
HETATM    8  C8  UNL     1      25.830   0.106  54.869  1.00  0.00     0.047 C 
HETATM    9  C9  UNL     1      24.517  -0.378  55.372  1.00  0.00    -0.012 C 
HETATM   10  C10 UNL     1      23.410  -1.179  55.235  1.00  0.00    -0.038 C 
HETATM   11  C12 UNL     1      23.615  -0.741  53.745  1.00  0.00     0.007 C 
HETATM   12  C13 UNL     1      24.182  -0.069  52.636  1.00  0.00    -0.001 C 
HETATM   13  C14 UNL     1      25.250   0.902  52.274  1.00  0.00     0.108 C 
HETATM   14  C18 UNL     1      26.582   0.367  51.820  1.00  0.00     0.049 C 
ENDROOT
BRANCH   1  15
HETATM   15  N1  UNL     1      27.935   1.395  54.262  1.00  0.00    -0.401 N 
HETATM   16  H1  UNL     1      27.315   2.140  53.860  1.00  0.00     0.156 HD
HETATM   17  H2  UNL     1      28.180   2.080  54.983  1.00  0.00     0.156 HD
ENDBRANCH   1  15
BRANCH  13  18
HETATM   18  N2  UNL     1      24.645   1.739  51.236  1.00  0.00    -0.361 N 
HETATM   19  H15 UNL     1      24.535   1.432  50.250  1.00  0.00     0.162 HD
BRANCH  18  20
HETATM   20  C15 UNL     1      24.213   3.011  51.656  1.00  0.00     0.166 A 
HETATM   21  N3  UNL     1      23.637   3.498  52.799  1.00  0.00    -0.236 NA
HETATM   22  C16 UNL     1      23.432   4.833  52.683  1.00  0.00     0.126 A 
HETATM   23  C17 UNL     1      23.716   5.717  51.621  1.00  0.00     0.072 A 
HETATM   24  S1  UNL     1      24.438   4.428  50.489  1.00  0.00    -0.063 SA
ENDBRANCH  18  20
ENDBRANCH  13  18
BRANCH  10  25
HETATM   25  C11 UNL     1      22.187  -1.986  55.204  1.00  0.00     0.202 C 
BRANCH  25  26
HETATM   26  O1  UNL     1      21.022  -1.204  55.005  1.00  0.00    -0.396 OA
HETATM   27  H11 UNL     1      20.993  -0.475  55.676  1.00  0.00     0.209 HD
ENDBRANCH  25  26
ENDBRANCH  10  25
TORSDOF 5
ENDMDL
MODEL 4
REMARK VINA RESULT:      -7.8      1.864      2.174
REMARK  5 active torsions:
REMARK  status: ('A' for Active; 'I' for Inactive)
REMARK    1  A    between atoms: N1_1  and  C1_2 
REMARK    2  A    between atoms: C10_11  and  C11_12 
REMARK    3  A    between atoms: C11_12  and  O1_13 
REMARK    4  A    between atoms: C14_16  and  N2_17 
REMARK    5  A    between atoms: N2_17  and  C15_18 
ROOT
HETATM    1  C1  UNL     1      24.512   3.274  51.062  1.00  0.00     0.015 C 
HETATM    2  C2  UNL     1      24.635   4.449  50.445  1.00  0.00     0.026 C 
HETATM    3  C3  UNL     1      23.981   5.530  51.196  1.00  0.00     0.014 C 
HETATM    4  C4  UNL     1      23.469   5.385  52.393  1.00  0.00    -0.029 C 
HETATM    5  C5  UNL     1      23.498   4.239  53.004  1.00  0.00     0.001 C 
HETATM    6  C6  UNL     1      23.828   3.016  52.341  1.00  0.00     0.023 C 
HETATM    7  C7  UNL     1      22.649   2.118  52.045  1.00  0.00    -0.001 C 
HETATM    8  C8  UNL     1      22.795   1.388  50.851  1.00  0.00     0.047 C 
HETATM    9  C9  UNL     1      21.513   0.645  50.967  1.00  0.00    -0.012 C 
HETATM   10  C10 UNL     1      20.381   0.325  51.675  1.00  0.00    -0.038 C 
HETATM   11  C12 UNL     1      21.432   0.350  52.837  1.00  0.00     0.007 C 
HETATM   12  C13 UNL     1      22.692   0.462  53.471  1.00  0.00    -0.001 C 
HETATM   13  C14 UNL     1      24.133   0.693  53.181  1.00  0.00     0.108 C 
HETATM   14  C18 UNL     1      24.669   2.097  53.282  1.00  0.00     0.049 C 
ENDROOT
BRANCH   1  15
HETATM   15  N1  UNL     1      25.140   2.232  50.348  1.00  0.00    -0.401 N 
HETATM   16  H1  UNL     1      25.669   1.414  50.737  1.00  0.00     0.156 HD
HETATM   17  H2  UNL     1      25.355   1.849  49.423  1.00  0.00     0.156 HD
ENDBRANCH   1  15
BRANCH  13  18
HETATM   18  N2  UNL     1      24.838  -0.200  54.103  1.00  0.00    -0.361 N 
HETATM   19  H15 UNL     1      24.357  -0.921  54.675  1.00  0.00     0.162 HD
BRANCH  18  20
HETATM   20  C15 UNL     1      26.233  -0.024  54.172  1.00  0.00     0.166 A 
HETATM   21  N3  UNL     1      27.083   0.537  55.088  1.00  0.00    -0.236 NA
HETATM   22  C16 UNL     1      28.364   0.427  54.659  1.00  0.00     0.126 A 
HETATM   23  C17 UNL     1      28.894  -0.148  53.484  1.00  0.00     0.072 A 
HETATM   24  S1  UNL     1      27.255  -0.671  52.773  1.00  0.00    -0.063 SA
ENDBRANCH  18  20
ENDBRANCH  13  18
BRANCH  10  25
HETATM   25  C11 UNL     1      19.137  -0.090  52.329  1.00  0.00     0.202 C 
BRANCH  25  26
HETATM   26  O1  UNL     1      19.348  -0.587  53.639  1.00  0.00    -0.396 OA
HETATM   27  H11 UNL     1      18.964  -1.498  53.714  1.00  0.00     0.209 HD
ENDBRANCH  25  26
ENDBRANCH  10  25
TORSDOF 5
ENDMDL
MODEL 5
REMARK VINA RESULT:      -7.6      2.848      5.087
REMARK  5 active torsions:
REMARK  status: ('A' for Active; 'I' for Inactive)
REMARK    1  A    between atoms: N1_1  and  C1_2 
REMARK    2  A    between atoms: C10_11  and  C11_12 
REMARK    3  A    between atoms: C11_12  and  O1_13 
REMARK    4  A    between atoms: C14_16  and  N2_17 
REMARK    5  A    between atoms: N2_17  and  C15_18 
ROOT
HETATM    1  C1  UNL     1      21.704   1.671  50.786  1.00  0.00     0.015 C 
HETATM    2  C2  UNL     1      20.791   0.801  50.356  1.00  0.00     0.026 C 
HETATM    3  C3  UNL     1      20.015   0.232  51.467  1.00  0.00     0.014 C 
HETATM    4  C4  UNL     1      20.108   0.638  52.709  1.00  0.00    -0.029 C 
HETATM    5  C5  UNL     1      20.925   1.589  53.048  1.00  0.00     0.001 C 
HETATM    6  C6  UNL     1      21.956   2.069  52.181  1.00  0.00     0.023 C 
HETATM    7  C7  UNL     1      23.349   1.603  52.535  1.00  0.00    -0.001 C 
HETATM    8  C8  UNL     1      24.172   1.413  51.409  1.00  0.00     0.047 C 
HETATM    9  C9  UNL     1      25.389   1.027  52.172  1.00  0.00    -0.012 C 
HETATM   10  C10 UNL     1      26.039   0.849  53.368  1.00  0.00    -0.038 C 
HETATM   11  C12 UNL     1      25.248   2.166  53.681  1.00  0.00     0.007 C 
HETATM   12  C13 UNL     1      24.404   3.280  53.457  1.00  0.00    -0.001 C 
HETATM   13  C14 UNL     1      23.585   3.937  52.403  1.00  0.00     0.108 C 
HETATM   14  C18 UNL     1      22.116   3.615  52.332  1.00  0.00     0.049 C 
ENDROOT
BRANCH   1  15
HETATM   15  N1  UNL     1      22.451   2.223  49.724  1.00  0.00    -0.401 N 
HETATM   16  H1  UNL     1      22.139   2.937  49.021  1.00  0.00     0.156 HD
HETATM   17  H2  UNL     1      23.350   2.228  49.234  1.00  0.00     0.156 HD
ENDBRANCH   1  15
BRANCH  13  18
HETATM   18  N2  UNL     1      23.794   5.370  52.621  1.00  0.00    -0.361 N 
HETATM   19  H15 UNL     1      23.675   5.828  53.546  1.00  0.00     0.162 HD
BRANCH  18  20
HETATM   20  C15 UNL     1      24.171   6.109  51.484  1.00  0.00     0.166 A 
HETATM   21  N3  UNL     1      24.147   7.438  51.153  1.00  0.00    -0.236 NA
HETATM   22  C16 UNL     1      24.652   7.614  49.908  1.00  0.00     0.126 A 
HETATM   23  C17 UNL     1      25.160   6.680  48.981  1.00  0.00     0.072 A 
HETATM   24  S1  UNL     1      24.890   5.183  50.053  1.00  0.00    -0.063 SA
ENDBRANCH  18  20
ENDBRANCH  13  18
BRANCH  10  25
HETATM   25  C11 UNL     1      26.836   0.617  54.576  1.00  0.00     0.202 C 
BRANCH  25  26
HETATM   26  O1  UNL     1      26.402  -0.517  55.306  1.00  0.00    -0.396 OA
HETATM   27  H11 UNL     1      26.939  -1.308  55.042  1.00  0.00     0.209 HD
ENDBRANCH  25  26
ENDBRANCH  10  25
TORSDOF 5
ENDMDL
MODEL 6
REMARK VINA RESULT:      -7.4      1.701      2.268
REMARK  5 active torsions:
REMARK  status: ('A' for Active; 'I' for Inactive)
REMARK    1  A    between atoms: N1_1  and  C1_2 
REMARK    2  A    between atoms: C10_11  and  C11_12 
REMARK    3  A    between atoms: C11_12  and  O1_13 
REMARK    4  A    between atoms: C14_16  and  N2_17 
REMARK    5  A    between atoms: N2_17  and  C15_18 
ROOT
HETATM    1  C1  UNL     1      22.679   3.804  49.662  1.00  0.00     0.015 C 
HETATM    2  C2  UNL     1      21.934   4.408  48.737  1.00  0.00     0.026 C 
HETATM    3  C3  UNL     1      20.828   5.166  49.339  1.00  0.00     0.014 C 
HETATM    4  C4  UNL     1      20.678   5.346  50.628  1.00  0.00    -0.029 C 
HETATM    5  C5  UNL     1      21.517   4.840  51.481  1.00  0.00     0.001 C 
HETATM    6  C6  UNL     1      22.484   3.849  51.122  1.00  0.00     0.023 C 
HETATM    7  C7  UNL     1      22.150   2.446  51.572  1.00  0.00    -0.001 C 
HETATM    8  C8  UNL     1      22.595   1.456  50.677  1.00  0.00     0.047 C 
HETATM    9  C9  UNL     1      22.131   0.298  51.485  1.00  0.00    -0.012 C 
HETATM   10  C10 UNL     1      21.574  -0.206  52.634  1.00  0.00    -0.038 C 
HETATM   11  C12 UNL     1      22.481   0.917  53.243  1.00  0.00     0.007 C 
HETATM   12  C13 UNL     1      23.427   1.969  53.281  1.00  0.00    -0.001 C 
HETATM   13  C14 UNL     1      24.323   2.772  52.405  1.00  0.00     0.108 C 
HETATM   14  C18 UNL     1      23.823   4.094  51.887  1.00  0.00     0.049 C 
ENDROOT
BRANCH   1  15
HETATM   15  N1  UNL     1      23.745   3.077  49.092  1.00  0.00    -0.401 N 
HETATM   16  H1  UNL     1      24.202   3.229  48.160  1.00  0.00     0.156 HD
HETATM   17  H2  UNL     1      24.400   2.299  49.214  1.00  0.00     0.156 HD
ENDBRANCH   1  15
BRANCH  13  18
HETATM   18  N2  UNL     1      25.541   2.952  53.198  1.00  0.00    -0.361 N 
HETATM   19  H15 UNL     1      25.883   3.881  53.512  1.00  0.00     0.162 HD
BRANCH  18  20
HETATM   20  C15 UNL     1      26.239   1.772  53.516  1.00  0.00     0.166 A 
HETATM   21  N3  UNL     1      26.711   1.221  54.678  1.00  0.00    -0.236 NA
HETATM   22  C16 UNL     1      27.312   0.034  54.418  1.00  0.00     0.126 A 
HETATM   23  C17 UNL     1      27.497  -0.655  53.201  1.00  0.00     0.072 A 
HETATM   24  S1  UNL     1      26.653   0.615  52.134  1.00  0.00    -0.063 SA
ENDBRANCH  18  20
ENDBRANCH  13  18
BRANCH  10  25
HETATM   25  C11 UNL     1      20.987  -0.864  53.806  1.00  0.00     0.202 C 
BRANCH  25  26
HETATM   26  O1  UNL     1      20.461   0.060  54.744  1.00  0.00    -0.396 OA
HETATM   27  H11 UNL     1      20.993   0.024  55.580  1.00  0.00     0.209 HD
ENDBRANCH  25  26
ENDBRANCH  10  25
TORSDOF 5
ENDMDL
MODEL 7
REMARK VINA RESULT:      -7.3      3.051      5.014
REMARK  5 active torsions:
REMARK  status: ('A' for Active; 'I' for Inactive)
REMARK    1  A    between atoms: N1_1  and  C1_2 
REMARK    2  A    between atoms: C10_11  and  C11_12 
REMARK    3  A    between atoms: C11_12  and  O1_13 
REMARK    4  A    between atoms: C14_16  and  N2_17 
REMARK    5  A    between atoms: N2_17  and  C15_18 
ROOT
HETATM    1  C1  UNL     1      23.709   5.281  51.342  1.00  0.00     0.015 C 
HETATM    2  C2  UNL     1      24.111   6.538  51.154  1.00  0.00     0.026 C 
HETATM    3  C3  UNL     1      25.239   6.613  50.214  1.00  0.00     0.014 C 
HETATM    4  C4  UNL     1      25.697   5.591  49.534  1.00  0.00    -0.029 C 
HETATM    5  C5  UNL     1      25.173   4.409  49.661  1.00  0.00     0.001 C 
HETATM    6  C6  UNL     1      24.269   4.071  50.716  1.00  0.00     0.023 C 
HETATM    7  C7  UNL     1      24.871   3.234  51.821  1.00  0.00    -0.001 C 
HETATM    8  C8  UNL     1      24.328   3.517  53.088  1.00  0.00     0.047 C 
HETATM    9  C9  UNL     1      25.118   2.496  53.825  1.00  0.00    -0.012 C 
HETATM   10  C10 UNL     1      26.010   1.452  53.827  1.00  0.00    -0.038 C 
HETATM   11  C12 UNL     1      25.166   1.088  52.558  1.00  0.00     0.007 C 
HETATM   12  C13 UNL     1      24.146   1.186  51.582  1.00  0.00    -0.001 C 
HETATM   13  C14 UNL     1      22.966   2.007  51.199  1.00  0.00     0.108 C 
HETATM   14  C18 UNL     1      23.156   3.110  50.192  1.00  0.00     0.049 C 
ENDROOT
BRANCH   1  15
HETATM   15  N1  UNL     1      22.624   5.201  52.240  1.00  0.00    -0.401 N 
HETATM   16  H1  UNL     1      22.648   4.947  53.258  1.00  0.00     0.156 HD
HETATM   17  H2  UNL     1      21.611   5.297  52.355  1.00  0.00     0.156 HD
ENDBRANCH   1  15
BRANCH  13  18
HETATM   18  N2  UNL     1      21.983   1.032  50.722  1.00  0.00    -0.361 N 
HETATM   19  H15 UNL     1      21.863   0.789  49.719  1.00  0.00     0.162 HD
BRANCH  18  20
HETATM   20  C15 UNL     1      21.193   0.429  51.719  1.00  0.00     0.166 A 
HETATM   21  N3  UNL     1      21.457  -0.144  52.934  1.00  0.00    -0.236 NA
HETATM   22  C16 UNL     1      20.303  -0.567  53.508  1.00  0.00     0.126 A 
HETATM   23  C17 UNL     1      18.970  -0.495  53.051  1.00  0.00     0.072 A 
HETATM   24  S1  UNL     1      19.366   0.351  51.442  1.00  0.00    -0.063 SA
ENDBRANCH  18  20
ENDBRANCH  13  18
BRANCH  10  25
HETATM   25  C11 UNL     1      26.954   0.338  53.959  1.00  0.00     0.202 C 
BRANCH  25  26
HETATM   26  O1  UNL     1      26.691  -0.468  55.094  1.00  0.00    -0.396 OA
HETATM   27  H11 UNL     1      26.554   0.111  55.888  1.00  0.00     0.209 HD
ENDBRANCH  25  26
ENDBRANCH  10  25
TORSDOF 5
ENDMDL
MODEL 8
REMARK VINA RESULT:      -7.3      3.407      5.716
REMARK  5 active torsions:
REMARK  status: ('A' for Active; 'I' for Inactive)
REMARK    1  A    between atoms: N1_1  and  C1_2 
REMARK    2  A    between atoms: C10_11  and  C11_12 
REMARK    3  A    between atoms: C11_12  and  O1_13 
REMARK    4  A    between atoms: C14_16  and  N2_17 
REMARK    5  A    between atoms: N2_17  and  C15_18 
ROOT
HETATM    1  C1  UNL     1      23.741   5.074  51.455  1.00  0.00     0.015 C 
HETATM    2  C2  UNL     1      24.274   6.207  50.999  1.00  0.00     0.026 C 
HETATM    3  C3  UNL     1      25.096   5.977  49.802  1.00  0.00     0.014 C 
HETATM    4  C4  UNL     1      25.176   4.829  49.176  1.00  0.00    -0.029 C 
HETATM    5  C5  UNL     1      24.523   3.787  49.595  1.00  0.00     0.001 C 
HETATM    6  C6  UNL     1      23.903   3.727  50.882  1.00  0.00     0.023 C 
HETATM    7  C7  UNL     1      24.642   2.893  51.902  1.00  0.00    -0.001 C 
HETATM    8  C8  UNL     1      24.523   3.388  53.214  1.00  0.00     0.047 C 
HETATM    9  C9  UNL     1      25.310   2.305  53.860  1.00  0.00    -0.012 C 
HETATM   10  C10 UNL     1      25.986   1.112  53.778  1.00  0.00    -0.038 C 
HETATM   11  C12 UNL     1      24.777   0.805  52.830  1.00  0.00     0.007 C 
HETATM   12  C13 UNL     1      23.557   1.011  52.142  1.00  0.00    -0.001 C 
HETATM   13  C14 UNL     1      22.467   2.007  51.963  1.00  0.00     0.108 C 
HETATM   14  C18 UNL     1      22.547   2.957  50.798  1.00  0.00     0.049 C 
ENDROOT
BRANCH   1  15
HETATM   15  N1  UNL     1      22.948   5.287  52.603  1.00  0.00    -0.401 N 
HETATM   16  H1  UNL     1      22.384   4.581  53.136  1.00  0.00     0.156 HD
HETATM   17  H2  UNL     1      22.606   5.975  53.281  1.00  0.00     0.156 HD
ENDBRANCH   1  15
BRANCH  13  18
HETATM   18  N2  UNL     1      21.246   1.201  51.893  1.00  0.00    -0.361 N 
HETATM   19  H15 UNL     1      21.235   0.172  52.031  1.00  0.00     0.162 HD
BRANCH  18  20
HETATM   20  C15 UNL     1      20.063   1.913  51.621  1.00  0.00     0.166 A 
HETATM   21  N3  UNL     1      19.415   2.960  52.222  1.00  0.00    -0.236 NA
HETATM   22  C16 UNL     1      18.295   3.273  51.525  1.00  0.00     0.126 A 
HETATM   23  C17 UNL     1      17.753   2.705  50.354  1.00  0.00     0.072 A 
HETATM   24  S1  UNL     1      19.084   1.424  50.130  1.00  0.00    -0.063 SA
ENDBRANCH  18  20
ENDBRANCH  13  18
BRANCH  10  25
HETATM   25  C11 UNL     1      26.736  -0.147  53.819  1.00  0.00     0.202 C 
BRANCH  25  26
HETATM   26  O1  UNL     1      27.370  -0.364  55.067  1.00  0.00    -0.396 OA
HETATM   27  H11 UNL     1      26.804  -0.000  55.796  1.00  0.00     0.209 HD
ENDBRANCH  25  26
ENDBRANCH  10  25
TORSDOF 5
ENDMDL
MODEL 9
REMARK VINA RESULT:      -7.3      3.665      6.314
REMARK  5 active torsions:
REMARK  status: ('A' for Active; 'I' for Inactive)
REMARK    1  A    between atoms: N1_1  and  C1_2 
REMARK    2  A    between atoms: C10_11  and  C11_12 
REMARK    3  A    between atoms: C11_12  and  O1_13 
REMARK    4  A    between atoms: C14_16  and  N2_17 
REMARK    5  A    between atoms: N2_17  and  C15_18 
ROOT
HETATM    1  C1  UNL     1      23.863   0.627  53.038  1.00  0.00     0.015 C 
HETATM    2  C2  UNL     1      24.500  -0.483  53.409  1.00  0.00     0.026 C 
HETATM    3  C3  UNL     1      25.871  -0.526  52.882  1.00  0.00     0.014 C 
HETATM    4  C4  UNL     1      26.445   0.467  52.249  1.00  0.00    -0.029 C 
HETATM    5  C5  UNL     1      25.814   1.582  52.032  1.00  0.00     0.001 C 
HETATM    6  C6  UNL     1      24.402   1.720  52.212  1.00  0.00     0.023 C 
HETATM    7  C7  UNL     1      23.602   1.749  50.930  1.00  0.00    -0.001 C 
HETATM    8  C8  UNL     1      22.333   1.155  51.057  1.00  0.00     0.047 C 
HETATM    9  C9  UNL     1      21.894   1.431  49.664  1.00  0.00    -0.012 C 
HETATM   10  C10 UNL     1      22.115   2.006  48.436  1.00  0.00    -0.038 C 
HETATM   11  C12 UNL     1      22.666   3.137  49.370  1.00  0.00     0.007 C 
HETATM   12  C13 UNL     1      22.985   3.815  50.571  1.00  0.00    -0.001 C 
HETATM   13  C14 UNL     1      22.886   3.687  52.051  1.00  0.00     0.108 C 
HETATM   14  C18 UNL     1      24.064   3.126  52.802  1.00  0.00     0.049 C 
ENDROOT
BRANCH   1  15
HETATM   15  N1  UNL     1      22.547   0.677  53.544  1.00  0.00    -0.401 N 
HETATM   16  H1  UNL     1      22.210   0.380  54.492  1.00  0.00     0.156 HD
HETATM   17  H2  UNL     1      21.572   0.922  53.346  1.00  0.00     0.156 HD
ENDBRANCH   1  15
BRANCH  13  18
HETATM   18  N2  UNL     1      22.571   5.040  52.513  1.00  0.00    -0.361 N 
HETATM   19  H15 UNL     1      22.054   5.234  53.393  1.00  0.00     0.162 HD
BRANCH  18  20
HETATM   20  C15 UNL     1      23.017   6.085  51.682  1.00  0.00     0.166 A 
HETATM   21  N3  UNL     1      24.245   6.606  51.373  1.00  0.00    -0.236 NA
HETATM   22  C16 UNL     1      24.107   7.622  50.486  1.00  0.00     0.126 A 
HETATM   23  C17 UNL     1      22.953   8.167  49.885  1.00  0.00     0.072 A 
HETATM   24  S1  UNL     1      21.745   7.030  50.727  1.00  0.00    -0.063 SA
ENDBRANCH  18  20
ENDBRANCH  13  18
BRANCH  10  25
HETATM   25  C11 UNL     1      22.238   2.566  47.088  1.00  0.00     0.202 C 
BRANCH  25  26
HETATM   26  O1  UNL     1      22.140   3.980  47.073  1.00  0.00    -0.396 OA
HETATM   27  H11 UNL     1      22.339   4.336  47.976  1.00  0.00     0.209 HD
ENDBRANCH  25  26
ENDBRANCH  10  25
TORSDOF 5
ENDMDL
