MODEL 1
REMARK VINA RESULT:      -8.5      0.000      0.000
REMARK  7 active torsions:
REMARK  status: ('A' for Active; 'I' for Inactive)
REMARK    1  A    between atoms: O1_2  and  C2_3 
REMARK    2  A    between atoms: C6_9  and  N3_10 
REMARK    3  A    between atoms: N3_10  and  C7_11 
REMARK    4  A    between atoms: C15_21  and  O2_22 
REMARK    5  A    between atoms: O2_22  and  C16_23 
REMARK    6  A    between atoms: C16_23  and  C17_24 
REMARK    7  A    between atoms: C17_24  and  N4_25 
ROOT
HETATM    1  C2  UNL     1      22.098   0.020  52.867  1.00  0.00     0.103 A 
HETATM    2  C3  UNL     1      21.024   0.647  52.229  1.00  0.00     0.072 A 
HETATM    3  C4  UNL     1      21.225   1.930  51.777  1.00  0.00     0.075 A 
HETATM    4  N1  UNL     1      20.158   2.468  51.177  1.00  0.00    -0.241 NA
HETATM    5  C5  UNL     1      20.229   3.716  50.693  1.00  0.00     0.236 A 
HETATM    6  N2  UNL     1      21.390   4.355  50.845  1.00  0.00    -0.224 NA
HETATM    7  C6  UNL     1      22.491   3.914  51.416  1.00  0.00     0.142 A 
HETATM    8  C13 UNL     1      22.392   2.635  51.904  1.00  0.00     0.042 A 
HETATM    9  C14 UNL     1      23.404   1.955  52.541  1.00  0.00     0.057 A 
HETATM   10  C15 UNL     1      23.329   0.660  53.043  1.00  0.00     0.103 A 
ENDROOT
BRANCH   7  11
HETATM   11  N3  UNL     1      23.708   4.615  51.563  1.00  0.00    -0.340 N 
HETATM   12  H6  UNL     1      23.916   5.200  52.393  1.00  0.00     0.167 HD
BRANCH  11  13
HETATM   13  C7  UNL     1      24.818   4.665  50.685  1.00  0.00     0.035 A 
HETATM   14  C8  UNL     1      25.682   3.609  50.412  1.00  0.00     0.032 A 
HETATM   15  C9  UNL     1      26.745   3.677  49.559  1.00  0.00     0.046 A 
HETATM   16  C10 UNL     1      27.027   4.850  48.900  1.00  0.00     0.138 A 
HETATM   17  F1  UNL     1      28.098   4.831  48.075  1.00  0.00    -0.204 F 
HETATM   18  C11 UNL     1      26.210   5.928  49.127  1.00  0.00     0.074 A 
HETATM   19 CL1  UNL     1      26.616   7.388  48.262  1.00  0.00    -0.081 Cl
HETATM   20  C12 UNL     1      25.147   5.804  49.999  1.00  0.00     0.056 A 
ENDBRANCH  11  13
ENDBRANCH   7  11
BRANCH  10  21
HETATM   21  O2  UNL     1      24.268   0.061  53.622  1.00  0.00    -0.347 OA
BRANCH  21  22
HETATM   22  C16 UNL     1      25.244  -0.564  54.224  1.00  0.00     0.206 C 
BRANCH  22  23
HETATM   23  C17 UNL     1      26.456  -0.914  53.323  1.00  0.00     0.299 C 
BRANCH  23  24
HETATM   24  N4  UNL     1      27.480   0.027  53.628  1.00  0.00     0.093 N 
HETATM   25  C18 UNL     1      27.570   1.119  52.690  1.00  0.00     0.302 C 
HETATM   26  C19 UNL     1      28.059   2.313  53.482  1.00  0.00     0.299 C 
HETATM   27  N5  UNL     1      29.169   1.856  54.276  1.00  0.00     0.086 N 
HETATM   28  C20 UNL     1      29.771   0.639  53.775  1.00  0.00     0.299 C 
HETATM   29  H19 UNL     1      29.897   2.594  54.356  1.00  0.00     0.315 HD
HETATM   30  C21 UNL     1      28.768  -0.512  53.928  1.00  0.00     0.302 C 
ENDBRANCH  23  24
ENDBRANCH  22  23
ENDBRANCH  21  22
ENDBRANCH  10  21
BRANCH   1  31
HETATM   31  O1  UNL     1      21.940  -1.274  53.338  1.00  0.00    -0.353 OA
HETATM   32  C1  UNL     1      21.357  -1.597  54.565  1.00  0.00     0.210 C 
ENDBRANCH   1  31
TORSDOF 7
ENDMDL
MODEL 2
REMARK VINA RESULT:      -8.4      3.032      6.000
REMARK  7 active torsions:
REMARK  status: ('A' for Active; 'I' for Inactive)
REMARK    1  A    between atoms: O1_2  and  C2_3 
REMARK    2  A    between atoms: C6_9  and  N3_10 
REMARK    3  A    between atoms: N3_10  and  C7_11 
REMARK    4  A    between atoms: C15_21  and  O2_22 
REMARK    5  A    between atoms: O2_22  and  C16_23 
REMARK    6  A    between atoms: C16_23  and  C17_24 
REMARK    7  A    between atoms: C17_24  and  N4_25 
ROOT
HETATM    1  C2  UNL     1      20.086   0.504  52.230  1.00  0.00     0.103 A 
HETATM    2  C3  UNL     1      20.287  -0.297  53.358  1.00  0.00     0.072 A 
HETATM    3  C4  UNL     1      21.584  -0.477  53.776  1.00  0.00     0.075 A 
HETATM    4  N1  UNL     1      21.703  -1.252  54.859  1.00  0.00    -0.241 NA
HETATM    5  C5  UNL     1      22.920  -1.503  55.363  1.00  0.00     0.236 A 
HETATM    6  N2  UNL     1      23.958  -0.948  54.736  1.00  0.00    -0.224 NA
HETATM    7  C6  UNL     1      23.944  -0.175  53.671  1.00  0.00     0.142 A 
HETATM    8  C13 UNL     1      22.688   0.066  53.173  1.00  0.00     0.042 A 
HETATM    9  C14 UNL     1      22.413   0.842  52.071  1.00  0.00     0.057 A 
HETATM   10  C15 UNL     1      21.151   1.101  51.547  1.00  0.00     0.103 A 
ENDROOT
BRANCH   7  11
HETATM   11  N3  UNL     1      25.061   0.399  53.026  1.00  0.00    -0.340 N 
HETATM   12  H6  UNL     1      24.967   1.125  52.291  1.00  0.00     0.167 HD
BRANCH  11  13
HETATM   13  C7  UNL     1      26.439   0.133  53.225  1.00  0.00     0.035 A 
HETATM   14  C8  UNL     1      27.085  -1.059  52.912  1.00  0.00     0.032 A 
HETATM   15  C9  UNL     1      28.415  -1.294  53.109  1.00  0.00     0.046 A 
HETATM   16  C10 UNL     1      29.215  -0.318  53.652  1.00  0.00     0.138 A 
HETATM   17  F1  UNL     1      30.521  -0.634  53.813  1.00  0.00    -0.204 F 
HETATM   18  C11 UNL     1      28.636   0.881  53.981  1.00  0.00     0.074 A 
HETATM   19 CL1  UNL     1      29.701   2.081  54.665  1.00  0.00    -0.081 Cl
HETATM   20  C12 UNL     1      27.286   1.067  53.760  1.00  0.00     0.056 A 
ENDBRANCH  11  13
ENDBRANCH   7  11
BRANCH  10  21
HETATM   21  O2  UNL     1      20.926   1.813  50.539  1.00  0.00    -0.347 OA
BRANCH  21  22
HETATM   22  C16 UNL     1      20.691   2.553  49.488  1.00  0.00     0.206 C 
BRANCH  22  23
HETATM   23  C17 UNL     1      21.070   4.048  49.640  1.00  0.00     0.299 C 
BRANCH  23  24
HETATM   24  N4  UNL     1      22.287   4.091  50.377  1.00  0.00     0.093 N 
HETATM   25  C18 UNL     1      22.300   5.079  51.428  1.00  0.00     0.302 C 
HETATM   26  C19 UNL     1      23.193   4.521  52.516  1.00  0.00     0.299 C 
HETATM   27  N5  UNL     1      24.383   4.038  51.868  1.00  0.00     0.086 N 
HETATM   28  C20 UNL     1      24.598   4.615  50.558  1.00  0.00     0.299 C 
HETATM   29  H19 UNL     1      25.222   4.203  52.460  1.00  0.00     0.315 HD
HETATM   30  C21 UNL     1      23.492   4.126  49.613  1.00  0.00     0.302 C 
ENDBRANCH  23  24
ENDBRANCH  22  23
ENDBRANCH  21  22
ENDBRANCH  10  21
BRANCH   1  31
HETATM   31  O1  UNL     1      18.794   0.713  51.774  1.00  0.00    -0.353 OA
HETATM   32  C1  UNL     1      17.866  -0.305  51.548  1.00  0.00     0.210 C 
ENDBRANCH   1  31
TORSDOF 7
ENDMDL
MODEL 3
REMARK VINA RESULT:      -8.4      3.224      6.051
REMARK  7 active torsions:
REMARK  status: ('A' for Active; 'I' for Inactive)
REMARK    1  A    between atoms: O1_2  and  C2_3 
REMARK    2  A    between atoms: C6_9  and  N3_10 
REMARK    3  A    between atoms: N3_10  and  C7_11 
REMARK    4  A    between atoms: C15_21  and  O2_22 
REMARK    5  A    between atoms: O2_22  and  C16_23 
REMARK    6  A    between atoms: C16_23  and  C17_24 
REMARK    7  A    between atoms: C17_24  and  N4_25 
ROOT
HETATM    1  C2  UNL     1      20.641   2.252  52.537  1.00  0.00     0.103 A 
HETATM    2  C3  UNL     1      20.532   1.286  53.541  1.00  0.00     0.072 A 
HETATM    3  C4  UNL     1      21.634   0.497  53.775  1.00  0.00     0.075 A 
HETATM    4  N1  UNL     1      21.461  -0.403  54.748  1.00  0.00    -0.241 NA
HETATM    5  C5  UNL     1      22.465  -1.232  55.069  1.00  0.00     0.236 A 
HETATM    6  N2  UNL     1      23.599  -1.100  54.381  1.00  0.00    -0.224 NA
HETATM    7  C6  UNL     1      23.866  -0.249  53.413  1.00  0.00     0.142 A 
HETATM    8  C13 UNL     1      22.824   0.588  53.101  1.00  0.00     0.042 A 
HETATM    9  C14 UNL     1      22.857   1.560  52.129  1.00  0.00     0.057 A 
HETATM   10  C15 UNL     1      21.815   2.419  51.795  1.00  0.00     0.103 A 
ENDROOT
BRANCH   7  11
HETATM   11  N3  UNL     1      25.079  -0.131  52.699  1.00  0.00    -0.340 N 
HETATM   12  H6  UNL     1      25.189  -0.476  51.728  1.00  0.00     0.167 HD
BRANCH  11  13
HETATM   13  C7  UNL     1      26.307   0.439  53.117  1.00  0.00     0.035 A 
HETATM   14  C8  UNL     1      26.495   1.765  53.497  1.00  0.00     0.032 A 
HETATM   15  C9  UNL     1      27.687   2.293  53.900  1.00  0.00     0.046 A 
HETATM   16  C10 UNL     1      28.810   1.504  53.952  1.00  0.00     0.138 A 
HETATM   17  F1  UNL     1      29.949   2.108  54.362  1.00  0.00    -0.204 F 
HETATM   18  C11 UNL     1      28.688   0.186  53.590  1.00  0.00     0.074 A 
HETATM   19 CL1  UNL     1      30.147  -0.767  53.677  1.00  0.00    -0.081 Cl
HETATM   20  C12 UNL     1      27.459  -0.298  53.191  1.00  0.00     0.056 A 
ENDBRANCH  11  13
ENDBRANCH   7  11
BRANCH  10  21
HETATM   21  O2  UNL     1      21.870   3.299  50.902  1.00  0.00    -0.347 OA
BRANCH  21  22
HETATM   22  C16 UNL     1      21.928   4.215  49.972  1.00  0.00     0.206 C 
BRANCH  22  23
HETATM   23  C17 UNL     1      23.235   4.226  49.140  1.00  0.00     0.299 C 
BRANCH  23  24
HETATM   24  N4  UNL     1      24.082   5.213  49.718  1.00  0.00     0.093 N 
HETATM   25  C18 UNL     1      23.476   6.518  49.820  1.00  0.00     0.302 C 
HETATM   26  C19 UNL     1      24.084   7.169  51.044  1.00  0.00     0.299 C 
HETATM   27  N5  UNL     1      25.505   6.959  50.962  1.00  0.00     0.086 N 
HETATM   28  C20 UNL     1      25.965   6.660  49.622  1.00  0.00     0.299 C 
HETATM   29  H19 UNL     1      26.024   7.782  51.329  1.00  0.00     0.315 HD
HETATM   30  C21 UNL     1      25.410   5.293  49.200  1.00  0.00     0.302 C 
ENDBRANCH  23  24
ENDBRANCH  22  23
ENDBRANCH  21  22
ENDBRANCH  10  21
BRANCH   1  31
HETATM   31  O1  UNL     1      19.555   3.070  52.268  1.00  0.00    -0.353 OA
HETATM   32  C1  UNL     1      18.421   2.662  51.561  1.00  0.00     0.210 C 
ENDBRANCH   1  31
TORSDOF 7
ENDMDL
MODEL 4
REMARK VINA RESULT:      -8.2      5.170      7.887
REMARK  7 active torsions:
REMARK  status: ('A' for Active; 'I' for Inactive)
REMARK    1  A    between atoms: O1_2  and  C2_3 
REMARK    2  A    between atoms: C6_9  and  N3_10 
REMARK    3  A    between atoms: N3_10  and  C7_11 
REMARK    4  A    between atoms: C15_21  and  O2_22 
REMARK    5  A    between atoms: O2_22  and  C16_23 
REMARK    6  A    between atoms: C16_23  and  C17_24 
REMARK    7  A    between atoms: C17_24  and  N4_25 
ROOT
HETATM    1  C2  UNL     1      27.554   6.574  48.097  1.00  0.00     0.103 A 
HETATM    2  C3  UNL     1      26.219   6.786  48.455  1.00  0.00     0.072 A 
HETATM    3  C4  UNL     1      25.581   5.770  49.128  1.00  0.00     0.075 A 
HETATM    4  N1  UNL     1      24.310   6.039  49.440  1.00  0.00    -0.241 NA
HETATM    5  C5  UNL     1      23.581   5.125  50.096  1.00  0.00     0.236 A 
HETATM    6  N2  UNL     1      24.188   3.979  50.404  1.00  0.00    -0.224 NA
HETATM    7  C6  UNL     1      25.428   3.621  50.144  1.00  0.00     0.142 A 
HETATM    8  C13 UNL     1      26.153   4.573  49.470  1.00  0.00     0.042 A 
HETATM    9  C14 UNL     1      27.466   4.436  49.086  1.00  0.00     0.057 A 
HETATM   10  C15 UNL     1      28.222   5.384  48.403  1.00  0.00     0.103 A 
ENDROOT
BRANCH   7  11
HETATM   11  N3  UNL     1      26.046   2.397  50.482  1.00  0.00    -0.340 N 
HETATM   12  H6  UNL     1      26.540   1.812  49.783  1.00  0.00     0.167 HD
BRANCH  11  13
HETATM   13  C7  UNL     1      26.123   1.756  51.743  1.00  0.00     0.035 A 
HETATM   14  C8  UNL     1      25.058   1.159  52.411  1.00  0.00     0.032 A 
HETATM   15  C9  UNL     1      25.153   0.544  53.626  1.00  0.00     0.046 A 
HETATM   16  C10 UNL     1      26.363   0.483  54.276  1.00  0.00     0.138 A 
HETATM   17  F1  UNL     1      26.368  -0.145  55.474  1.00  0.00    -0.204 F 
HETATM   18  C11 UNL     1      27.450   1.054  53.666  1.00  0.00     0.074 A 
HETATM   19 CL1  UNL     1      28.958   0.944  54.538  1.00  0.00    -0.081 Cl
HETATM   20  C12 UNL     1      27.300   1.663  52.437  1.00  0.00     0.056 A 
ENDBRANCH  11  13
ENDBRANCH   7  11
BRANCH  10  21
HETATM   21  O2  UNL     1      29.420   5.235  48.063  1.00  0.00    -0.347 OA
BRANCH  21  22
HETATM   22  C16 UNL     1      30.669   5.081  47.708  1.00  0.00     0.206 C 
BRANCH  22  23
HETATM   23  C17 UNL     1      31.676   6.018  48.422  1.00  0.00     0.299 C 
BRANCH  23  24
HETATM   24  N4  UNL     1      32.902   5.301  48.525  1.00  0.00     0.093 N 
HETATM   25  C18 UNL     1      34.068   6.090  48.212  1.00  0.00     0.302 C 
HETATM   26  C19 UNL     1      35.192   5.530  49.058  1.00  0.00     0.299 C 
HETATM   27  N5  UNL     1      35.141   4.099  48.920  1.00  0.00     0.086 N 
HETATM   28  C20 UNL     1      34.430   3.661  47.737  1.00  0.00     0.299 C 
HETATM   29  H19 UNL     1      36.099   3.692  48.917  1.00  0.00     0.315 HD
HETATM   30  C21 UNL     1      32.947   4.025  47.887  1.00  0.00     0.302 C 
ENDBRANCH  23  24
ENDBRANCH  22  23
ENDBRANCH  21  22
ENDBRANCH  10  21
BRANCH   1  31
HETATM   31  O1  UNL     1      28.236   7.572  47.418  1.00  0.00    -0.353 OA
HETATM   32  C1  UNL     1      28.791   8.698  48.029  1.00  0.00     0.210 C 
ENDBRANCH   1  31
TORSDOF 7
ENDMDL
MODEL 5
REMARK VINA RESULT:      -8.1      1.794      2.156
REMARK  7 active torsions:
REMARK  status: ('A' for Active; 'I' for Inactive)
REMARK    1  A    between atoms: O1_2  and  C2_3 
REMARK    2  A    between atoms: C6_9  and  N3_10 
REMARK    3  A    between atoms: N3_10  and  C7_11 
REMARK    4  A    between atoms: C15_21  and  O2_22 
REMARK    5  A    between atoms: O2_22  and  C16_23 
REMARK    6  A    between atoms: C16_23  and  C17_24 
REMARK    7  A    between atoms: C17_24  and  N4_25 
ROOT
HETATM    1  C2  UNL     1      22.141   0.635  51.750  1.00  0.00     0.103 A 
HETATM    2  C3  UNL     1      21.481   1.281  50.701  1.00  0.00     0.072 A 
HETATM    3  C4  UNL     1      22.189   2.232  50.005  1.00  0.00     0.075 A 
HETATM    4  N1  UNL     1      21.498   2.809  49.016  1.00  0.00    -0.241 NA
HETATM    5  C5  UNL     1      22.080   3.754  48.265  1.00  0.00     0.236 A 
HETATM    6  N2  UNL     1      23.343   4.064  48.559  1.00  0.00    -0.224 NA
HETATM    7  C6  UNL     1      24.104   3.557  49.505  1.00  0.00     0.142 A 
HETATM    8  C13 UNL     1      23.486   2.592  50.262  1.00  0.00     0.042 A 
HETATM    9  C14 UNL     1      24.070   1.916  51.306  1.00  0.00     0.057 A 
HETATM   10  C15 UNL     1      23.466   0.935  52.087  1.00  0.00     0.103 A 
ENDROOT
BRANCH   7  11
HETATM   11  N3  UNL     1      25.441   3.905  49.796  1.00  0.00    -0.340 N 
HETATM   12  H6  UNL     1      25.992   3.431  50.535  1.00  0.00     0.167 HD
BRANCH  11  13
HETATM   13  C7  UNL     1      26.255   4.895  49.191  1.00  0.00     0.035 A 
HETATM   14  C8  UNL     1      25.856   6.191  48.882  1.00  0.00     0.032 A 
HETATM   15  C9  UNL     1      26.657   7.132  48.302  1.00  0.00     0.046 A 
HETATM   16  C10 UNL     1      27.958   6.826  47.980  1.00  0.00     0.138 A 
HETATM   17  F1  UNL     1      28.681   7.815  47.408  1.00  0.00    -0.204 F 
HETATM   18  C11 UNL     1      28.411   5.563  48.261  1.00  0.00     0.074 A 
HETATM   19 CL1  UNL     1      30.070   5.234  47.832  1.00  0.00    -0.081 Cl
HETATM   20  C12 UNL     1      27.559   4.650  48.850  1.00  0.00     0.056 A 
ENDBRANCH  11  13
ENDBRANCH   7  11
BRANCH  10  21
HETATM   21  O2  UNL     1      24.021   0.332  53.036  1.00  0.00    -0.347 OA
BRANCH  21  22
HETATM   22  C16 UNL     1      24.599  -0.298  54.025  1.00  0.00     0.206 C 
BRANCH  22  23
HETATM   23  C17 UNL     1      26.017  -0.843  53.717  1.00  0.00     0.299 C 
BRANCH  23  24
HETATM   24  N4  UNL     1      26.913   0.257  53.826  1.00  0.00     0.093 N 
HETATM   25  C18 UNL     1      27.380   0.760  52.557  1.00  0.00     0.302 C 
HETATM   26  C19 UNL     1      27.618   2.242  52.757  1.00  0.00     0.299 C 
HETATM   27  N5  UNL     1      28.354   2.383  53.985  1.00  0.00     0.086 N 
HETATM   28  C20 UNL     1      29.034   1.170  54.388  1.00  0.00     0.299 C 
HETATM   29  H19 UNL     1      29.043   3.159  53.918  1.00  0.00     0.315 HD
HETATM   30  C21 UNL     1      27.986   0.112  54.757  1.00  0.00     0.302 C 
ENDBRANCH  23  24
ENDBRANCH  22  23
ENDBRANCH  21  22
ENDBRANCH  10  21
BRANCH   1  31
HETATM   31  O1  UNL     1      21.466  -0.331  52.479  1.00  0.00    -0.353 OA
HETATM   32  C1  UNL     1      20.550  -0.052  53.495  1.00  0.00     0.210 C 
ENDBRANCH   1  31
TORSDOF 7
ENDMDL
MODEL 6
REMARK VINA RESULT:      -8.0      3.983      6.595
REMARK  7 active torsions:
REMARK  status: ('A' for Active; 'I' for Inactive)
REMARK    1  A    between atoms: O1_2  and  C2_3 
REMARK    2  A    between atoms: C6_9  and  N3_10 
REMARK    3  A    between atoms: N3_10  and  C7_11 
REMARK    4  A    between atoms: C15_21  and  O2_22 
REMARK    5  A    between atoms: O2_22  and  C16_23 
REMARK    6  A    between atoms: C16_23  and  C17_24 
REMARK    7  A    between atoms: C17_24  and  N4_25 
ROOT
HETATM    1  C2  UNL     1      23.380   3.143  49.382  1.00  0.00     0.103 A 
HETATM    2  C3  UNL     1      22.555   2.166  49.947  1.00  0.00     0.072 A 
HETATM    3  C4  UNL     1      22.977   1.594  51.124  1.00  0.00     0.075 A 
HETATM    4  N1  UNL     1      22.141   0.669  51.608  1.00  0.00    -0.241 NA
HETATM    5  C5  UNL     1      22.443   0.039  52.752  1.00  0.00     0.236 A 
HETATM    6  N2  UNL     1      23.585   0.384  53.348  1.00  0.00    -0.224 NA
HETATM    7  C6  UNL     1      24.468   1.277  52.954  1.00  0.00     0.142 A 
HETATM    8  C13 UNL     1      24.138   1.908  51.780  1.00  0.00     0.042 A 
HETATM    9  C14 UNL     1      24.897   2.877  51.166  1.00  0.00     0.057 A 
HETATM   10  C15 UNL     1      24.584   3.531  49.979  1.00  0.00     0.103 A 
ENDROOT
BRANCH   7  11
HETATM   11  N3  UNL     1      25.672   1.623  53.605  1.00  0.00    -0.340 N 
HETATM   12  H6  UNL     1      25.764   2.476  54.188  1.00  0.00     0.167 HD
BRANCH  11  13
HETATM   13  C7  UNL     1      26.912   0.939  53.607  1.00  0.00     0.035 A 
HETATM   14  C8  UNL     1      28.147   1.504  53.914  1.00  0.00     0.032 A 
HETATM   15  C9  UNL     1      29.331   0.826  53.913  1.00  0.00     0.046 A 
HETATM   16  C10 UNL     1      29.362  -0.510  53.592  1.00  0.00     0.138 A 
HETATM   17  F1  UNL     1      30.577  -1.104  53.614  1.00  0.00    -0.204 F 
HETATM   18  C11 UNL     1      28.176  -1.124  53.280  1.00  0.00     0.074 A 
HETATM   19 CL1  UNL     1      28.277  -2.820  52.883  1.00  0.00    -0.081 Cl
HETATM   20  C12 UNL     1      27.006  -0.392  53.298  1.00  0.00     0.056 A 
ENDBRANCH  11  13
ENDBRANCH   7  11
BRANCH  10  21
HETATM   21  O2  UNL     1      25.295   4.412  49.438  1.00  0.00    -0.347 OA
BRANCH  21  22
HETATM   22  C16 UNL     1      26.035   5.330  48.874  1.00  0.00     0.206 C 
BRANCH  22  23
HETATM   23  C17 UNL     1      27.501   4.911  48.595  1.00  0.00     0.299 C 
BRANCH  23  24
HETATM   24  N4  UNL     1      28.291   6.092  48.689  1.00  0.00     0.093 N 
HETATM   25  C18 UNL     1      27.656   7.266  48.143  1.00  0.00     0.302 C 
HETATM   26  C19 UNL     1      28.171   8.437  48.953  1.00  0.00     0.299 C 
HETATM   27  N5  UNL     1      29.598   8.279  49.048  1.00  0.00     0.086 N 
HETATM   28  C20 UNL     1      30.149   7.415  48.025  1.00  0.00     0.299 C 
HETATM   29  H19 UNL     1      30.077   9.201  49.016  1.00  0.00     0.315 HD
HETATM   30  C21 UNL     1      29.647   5.984  48.260  1.00  0.00     0.302 C 
ENDBRANCH  23  24
ENDBRANCH  22  23
ENDBRANCH  21  22
ENDBRANCH  10  21
BRANCH   1  31
HETATM   31  O1  UNL     1      22.994   3.747  48.195  1.00  0.00    -0.353 OA
HETATM   32  C1  UNL     1      22.084   3.194  47.292  1.00  0.00     0.210 C 
ENDBRANCH   1  31
TORSDOF 7
ENDMDL
MODEL 7
REMARK VINA RESULT:      -7.9      4.730      7.847
REMARK  7 active torsions:
REMARK  status: ('A' for Active; 'I' for Inactive)
REMARK    1  A    between atoms: O1_2  and  C2_3 
REMARK    2  A    between atoms: C6_9  and  N3_10 
REMARK    3  A    between atoms: N3_10  and  C7_11 
REMARK    4  A    between atoms: C15_21  and  O2_22 
REMARK    5  A    between atoms: O2_22  and  C16_23 
REMARK    6  A    between atoms: C16_23  and  C17_24 
REMARK    7  A    between atoms: C17_24  and  N4_25 
ROOT
HETATM    1  C2  UNL     1      25.194   0.968  52.368  1.00  0.00     0.103 A 
HETATM    2  C3  UNL     1      25.151   0.028  53.402  1.00  0.00     0.072 A 
HETATM    3  C4  UNL     1      23.912  -0.310  53.891  1.00  0.00     0.075 A 
HETATM    4  N1  UNL     1      23.944  -1.215  54.875  1.00  0.00    -0.241 NA
HETATM    5  C5  UNL     1      22.798  -1.625  55.435  1.00  0.00     0.236 A 
HETATM    6  N2  UNL     1      21.671  -1.092  54.961  1.00  0.00    -0.224 NA
HETATM    7  C6  UNL     1      21.535  -0.203  54.001  1.00  0.00     0.142 A 
HETATM    8  C13 UNL     1      22.723   0.203  53.444  1.00  0.00     0.042 A 
HETATM    9  C14 UNL     1      22.843   1.121  52.428  1.00  0.00     0.057 A 
HETATM   10  C15 UNL     1      24.033   1.548  51.847  1.00  0.00     0.103 A 
ENDROOT
BRANCH   7  11
HETATM   11  N3  UNL     1      20.327   0.346  53.518  1.00  0.00    -0.340 N 
HETATM   12  H6  UNL     1      20.177   1.368  53.428  1.00  0.00     0.167 HD
BRANCH  11  13
HETATM   13  C7  UNL     1      19.155  -0.322  53.087  1.00  0.00     0.035 A 
HETATM   14  C8  UNL     1      18.268   0.144  52.121  1.00  0.00     0.032 A 
HETATM   15  C9  UNL     1      17.144  -0.518  51.717  1.00  0.00     0.046 A 
HETATM   16  C10 UNL     1      16.822  -1.733  52.272  1.00  0.00     0.138 A 
HETATM   17  F1  UNL     1      15.692  -2.319  51.814  1.00  0.00    -0.204 F 
HETATM   18  C11 UNL     1      17.659  -2.245  53.229  1.00  0.00     0.074 A 
HETATM   19 CL1  UNL     1      17.198  -3.791  53.896  1.00  0.00    -0.081 Cl
HETATM   20  C12 UNL     1      18.782  -1.536  53.601  1.00  0.00     0.056 A 
ENDBRANCH  11  13
ENDBRANCH   7  11
BRANCH  10  21
HETATM   21  O2  UNL     1      24.117   2.389  50.919  1.00  0.00    -0.347 OA
BRANCH  21  22
HETATM   22  C16 UNL     1      24.205   3.265  49.953  1.00  0.00     0.206 C 
BRANCH  22  23
HETATM   23  C17 UNL     1      24.388   4.733  50.413  1.00  0.00     0.299 C 
BRANCH  23  24
HETATM   24  N4  UNL     1      25.624   5.183  49.869  1.00  0.00     0.093 N 
HETATM   25  C18 UNL     1      25.477   6.093  48.759  1.00  0.00     0.302 C 
HETATM   26  C19 UNL     1      26.674   7.018  48.815  1.00  0.00     0.299 C 
HETATM   27  N5  UNL     1      27.832   6.187  49.011  1.00  0.00     0.086 N 
HETATM   28  C20 UNL     1      27.617   4.806  48.632  1.00  0.00     0.299 C 
HETATM   29  H19 UNL     1      28.652   6.563  48.494  1.00  0.00     0.315 HD
HETATM   30  C21 UNL     1      26.600   4.179  49.595  1.00  0.00     0.302 C 
ENDBRANCH  23  24
ENDBRANCH  22  23
ENDBRANCH  21  22
ENDBRANCH  10  21
BRANCH   1  31
HETATM   31  O1  UNL     1      26.423   1.338  51.844  1.00  0.00    -0.353 OA
HETATM   32  C1  UNL     1      27.480   1.846  52.603  1.00  0.00     0.210 C 
ENDBRANCH   1  31
TORSDOF 7
ENDMDL
MODEL 8
REMARK VINA RESULT:      -7.8      3.941      6.864
REMARK  7 active torsions:
REMARK  status: ('A' for Active; 'I' for Inactive)
REMARK    1  A    between atoms: O1_2  and  C2_3 
REMARK    2  A    between atoms: C6_9  and  N3_10 
REMARK    3  A    between atoms: N3_10  and  C7_11 
REMARK    4  A    between atoms: C15_21  and  O2_22 
REMARK    5  A    between atoms: O2_22  and  C16_23 
REMARK    6  A    between atoms: C16_23  and  C17_24 
REMARK    7  A    between atoms: C17_24  and  N4_25 
ROOT
HETATM    1  C2  UNL     1      25.570   0.366  53.106  1.00  0.00     0.103 A 
HETATM    2  C3  UNL     1      24.795  -0.453  53.933  1.00  0.00     0.072 A 
HETATM    3  C4  UNL     1      23.430  -0.393  53.773  1.00  0.00     0.075 A 
HETATM    4  N1  UNL     1      22.751  -1.201  54.594  1.00  0.00    -0.241 NA
HETATM    5  C5  UNL     1      21.412  -1.232  54.535  1.00  0.00     0.236 A 
HETATM    6  N2  UNL     1      20.831  -0.435  53.638  1.00  0.00    -0.224 NA
HETATM    7  C6  UNL     1      21.408   0.391  52.790  1.00  0.00     0.142 A 
HETATM    8  C13 UNL     1      22.778   0.405  52.870  1.00  0.00     0.042 A 
HETATM    9  C14 UNL     1      23.604   1.182  52.093  1.00  0.00     0.057 A 
HETATM   10  C15 UNL     1      24.994   1.214  52.155  1.00  0.00     0.103 A 
ENDROOT
BRANCH   7  11
HETATM   11  N3  UNL     1      20.765   1.225  51.849  1.00  0.00    -0.340 N 
HETATM   12  H6  UNL     1      21.287   1.891  51.250  1.00  0.00     0.167 HD
BRANCH  11  13
HETATM   13  C7  UNL     1      19.386   1.326  51.543  1.00  0.00     0.035 A 
HETATM   14  C8  UNL     1      18.592   0.299  51.043  1.00  0.00     0.032 A 
HETATM   15  C9  UNL     1      17.262   0.416  50.757  1.00  0.00     0.046 A 
HETATM   16  C10 UNL     1      16.616   1.611  50.960  1.00  0.00     0.138 A 
HETATM   17  F1  UNL     1      15.299   1.640  50.650  1.00  0.00    -0.204 F 
HETATM   18  C11 UNL     1      17.345   2.662  51.452  1.00  0.00     0.074 A 
HETATM   19 CL1  UNL     1      16.470   4.153  51.690  1.00  0.00    -0.081 Cl
HETATM   20  C12 UNL     1      18.687   2.490  51.726  1.00  0.00     0.056 A 
ENDBRANCH  11  13
ENDBRANCH   7  11
BRANCH  10  21
HETATM   21  O2  UNL     1      25.727   1.932  51.433  1.00  0.00    -0.347 OA
BRANCH  21  22
HETATM   22  C16 UNL     1      26.490   2.681  50.682  1.00  0.00     0.206 C 
BRANCH  22  23
HETATM   23  C17 UNL     1      25.736   3.583  49.672  1.00  0.00     0.299 C 
BRANCH  23  24
HETATM   24  N4  UNL     1      25.241   4.698  50.406  1.00  0.00     0.093 N 
HETATM   25  C18 UNL     1      23.821   4.652  50.654  1.00  0.00     0.302 C 
HETATM   26  C19 UNL     1      23.603   5.358  51.975  1.00  0.00     0.299 C 
HETATM   27  N5  UNL     1      24.359   6.581  51.921  1.00  0.00     0.086 N 
HETATM   28  C20 UNL     1      24.677   7.000  50.572  1.00  0.00     0.299 C 
HETATM   29  H19 UNL     1      23.859   7.350  52.412  1.00  0.00     0.315 HD
HETATM   30  C21 UNL     1      25.651   5.988  49.954  1.00  0.00     0.302 C 
ENDBRANCH  23  24
ENDBRANCH  22  23
ENDBRANCH  21  22
ENDBRANCH  10  21
BRANCH   1  31
HETATM   31  O1  UNL     1      26.950   0.337  53.232  1.00  0.00    -0.353 OA
HETATM   32  C1  UNL     1      27.626   0.245  54.451  1.00  0.00     0.210 C 
ENDBRANCH   1  31
TORSDOF 7
ENDMDL
MODEL 9
REMARK VINA RESULT:      -7.7      1.753      5.400
REMARK  7 active torsions:
REMARK  status: ('A' for Active; 'I' for Inactive)
REMARK    1  A    between atoms: O1_2  and  C2_3 
REMARK    2  A    between atoms: C6_9  and  N3_10 
REMARK    3  A    between atoms: N3_10  and  C7_11 
REMARK    4  A    between atoms: C15_21  and  O2_22 
REMARK    5  A    between atoms: O2_22  and  C16_23 
REMARK    6  A    between atoms: C16_23  and  C17_24 
REMARK    7  A    between atoms: C17_24  and  N4_25 
ROOT
HETATM    1  C2  UNL     1      23.352   0.203  53.151  1.00  0.00     0.103 A 
HETATM    2  C3  UNL     1      24.621   0.317  53.727  1.00  0.00     0.072 A 
HETATM    3  C4  UNL     1      25.555   1.061  53.045  1.00  0.00     0.075 A 
HETATM    4  N1  UNL     1      26.744   1.129  53.652  1.00  0.00    -0.241 NA
HETATM    5  C5  UNL     1      27.738   1.826  53.084  1.00  0.00     0.236 A 
HETATM    6  N2  UNL     1      27.469   2.422  51.923  1.00  0.00    -0.224 NA
HETATM    7  C6  UNL     1      26.338   2.415  51.250  1.00  0.00     0.142 A 
HETATM    8  C13 UNL     1      25.336   1.695  51.850  1.00  0.00     0.042 A 
HETATM    9  C14 UNL     1      24.067   1.539  51.345  1.00  0.00     0.057 A 
HETATM   10  C15 UNL     1      23.035   0.815  51.934  1.00  0.00     0.103 A 
ENDROOT
BRANCH   7  11
HETATM   11  N3  UNL     1      26.081   3.056  50.018  1.00  0.00    -0.340 N 
HETATM   12  H6  UNL     1      25.747   2.541  49.182  1.00  0.00     0.167 HD
BRANCH  11  13
HETATM   13  C7  UNL     1      26.209   4.427  49.683  1.00  0.00     0.035 A 
HETATM   14  C8  UNL     1      27.157   4.961  48.816  1.00  0.00     0.032 A 
HETATM   15  C9  UNL     1      27.263   6.286  48.504  1.00  0.00     0.046 A 
HETATM   16  C10 UNL     1      26.396   7.197  49.059  1.00  0.00     0.138 A 
HETATM   17  F1  UNL     1      26.571   8.488  48.696  1.00  0.00    -0.204 F 
HETATM   18  C11 UNL     1      25.439   6.730  49.923  1.00  0.00     0.074 A 
HETATM   19 CL1  UNL     1      24.367   7.932  50.595  1.00  0.00    -0.081 Cl
HETATM   20  C12 UNL     1      25.375   5.381  50.203  1.00  0.00     0.056 A 
ENDBRANCH  11  13
ENDBRANCH   7  11
BRANCH  10  21
HETATM   21  O2  UNL     1      21.883   0.687  51.452  1.00  0.00    -0.347 OA
BRANCH  21  22
HETATM   22  C16 UNL     1      20.684   0.553  50.951  1.00  0.00     0.206 C 
BRANCH  22  23
HETATM   23  C17 UNL     1      19.693   1.691  51.305  1.00  0.00     0.299 C 
BRANCH  23  24
HETATM   24  N4  UNL     1      20.357   2.918  51.018  1.00  0.00     0.093 N 
HETATM   25  C18 UNL     1      20.619   3.728  52.183  1.00  0.00     0.302 C 
HETATM   26  C19 UNL     1      21.893   4.490  51.884  1.00  0.00     0.299 C 
HETATM   27  N5  UNL     1      21.752   5.030  50.559  1.00  0.00     0.086 N 
HETATM   28  C20 UNL     1      20.375   5.117  50.118  1.00  0.00     0.299 C 
HETATM   29  H19 UNL     1      22.195   5.968  50.490  1.00  0.00     0.315 HD
HETATM   30  C21 UNL     1      19.817   3.697  49.951  1.00  0.00     0.302 C 
ENDBRANCH  23  24
ENDBRANCH  22  23
ENDBRANCH  21  22
ENDBRANCH  10  21
BRANCH   1  31
HETATM   31  O1  UNL     1      22.379  -0.537  53.805  1.00  0.00    -0.353 OA
HETATM   32  C1  UNL     1      21.410   0.011  54.647  1.00  0.00     0.210 C 
ENDBRANCH   1  31
TORSDOF 7
ENDMDL
