MODEL 1
REMARK VINA RESULT:      -8.5      0.000      0.000
REMARK  7 active torsions:
REMARK  status: ('A' for Active; 'I' for Inactive)
REMARK    1  A    between atoms: C2_2  and  C3_3 
REMARK    2  A    between atoms: C3_3  and  C4_4 
REMARK    3  A    between atoms: C4_4  and  N1_5 
REMARK    4  A    between atoms: N1_5  and  C5_7 
REMARK    5  A    between atoms: C5_7  and  C6_8 
REMARK    6  A    between atoms: C13_20  and  N5_21 
REMARK    7  A    between atoms: N5_21  and  C14_22 
ROOT
HETATM    1  C6  UNL     1      22.185   2.177  50.757  1.00  0.00     0.135 C 
HETATM    2  N2  UNL     1      21.080   1.668  49.967  1.00  0.00    -0.349 N 
HETATM    3  C7  UNL     1      19.716   1.546  50.351  1.00  0.00     0.242 C 
HETATM    4  O1  UNL     1      18.963   1.018  49.475  1.00  0.00    -0.271 OA
HETATM    5  C8  UNL     1      19.044   1.929  51.591  1.00  0.00     0.278 C 
HETATM    6  O2  UNL     1      19.828   1.733  52.761  1.00  0.00    -0.341 OA
HETATM    7  C9  UNL     1      21.108   1.207  52.882  1.00  0.00     0.080 A 
HETATM    8  C10 UNL     1      21.290   0.443  53.990  1.00  0.00     0.070 A 
HETATM    9  C11 UNL     1      22.513  -0.140  54.233  1.00  0.00     0.074 A 
HETATM   10  N3  UNL     1      22.634  -0.896  55.363  1.00  0.00    -0.241 NA
HETATM   11  C12 UNL     1      23.804  -1.495  55.663  1.00  0.00     0.236 A 
HETATM   12  N4  UNL     1      24.823  -1.321  54.823  1.00  0.00    -0.224 NA
HETATM   13  C13 UNL     1      24.819  -0.610  53.698  1.00  0.00     0.142 A 
HETATM   14  C20 UNL     1      23.615  -0.009  53.414  1.00  0.00     0.039 A 
HETATM   15  C21 UNL     1      23.363   0.771  52.322  1.00  0.00     0.029 A 
HETATM   16  C22 UNL     1      22.163   1.381  52.024  1.00  0.00     0.000 A 
HETATM   17  H13 UNL     1      21.305   1.358  49.012  1.00  0.00     0.163 HD
ENDROOT
BRANCH  13  18
HETATM   18  N5  UNL     1      25.900  -0.429  52.813  1.00  0.00    -0.340 N 
HETATM   19  H18 UNL     1      25.763  -0.187  51.816  1.00  0.00     0.167 HD
BRANCH  18  20
HETATM   20  C14 UNL     1      27.280  -0.536  53.102  1.00  0.00     0.033 A 
HETATM   21  C15 UNL     1      27.982  -1.709  52.985  1.00  0.00     0.029 A 
HETATM   22  C16 UNL     1      29.320  -1.837  53.252  1.00  0.00     0.002 A 
HETATM   23  C17 UNL     1      30.059  -0.752  53.667  1.00  0.00     0.000 A 
HETATM   24  C18 UNL     1      29.408   0.454  53.802  1.00  0.00     0.002 A 
HETATM   25  C19 UNL     1      28.066   0.515  53.519  1.00  0.00     0.029 A 
ENDBRANCH  18  20
ENDBRANCH  13  18
BRANCH   1  26
HETATM   26  C5  UNL     1      21.841   3.603  51.148  1.00  0.00     0.138 C 
BRANCH  26  27
HETATM   27  N1  UNL     1      22.966   4.488  51.021  1.00  0.00    -0.226 NA
HETATM   28 CL1  UNL     1      23.767   4.629  52.535  1.00  0.00    -0.022 Cl
BRANCH  27  29
HETATM   29  C4  UNL     1      23.865   4.159  49.944  1.00  0.00     0.108 C 
BRANCH  29  30
HETATM   30  C3  UNL     1      25.271   4.651  50.193  1.00  0.00     0.015 C 
BRANCH  30  31
HETATM   31  C2  UNL     1      26.316   3.601  49.791  1.00  0.00    -0.003 C 
HETATM   32  C1  UNL     1      26.416   2.600  50.916  1.00  0.00     0.005 C 
ENDBRANCH  30  31
ENDBRANCH  29  30
ENDBRANCH  27  29
ENDBRANCH  26  27
ENDBRANCH   1  26
TORSDOF 7
ENDMDL
MODEL 2
REMARK VINA RESULT:      -8.2      2.407      5.272
REMARK  7 active torsions:
REMARK  status: ('A' for Active; 'I' for Inactive)
REMARK    1  A    between atoms: C2_2  and  C3_3 
REMARK    2  A    between atoms: C3_3  and  C4_4 
REMARK    3  A    between atoms: C4_4  and  N1_5 
REMARK    4  A    between atoms: N1_5  and  C5_7 
REMARK    5  A    between atoms: C5_7  and  C6_8 
REMARK    6  A    between atoms: C13_20  and  N5_21 
REMARK    7  A    between atoms: N5_21  and  C14_22 
ROOT
HETATM    1  C6  UNL     1      21.825   1.365  52.572  1.00  0.00     0.135 C 
HETATM    2  N2  UNL     1      20.728   2.287  52.799  1.00  0.00    -0.349 N 
HETATM    3  C7  UNL     1      19.834   2.832  51.836  1.00  0.00     0.242 C 
HETATM    4  O1  UNL     1      18.991   3.659  52.303  1.00  0.00    -0.271 OA
HETATM    5  C8  UNL     1      19.731   2.592  50.398  1.00  0.00     0.278 C 
HETATM    6  O2  UNL     1      20.982   2.406  49.749  1.00  0.00    -0.341 OA
HETATM    7  C9  UNL     1      22.264   2.452  50.283  1.00  0.00     0.080 A 
HETATM    8  C10 UNL     1      23.188   3.009  49.458  1.00  0.00     0.070 A 
HETATM    9  C11 UNL     1      24.499   3.117  49.863  1.00  0.00     0.074 A 
HETATM   10  N3  UNL     1      25.381   3.684  48.989  1.00  0.00    -0.241 NA
HETATM   11  C12 UNL     1      26.681   3.821  49.321  1.00  0.00     0.236 A 
HETATM   12  N4  UNL     1      27.063   3.385  50.519  1.00  0.00    -0.224 NA
HETATM   13  C13 UNL     1      26.294   2.819  51.448  1.00  0.00     0.142 A 
HETATM   14  C20 UNL     1      24.974   2.691  51.086  1.00  0.00     0.039 A 
HETATM   15  C21 UNL     1      23.994   2.143  51.863  1.00  0.00     0.029 A 
HETATM   16  C22 UNL     1      22.667   2.006  51.515  1.00  0.00     0.000 A 
HETATM   17  H13 UNL     1      20.573   2.585  53.770  1.00  0.00     0.163 HD
ENDROOT
BRANCH  13  18
HETATM   18  N5  UNL     1      26.704   2.360  52.714  1.00  0.00    -0.340 N 
HETATM   19  H18 UNL     1      26.416   2.827  53.592  1.00  0.00     0.167 HD
BRANCH  18  20
HETATM   20  C14 UNL     1      27.531   1.249  53.005  1.00  0.00     0.033 A 
HETATM   21  C15 UNL     1      28.789   1.370  53.537  1.00  0.00     0.029 A 
HETATM   22  C16 UNL     1      29.605   0.309  53.834  1.00  0.00     0.002 A 
HETATM   23  C17 UNL     1      29.188  -0.983  53.604  1.00  0.00     0.000 A 
HETATM   24  C18 UNL     1      27.932  -1.166  53.071  1.00  0.00     0.002 A 
HETATM   25  C19 UNL     1      27.164  -0.062  52.797  1.00  0.00     0.029 A 
ENDBRANCH  18  20
ENDBRANCH  13  18
BRANCH   1  26
HETATM   26  C5  UNL     1      21.240   0.113  51.945  1.00  0.00     0.138 C 
BRANCH  26  27
HETATM   27  N1  UNL     1      20.994  -0.918  52.916  1.00  0.00    -0.226 NA
HETATM   28 CL1  UNL     1      22.341  -1.053  53.973  1.00  0.00    -0.022 Cl
BRANCH  27  29
HETATM   29  C4  UNL     1      19.744  -0.787  53.621  1.00  0.00     0.108 C 
BRANCH  29  30
HETATM   30  C3  UNL     1      18.559  -0.706  52.689  1.00  0.00     0.015 C 
BRANCH  30  31
HETATM   31  C2  UNL     1      17.327  -1.408  53.279  1.00  0.00    -0.003 C 
HETATM   32  C1  UNL     1      17.703  -2.844  53.548  1.00  0.00     0.005 C 
ENDBRANCH  30  31
ENDBRANCH  29  30
ENDBRANCH  27  29
ENDBRANCH  26  27
ENDBRANCH   1  26
TORSDOF 7
ENDMDL
MODEL 3
REMARK VINA RESULT:      -8.1      2.294      4.741
REMARK  7 active torsions:
REMARK  status: ('A' for Active; 'I' for Inactive)
REMARK    1  A    between atoms: C2_2  and  C3_3 
REMARK    2  A    between atoms: C3_3  and  C4_4 
REMARK    3  A    between atoms: C4_4  and  N1_5 
REMARK    4  A    between atoms: N1_5  and  C5_7 
REMARK    5  A    between atoms: C5_7  and  C6_8 
REMARK    6  A    between atoms: C13_20  and  N5_21 
REMARK    7  A    between atoms: N5_21  and  C14_22 
ROOT
HETATM    1  C6  UNL     1      21.508   1.502  52.707  1.00  0.00     0.135 C 
HETATM    2  N2  UNL     1      20.426   2.459  52.840  1.00  0.00    -0.349 N 
HETATM    3  C7  UNL     1      19.554   2.937  51.823  1.00  0.00     0.242 C 
HETATM    4  O1  UNL     1      18.721   3.816  52.208  1.00  0.00    -0.271 OA
HETATM    5  C8  UNL     1      19.463   2.578  50.410  1.00  0.00     0.278 C 
HETATM    6  O2  UNL     1      20.718   2.317  49.795  1.00  0.00    -0.341 OA
HETATM    7  C9  UNL     1      21.994   2.384  50.340  1.00  0.00     0.080 A 
HETATM    8  C10 UNL     1      22.938   2.853  49.484  1.00  0.00     0.070 A 
HETATM    9  C11 UNL     1      24.246   2.972  49.896  1.00  0.00     0.074 A 
HETATM   10  N3  UNL     1      25.148   3.448  48.988  1.00  0.00    -0.241 NA
HETATM   11  C12 UNL     1      26.446   3.589  49.325  1.00  0.00     0.236 A 
HETATM   12  N4  UNL     1      26.806   3.249  50.561  1.00  0.00    -0.224 NA
HETATM   13  C13 UNL     1      26.017   2.777  51.524  1.00  0.00     0.142 A 
HETATM   14  C20 UNL     1      24.699   2.642  51.156  1.00  0.00     0.039 A 
HETATM   15  C21 UNL     1      23.699   2.179  51.963  1.00  0.00     0.029 A 
HETATM   16  C22 UNL     1      22.374   2.037  51.611  1.00  0.00     0.000 A 
HETATM   17  H13 UNL     1      20.266   2.841  53.781  1.00  0.00     0.163 HD
ENDROOT
BRANCH  13  18
HETATM   18  N5  UNL     1      26.403   2.419  52.829  1.00  0.00    -0.340 N 
HETATM   19  H18 UNL     1      26.021   2.891  53.668  1.00  0.00     0.167 HD
BRANCH  18  20
HETATM   20  C14 UNL     1      27.323   1.415  53.214  1.00  0.00     0.033 A 
HETATM   21  C15 UNL     1      27.219   0.109  52.811  1.00  0.00     0.029 A 
HETATM   22  C16 UNL     1      28.100  -0.880  53.164  1.00  0.00     0.002 A 
HETATM   23  C17 UNL     1      29.179  -0.601  53.974  1.00  0.00     0.000 A 
HETATM   24  C18 UNL     1      29.336   0.696  54.409  1.00  0.00     0.002 A 
HETATM   25  C19 UNL     1      28.418   1.639  54.019  1.00  0.00     0.029 A 
ENDBRANCH  18  20
ENDBRANCH  13  18
BRANCH   1  26
HETATM   26  C5  UNL     1      20.907   0.212  52.179  1.00  0.00     0.138 C 
BRANCH  26  27
HETATM   27  N1  UNL     1      19.917  -0.331  53.069  1.00  0.00    -0.226 NA
HETATM   28 CL1  UNL     1      18.514  -0.767  52.178  1.00  0.00    -0.022 Cl
BRANCH  27  29
HETATM   29  C4  UNL     1      20.395  -1.397  53.912  1.00  0.00     0.108 C 
BRANCH  29  30
HETATM   30  C3  UNL     1      21.871  -1.657  53.738  1.00  0.00     0.015 C 
BRANCH  30  31
HETATM   31  C2  UNL     1      22.671  -1.228  54.976  1.00  0.00    -0.003 C 
HETATM   32  C1  UNL     1      24.020  -0.742  54.504  1.00  0.00     0.005 C 
ENDBRANCH  30  31
ENDBRANCH  29  30
ENDBRANCH  27  29
ENDBRANCH  26  27
ENDBRANCH   1  26
TORSDOF 7
ENDMDL
MODEL 4
REMARK VINA RESULT:      -8.1      1.770      2.212
REMARK  7 active torsions:
REMARK  status: ('A' for Active; 'I' for Inactive)
REMARK    1  A    between atoms: C2_2  and  C3_3 
REMARK    2  A    between atoms: C3_3  and  C4_4 
REMARK    3  A    between atoms: C4_4  and  N1_5 
REMARK    4  A    between atoms: N1_5  and  C5_7 
REMARK    5  A    between atoms: C5_7  and  C6_8 
REMARK    6  A    between atoms: C13_20  and  N5_21 
REMARK    7  A    between atoms: N5_21  and  C14_22 
ROOT
HETATM    1  C6  UNL     1      23.286   3.834  50.406  1.00  0.00     0.135 C 
HETATM    2  N2  UNL     1      22.352   3.776  49.297  1.00  0.00    -0.349 N 
HETATM    3  C7  UNL     1      20.942   3.956  49.335  1.00  0.00     0.242 C 
HETATM    4  O1  UNL     1      20.357   3.801  48.218  1.00  0.00    -0.271 OA
HETATM    5  C8  UNL     1      20.060   4.291  50.451  1.00  0.00     0.278 C 
HETATM    6  O2  UNL     1      20.440   3.700  51.688  1.00  0.00    -0.341 OA
HETATM    7  C9  UNL     1      21.497   2.842  51.964  1.00  0.00     0.080 A 
HETATM    8  C10 UNL     1      21.206   1.882  52.880  1.00  0.00     0.070 A 
HETATM    9  C11 UNL     1      22.164   0.964  53.245  1.00  0.00     0.074 A 
HETATM   10  N3  UNL     1      21.811   0.024  54.171  1.00  0.00    -0.241 NA
HETATM   11  C12 UNL     1      22.701  -0.905  54.575  1.00  0.00     0.236 A 
HETATM   12  N4  UNL     1      23.920  -0.868  54.042  1.00  0.00    -0.224 NA
HETATM   13  C13 UNL     1      24.372  -0.003  53.135  1.00  0.00     0.142 A 
HETATM   14  C20 UNL     1      23.447   0.934  52.740  1.00  0.00     0.039 A 
HETATM   15  C21 UNL     1      23.670   1.924  51.827  1.00  0.00     0.029 A 
HETATM   16  C22 UNL     1      22.755   2.871  51.420  1.00  0.00     0.000 A 
HETATM   17  H13 UNL     1      22.753   3.581  48.371  1.00  0.00     0.163 HD
ENDROOT
BRANCH  13  18
HETATM   18  N5  UNL     1      25.663   0.031  52.575  1.00  0.00    -0.340 N 
HETATM   19  H18 UNL     1      25.866  -0.342  51.631  1.00  0.00     0.167 HD
BRANCH  18  20
HETATM   20  C14 UNL     1      26.845   0.547  53.157  1.00  0.00     0.033 A 
HETATM   21  C15 UNL     1      27.308   1.815  52.915  1.00  0.00     0.029 A 
HETATM   22  C16 UNL     1      28.446   2.340  53.471  1.00  0.00     0.002 A 
HETATM   23  C17 UNL     1      29.213   1.591  54.337  1.00  0.00     0.000 A 
HETATM   24  C18 UNL     1      28.796   0.310  54.619  1.00  0.00     0.002 A 
HETATM   25  C19 UNL     1      27.647  -0.156  54.028  1.00  0.00     0.029 A 
ENDBRANCH  18  20
ENDBRANCH  13  18
BRANCH   1  26
HETATM   26  C5  UNL     1      23.164   5.213  51.027  1.00  0.00     0.138 C 
BRANCH  26  27
HETATM   27  N1  UNL     1      23.779   6.230  50.219  1.00  0.00    -0.226 NA
HETATM   28 CL1  UNL     1      23.194   7.777  50.688  1.00  0.00    -0.022 Cl
BRANCH  27  29
HETATM   29  C4  UNL     1      25.217   6.169  50.175  1.00  0.00     0.108 C 
BRANCH  29  30
HETATM   30  C3  UNL     1      25.741   5.812  48.805  1.00  0.00     0.015 C 
BRANCH  30  31
HETATM   31  C2  UNL     1      27.047   5.011  48.890  1.00  0.00    -0.003 C 
HETATM   32  C1  UNL     1      26.719   3.659  49.476  1.00  0.00     0.005 C 
ENDBRANCH  30  31
ENDBRANCH  29  30
ENDBRANCH  27  29
ENDBRANCH  26  27
ENDBRANCH   1  26
TORSDOF 7
ENDMDL
MODEL 5
REMARK VINA RESULT:      -8.1      2.809      6.220
REMARK  7 active torsions:
REMARK  status: ('A' for Active; 'I' for Inactive)
REMARK    1  A    between atoms: C2_2  and  C3_3 
REMARK    2  A    between atoms: C3_3  and  C4_4 
REMARK    3  A    between atoms: C4_4  and  N1_5 
REMARK    4  A    between atoms: N1_5  and  C5_7 
REMARK    5  A    between atoms: C5_7  and  C6_8 
REMARK    6  A    between atoms: C13_20  and  N5_21 
REMARK    7  A    between atoms: N5_21  and  C14_22 
ROOT
HETATM    1  C6  UNL     1      25.262   2.623  52.066  1.00  0.00     0.135 C 
HETATM    2  N2  UNL     1      26.335   2.883  53.007  1.00  0.00    -0.349 N 
HETATM    3  C7  UNL     1      27.342   1.983  53.452  1.00  0.00     0.242 C 
HETATM    4  O1  UNL     1      28.134   2.460  54.323  1.00  0.00    -0.271 OA
HETATM    5  C8  UNL     1      27.612   0.599  53.067  1.00  0.00     0.278 C 
HETATM    6  O2  UNL     1      26.443  -0.171  52.816  1.00  0.00    -0.341 OA
HETATM    7  C9  UNL     1      25.108   0.199  52.915  1.00  0.00     0.080 A 
HETATM    8  C10 UNL     1      24.294  -0.781  53.384  1.00  0.00     0.070 A 
HETATM    9  C11 UNL     1      22.946  -0.547  53.532  1.00  0.00     0.074 A 
HETATM   10  N3  UNL     1      22.180  -1.572  54.007  1.00  0.00    -0.241 NA
HETATM   11  C12 UNL     1      20.852  -1.412  54.175  1.00  0.00     0.236 A 
HETATM   12  N4  UNL     1      20.326  -0.229  53.863  1.00  0.00    -0.224 NA
HETATM   13  C13 UNL     1      20.973   0.837  53.396  1.00  0.00     0.142 A 
HETATM   14  C20 UNL     1      22.325   0.647  53.232  1.00  0.00     0.039 A 
HETATM   15  C21 UNL     1      23.201   1.587  52.767  1.00  0.00     0.029 A 
HETATM   16  C22 UNL     1      24.558   1.414  52.596  1.00  0.00     0.000 A 
HETATM   17  H13 UNL     1      26.378   3.831  53.403  1.00  0.00     0.163 HD
ENDROOT
BRANCH  13  18
HETATM   18  N5  UNL     1      20.412   2.085  53.067  1.00  0.00    -0.340 N 
HETATM   19  H18 UNL     1      20.012   2.717  53.783  1.00  0.00     0.167 HD
BRANCH  18  20
HETATM   20  C14 UNL     1      20.297   2.671  51.785  1.00  0.00     0.033 A 
HETATM   21  C15 UNL     1      19.947   1.961  50.665  1.00  0.00     0.029 A 
HETATM   22  C16 UNL     1      19.823   2.507  49.413  1.00  0.00     0.002 A 
HETATM   23  C17 UNL     1      20.052   3.849  49.208  1.00  0.00     0.000 A 
HETATM   24  C18 UNL     1      20.407   4.613  50.297  1.00  0.00     0.002 A 
HETATM   25  C19 UNL     1      20.514   4.006  51.523  1.00  0.00     0.029 A 
ENDBRANCH  18  20
ENDBRANCH  13  18
BRANCH   1  26
HETATM   26  C5  UNL     1      25.902   2.199  50.757  1.00  0.00     0.138 C 
BRANCH  26  27
HETATM   27  N1  UNL     1      25.539   3.064  49.668  1.00  0.00    -0.226 NA
HETATM   28 CL1  UNL     1      23.829   3.100  49.502  1.00  0.00    -0.022 Cl
BRANCH  27  29
HETATM   29  C4  UNL     1      26.119   4.381  49.733  1.00  0.00     0.108 C 
BRANCH  29  30
HETATM   30  C3  UNL     1      27.327   4.527  48.839  1.00  0.00     0.015 C 
BRANCH  30  31
HETATM   31  C2  UNL     1      27.565   5.991  48.446  1.00  0.00    -0.003 C 
HETATM   32  C1  UNL     1      29.009   6.123  48.027  1.00  0.00     0.005 C 
ENDBRANCH  30  31
ENDBRANCH  29  30
ENDBRANCH  27  29
ENDBRANCH  26  27
ENDBRANCH   1  26
TORSDOF 7
ENDMDL
MODEL 6
REMARK VINA RESULT:      -7.7      2.345      6.440
REMARK  7 active torsions:
REMARK  status: ('A' for Active; 'I' for Inactive)
REMARK    1  A    between atoms: C2_2  and  C3_3 
REMARK    2  A    between atoms: C3_3  and  C4_4 
REMARK    3  A    between atoms: C4_4  and  N1_5 
REMARK    4  A    between atoms: N1_5  and  C5_7 
REMARK    5  A    between atoms: C5_7  and  C6_8 
REMARK    6  A    between atoms: C13_20  and  N5_21 
REMARK    7  A    between atoms: N5_21  and  C14_22 
ROOT
HETATM    1  C6  UNL     1      23.982   1.873  52.218  1.00  0.00     0.135 C 
HETATM    2  N2  UNL     1      22.947   1.665  53.214  1.00  0.00    -0.349 N 
HETATM    3  C7  UNL     1      21.847   0.766  53.153  1.00  0.00     0.242 C 
HETATM    4  O1  UNL     1      21.059   0.824  54.148  1.00  0.00    -0.271 OA
HETATM    5  C8  UNL     1      21.478  -0.211  52.131  1.00  0.00     0.278 C 
HETATM    6  O2  UNL     1      21.747   0.212  50.800  1.00  0.00    -0.341 OA
HETATM    7  C9  UNL     1      22.274   1.416  50.350  1.00  0.00     0.080 A 
HETATM    8  C10 UNL     1      21.730   1.858  49.187  1.00  0.00     0.070 A 
HETATM    9  C11 UNL     1      22.161   3.040  48.630  1.00  0.00     0.074 A 
HETATM   10  N3  UNL     1      21.577   3.431  47.459  1.00  0.00    -0.241 NA
HETATM   11  C12 UNL     1      21.952   4.578  46.857  1.00  0.00     0.236 A 
HETATM   12  N4  UNL     1      22.903   5.303  47.444  1.00  0.00    -0.224 NA
HETATM   13  C13 UNL     1      23.538   5.022  48.580  1.00  0.00     0.142 A 
HETATM   14  C20 UNL     1      23.138   3.848  49.173  1.00  0.00     0.039 A 
HETATM   15  C21 UNL     1      23.641   3.344  50.339  1.00  0.00     0.029 A 
HETATM   16  C22 UNL     1      23.252   2.169  50.947  1.00  0.00     0.000 A 
HETATM   17  H13 UNL     1      23.014   2.233  54.068  1.00  0.00     0.163 HD
ENDROOT
BRANCH  13  18
HETATM   18  N5  UNL     1      24.543   5.792  49.195  1.00  0.00    -0.340 N 
HETATM   19  H18 UNL     1      24.354   6.392  50.018  1.00  0.00     0.167 HD
BRANCH  18  20
HETATM   20  C14 UNL     1      25.907   5.886  48.830  1.00  0.00     0.033 A 
HETATM   21  C15 UNL     1      26.790   4.845  48.961  1.00  0.00     0.029 A 
HETATM   22  C16 UNL     1      28.113   4.908  48.608  1.00  0.00     0.002 A 
HETATM   23  C17 UNL     1      28.645   6.066  48.084  1.00  0.00     0.000 A 
HETATM   24  C18 UNL     1      27.804   7.145  47.929  1.00  0.00     0.002 A 
HETATM   25  C19 UNL     1      26.489   7.016  48.302  1.00  0.00     0.029 A 
ENDBRANCH  18  20
ENDBRANCH  13  18
BRANCH   1  26
HETATM   26  C5  UNL     1      24.677   0.540  52.005  1.00  0.00     0.138 C 
BRANCH  26  27
HETATM   27  N1  UNL     1      26.092   0.620  52.250  1.00  0.00    -0.226 NA
HETATM   28 CL1  UNL     1      26.576   2.267  52.323  1.00  0.00    -0.022 Cl
BRANCH  27  29
HETATM   29  C4  UNL     1      26.545  -0.144  53.384  1.00  0.00     0.108 C 
BRANCH  29  30
HETATM   30  C3  UNL     1      27.741  -1.007  53.061  1.00  0.00     0.015 C 
BRANCH  30  31
HETATM   31  C2  UNL     1      29.052  -0.344  53.504  1.00  0.00    -0.003 C 
HETATM   32  C1  UNL     1      28.782   0.388  54.796  1.00  0.00     0.005 C 
ENDBRANCH  30  31
ENDBRANCH  29  30
ENDBRANCH  27  29
ENDBRANCH  26  27
ENDBRANCH   1  26
TORSDOF 7
ENDMDL
MODEL 7
REMARK VINA RESULT:      -7.6      1.837      2.398
REMARK  7 active torsions:
REMARK  status: ('A' for Active; 'I' for Inactive)
REMARK    1  A    between atoms: C2_2  and  C3_3 
REMARK    2  A    between atoms: C3_3  and  C4_4 
REMARK    3  A    between atoms: C4_4  and  N1_5 
REMARK    4  A    between atoms: N1_5  and  C5_7 
REMARK    5  A    between atoms: C5_7  and  C6_8 
REMARK    6  A    between atoms: C13_20  and  N5_21 
REMARK    7  A    between atoms: N5_21  and  C14_22 
ROOT
HETATM    1  C6  UNL     1      22.063   3.498  50.928  1.00  0.00     0.135 C 
HETATM    2  N2  UNL     1      21.104   3.204  49.879  1.00  0.00    -0.349 N 
HETATM    3  C7  UNL     1      19.700   3.018  50.009  1.00  0.00     0.242 C 
HETATM    4  O1  UNL     1      19.102   2.721  48.928  1.00  0.00    -0.271 OA
HETATM    5  C8  UNL     1      18.837   3.113  51.184  1.00  0.00     0.278 C 
HETATM    6  O2  UNL     1      19.435   2.637  52.383  1.00  0.00    -0.341 OA
HETATM    7  C9  UNL     1      20.691   2.077  52.576  1.00  0.00     0.080 A 
HETATM    8  C10 UNL     1      20.716   1.073  53.490  1.00  0.00     0.070 A 
HETATM    9  C11 UNL     1      21.898   0.430  53.777  1.00  0.00     0.074 A 
HETATM   10  N3  UNL     1      21.859  -0.570  54.706  1.00  0.00    -0.241 NA
HETATM   11  C12 UNL     1      22.980  -1.242  55.036  1.00  0.00     0.236 A 
HETATM   12  N4  UNL     1      24.113  -0.893  54.428  1.00  0.00    -0.224 NA
HETATM   13  C13 UNL     1      24.268   0.061  53.511  1.00  0.00     0.142 A 
HETATM   14  C20 UNL     1      23.111   0.730  53.193  1.00  0.00     0.039 A 
HETATM   15  C21 UNL     1      23.013   1.747  52.286  1.00  0.00     0.029 A 
HETATM   16  C22 UNL     1      21.862   2.429  51.955  1.00  0.00     0.000 A 
HETATM   17  H13 UNL     1      21.479   3.121  48.926  1.00  0.00     0.163 HD
ENDROOT
BRANCH  13  18
HETATM   18  N5  UNL     1      25.468   0.425  52.872  1.00  0.00    -0.340 N 
HETATM   19  H18 UNL     1      25.488   1.060  52.054  1.00  0.00     0.167 HD
BRANCH  18  20
HETATM   20  C14 UNL     1      26.783   0.020  53.204  1.00  0.00     0.033 A 
HETATM   21  C15 UNL     1      27.637   0.789  53.952  1.00  0.00     0.029 A 
HETATM   22  C16 UNL     1      28.912   0.416  54.293  1.00  0.00     0.002 A 
HETATM   23  C17 UNL     1      29.420  -0.797  53.886  1.00  0.00     0.000 A 
HETATM   24  C18 UNL     1      28.606  -1.613  53.132  1.00  0.00     0.002 A 
HETATM   25  C19 UNL     1      27.340  -1.180  52.825  1.00  0.00     0.029 A 
ENDBRANCH  18  20
ENDBRANCH  13  18
BRANCH   1  26
HETATM   26  C5  UNL     1      21.633   4.798  51.581  1.00  0.00     0.138 C 
BRANCH  26  27
HETATM   27  N1  UNL     1      22.650   5.811  51.498  1.00  0.00    -0.226 NA
HETATM   28 CL1  UNL     1      24.132   5.104  50.992  1.00  0.00    -0.022 Cl
BRANCH  27  29
HETATM   29  C4  UNL     1      22.285   6.960  50.710  1.00  0.00     0.108 C 
BRANCH  29  30
HETATM   30  C3  UNL     1      23.425   7.936  50.545  1.00  0.00     0.015 C 
BRANCH  30  31
HETATM   31  C2  UNL     1      23.663   8.282  49.069  1.00  0.00    -0.003 C 
HETATM   32  C1  UNL     1      22.614   9.286  48.658  1.00  0.00     0.005 C 
ENDBRANCH  30  31
ENDBRANCH  29  30
ENDBRANCH  27  29
ENDBRANCH  26  27
ENDBRANCH   1  26
TORSDOF 7
ENDMDL
MODEL 8
REMARK VINA RESULT:      -7.1      7.665     11.197
REMARK  7 active torsions:
REMARK  status: ('A' for Active; 'I' for Inactive)
REMARK    1  A    between atoms: C2_2  and  C3_3 
REMARK    2  A    between atoms: C3_3  and  C4_4 
REMARK    3  A    between atoms: C4_4  and  N1_5 
REMARK    4  A    between atoms: N1_5  and  C5_7 
REMARK    5  A    between atoms: C5_7  and  C6_8 
REMARK    6  A    between atoms: C13_20  and  N5_21 
REMARK    7  A    between atoms: N5_21  and  C14_22 
ROOT
HETATM    1  C6  UNL     1      31.440   6.577  47.045  1.00  0.00     0.135 C 
HETATM    2  N2  UNL     1      31.967   7.336  45.926  1.00  0.00    -0.349 N 
HETATM    3  C7  UNL     1      32.681   8.565  45.966  1.00  0.00     0.242 C 
HETATM    4  O1  UNL     1      32.985   9.040  44.827  1.00  0.00    -0.271 OA
HETATM    5  C8  UNL     1      33.123   9.366  47.105  1.00  0.00     0.278 C 
HETATM    6  O2  UNL     1      32.209   9.378  48.195  1.00  0.00    -0.341 OA
HETATM    7  C9  UNL     1      30.967   8.768  48.306  1.00  0.00     0.080 A 
HETATM    8  C10 UNL     1      30.048   9.501  48.986  1.00  0.00     0.070 A 
HETATM    9  C11 UNL     1      28.774   9.014  49.169  1.00  0.00     0.074 A 
HETATM   10  N3  UNL     1      27.896   9.797  49.862  1.00  0.00    -0.241 NA
HETATM   11  C12 UNL     1      26.632   9.381  50.079  1.00  0.00     0.236 A 
HETATM   12  N4  UNL     1      26.281   8.190  49.597  1.00  0.00    -0.224 NA
HETATM   13  C13 UNL     1      27.049   7.346  48.911  1.00  0.00     0.142 A 
HETATM   14  C20 UNL     1      28.332   7.793  48.703  1.00  0.00     0.039 A 
HETATM   15  C21 UNL     1      29.305   7.110  48.031  1.00  0.00     0.029 A 
HETATM   16  C22 UNL     1      30.596   7.543  47.814  1.00  0.00     0.000 A 
HETATM   17  H13 UNL     1      31.807   6.942  44.990  1.00  0.00     0.163 HD
ENDROOT
BRANCH  13  18
HETATM   18  N5  UNL     1      26.672   6.088  48.404  1.00  0.00    -0.340 N 
HETATM   19  H18 UNL     1      26.776   5.841  47.404  1.00  0.00     0.167 HD
BRANCH  18  20
HETATM   20  C14 UNL     1      26.119   4.998  49.117  1.00  0.00     0.033 A 
HETATM   21  C15 UNL     1      26.852   3.907  49.506  1.00  0.00     0.029 A 
HETATM   22  C16 UNL     1      26.341   2.843  50.204  1.00  0.00     0.002 A 
HETATM   23  C17 UNL     1      25.012   2.815  50.565  1.00  0.00     0.000 A 
HETATM   24  C18 UNL     1      24.226   3.885  50.201  1.00  0.00     0.002 A 
HETATM   25  C19 UNL     1      24.799   4.919  49.504  1.00  0.00     0.029 A 
ENDBRANCH  18  20
ENDBRANCH  13  18
BRANCH   1  26
HETATM   26  C5  UNL     1      32.611   6.228  47.945  1.00  0.00     0.138 C 
BRANCH  26  27
HETATM   27  N1  UNL     1      32.798   4.809  48.069  1.00  0.00    -0.226 NA
HETATM   28 CL1  UNL     1      31.639   3.984  47.104  1.00  0.00    -0.022 Cl
BRANCH  27  29
HETATM   29  C4  UNL     1      34.145   4.361  47.825  1.00  0.00     0.108 C 
BRANCH  29  30
HETATM   30  C3  UNL     1      34.212   3.260  46.794  1.00  0.00     0.015 C 
BRANCH  30  31
HETATM   31  C2  UNL     1      35.120   3.643  45.617  1.00  0.00    -0.003 C 
HETATM   32  C1  UNL     1      34.381   4.655  44.778  1.00  0.00     0.005 C 
ENDBRANCH  30  31
ENDBRANCH  29  30
ENDBRANCH  27  29
ENDBRANCH  26  27
ENDBRANCH   1  26
TORSDOF 7
ENDMDL
MODEL 9
REMARK VINA RESULT:      -7.1      2.474      3.198
REMARK  7 active torsions:
REMARK  status: ('A' for Active; 'I' for Inactive)
REMARK    1  A    between atoms: C2_2  and  C3_3 
REMARK    2  A    between atoms: C3_3  and  C4_4 
REMARK    3  A    between atoms: C4_4  and  N1_5 
REMARK    4  A    between atoms: N1_5  and  C5_7 
REMARK    5  A    between atoms: C5_7  and  C6_8 
REMARK    6  A    between atoms: C13_20  and  N5_21 
REMARK    7  A    between atoms: N5_21  and  C14_22 
ROOT
HETATM    1  C6  UNL     1      23.705   3.712  49.447  1.00  0.00     0.135 C 
HETATM    2  N2  UNL     1      22.875   3.502  48.276  1.00  0.00    -0.349 N 
HETATM    3  C7  UNL     1      21.464   3.651  48.169  1.00  0.00     0.242 C 
HETATM    4  O1  UNL     1      20.984   3.353  47.031  1.00  0.00    -0.271 OA
HETATM    5  C8  UNL     1      20.482   4.091  49.157  1.00  0.00     0.278 C 
HETATM    6  O2  UNL     1      20.758   3.658  50.483  1.00  0.00    -0.341 OA
HETATM    7  C9  UNL     1      21.798   2.864  50.949  1.00  0.00     0.080 A 
HETATM    8  C10 UNL     1      21.440   2.010  51.943  1.00  0.00     0.070 A 
HETATM    9  C11 UNL     1      22.375   1.164  52.495  1.00  0.00     0.074 A 
HETATM   10  N3  UNL     1      21.955   0.330  53.492  1.00  0.00    -0.241 NA
HETATM   11  C12 UNL     1      22.818  -0.523  54.078  1.00  0.00     0.236 A 
HETATM   12  N4  UNL     1      24.080  -0.518  53.652  1.00  0.00    -0.224 NA
HETATM   13  C13 UNL     1      24.598   0.246  52.694  1.00  0.00     0.142 A 
HETATM   14  C20 UNL     1      23.698   1.108  52.112  1.00  0.00     0.039 A 
HETATM   15  C21 UNL     1      23.988   1.991  51.111  1.00  0.00     0.029 A 
HETATM   16  C22 UNL     1      23.099   2.861  50.517  1.00  0.00     0.000 A 
HETATM   17  H13 UNL     1      23.359   3.212  47.417  1.00  0.00     0.163 HD
ENDROOT
BRANCH  13  18
HETATM   18  N5  UNL     1      25.934   0.247  52.247  1.00  0.00    -0.340 N 
HETATM   19  H18 UNL     1      26.204  -0.104  51.312  1.00  0.00     0.167 HD
BRANCH  18  20
HETATM   20  C14 UNL     1      27.078   0.698  52.946  1.00  0.00     0.033 A 
HETATM   21  C15 UNL     1      27.869  -0.129  53.702  1.00  0.00     0.029 A 
HETATM   22  C16 UNL     1      28.986   0.282  54.382  1.00  0.00     0.002 A 
HETATM   23  C17 UNL     1      29.388   1.599  54.339  1.00  0.00     0.000 A 
HETATM   24  C18 UNL     1      28.633   2.476  53.594  1.00  0.00     0.002 A 
HETATM   25  C19 UNL     1      27.526   2.000  52.937  1.00  0.00     0.029 A 
ENDBRANCH  18  20
ENDBRANCH  13  18
BRANCH   1  26
HETATM   26  C5  UNL     1      23.508   5.151  49.888  1.00  0.00     0.138 C 
BRANCH  26  27
HETATM   27  N1  UNL     1      24.571   6.008  49.439  1.00  0.00    -0.226 NA
HETATM   28 CL1  UNL     1      25.985   5.076  49.151  1.00  0.00    -0.022 Cl
BRANCH  27  29
HETATM   29  C4  UNL     1      24.225   6.854  48.325  1.00  0.00     0.108 C 
BRANCH  29  30
HETATM   30  C3  UNL     1      22.838   7.437  48.449  1.00  0.00     0.015 C 
BRANCH  30  31
HETATM   31  C2  UNL     1      22.841   8.734  49.269  1.00  0.00    -0.003 C 
HETATM   32  C1  UNL     1      21.613   9.522  48.886  1.00  0.00     0.005 C 
ENDBRANCH  30  31
ENDBRANCH  29  30
ENDBRANCH  27  29
ENDBRANCH  26  27
ENDBRANCH   1  26
TORSDOF 7
ENDMDL
