MODEL 1
REMARK VINA RESULT:      -7.1      0.000      0.000
REMARK  3 active torsions:
REMARK  status: ('A' for Active; 'I' for Inactive)
REMARK    1  A    between atoms: C3_3  and  O1_4 
REMARK    2  A    between atoms: C12_15  and  C13_16 
REMARK    3  A    between atoms: C14_17  and  S1_18 
ROOT
HETATM    1  C1  UNL     1      22.749  -1.431  55.321  1.00  0.00     0.046 C 
HETATM    2  C2  UNL     1      23.510  -0.969  54.102  1.00  0.00    -0.054 C 
HETATM    3  C3  UNL     1      24.789  -0.839  54.547  1.00  0.00     0.045 C 
HETATM    4  C4  UNL     1      26.196  -0.447  54.121  1.00  0.00     0.065 C 
HETATM    5  C5  UNL     1      26.076   0.162  52.701  1.00  0.00     0.009 C 
HETATM    6  C6  UNL     1      25.154   1.359  52.830  1.00  0.00     0.029 C 
HETATM    7  C7  UNL     1      24.729   1.835  51.494  1.00  0.00     0.201 C 
HETATM    8  O2  UNL     1      23.665   2.782  51.638  1.00  0.00    -0.276 OA
HETATM    9  N1  UNL     1      22.506   2.000  51.720  1.00  0.00    -0.235 N 
HETATM   10  C8  UNL     1      21.631   1.401  50.735  1.00  0.00     0.116 C 
HETATM   11  C9  UNL     1      21.161   0.243  51.251  1.00  0.00     0.009 C 
HETATM   12  C10 UNL     1      21.677   0.114  52.692  1.00  0.00     0.067 C 
HETATM   13  C11 UNL     1      22.699  -0.876  52.871  1.00  0.00     0.056 C 
HETATM   14  C12 UNL     1      20.532   0.326  53.628  1.00  0.00     0.263 C 
HETATM   15  N2  UNL     1      20.429   1.662  52.949  1.00  0.00     0.119 N 
HETATM   16  C15 UNL     1      21.922   1.566  52.961  1.00  0.00     0.362 C 
HETATM   17  H21 UNL     1      20.068   2.359  53.613  1.00  0.00     0.319 HD
ENDROOT
BRANCH  14  18
HETATM   18  C13 UNL     1      19.388  -0.558  53.405  1.00  0.00     0.016 C 
HETATM   19  C14 UNL     1      19.017  -1.768  53.809  1.00  0.00     0.040 C 
BRANCH  19  20
HETATM   20  S1  UNL     1      17.518  -2.684  53.392  1.00  0.00    -0.155 SA
HETATM   21  H20 UNL     1      17.978  -3.939  52.898  1.00  0.00     0.106 HD
ENDBRANCH  19  20
ENDBRANCH  14  18
BRANCH   3  22
HETATM   22  O1  UNL     1      24.903  -1.173  55.895  1.00  0.00    -0.365 OA
HETATM   23  H4  UNL     1      25.376  -2.045  56.111  1.00  0.00     0.217 HD
ENDBRANCH   3  22
TORSDOF 3
ENDMDL
MODEL 2
REMARK VINA RESULT:      -6.9      1.559      1.829
REMARK  3 active torsions:
REMARK  status: ('A' for Active; 'I' for Inactive)
REMARK    1  A    between atoms: C3_3  and  O1_4 
REMARK    2  A    between atoms: C12_15  and  C13_16 
REMARK    3  A    between atoms: C14_17  and  S1_18 
ROOT
HETATM    1  C1  UNL     1      21.166  -0.752  54.369  1.00  0.00     0.046 C 
HETATM    2  C2  UNL     1      22.444  -0.564  53.587  1.00  0.00    -0.054 C 
HETATM    3  C3  UNL     1      23.421  -0.892  54.474  1.00  0.00     0.045 C 
HETATM    4  C4  UNL     1      24.928  -1.006  54.644  1.00  0.00     0.065 C 
HETATM    5  C5  UNL     1      25.566  -0.369  53.382  1.00  0.00     0.009 C 
HETATM    6  C6  UNL     1      25.092   1.071  53.348  1.00  0.00     0.029 C 
HETATM    7  C7  UNL     1      25.391   1.685  52.036  1.00  0.00     0.201 C 
HETATM    8  O2  UNL     1      24.710   2.941  51.928  1.00  0.00    -0.276 OA
HETATM    9  N1  UNL     1      23.428   2.608  51.472  1.00  0.00    -0.235 N 
HETATM   10  C8  UNL     1      22.864   2.366  50.163  1.00  0.00     0.116 C 
HETATM   11  C9  UNL     1      21.893   1.434  50.297  1.00  0.00     0.009 C 
HETATM   12  C10 UNL     1      21.741   1.111  51.791  1.00  0.00     0.067 C 
HETATM   13  C11 UNL     1      22.247  -0.175  52.175  1.00  0.00     0.056 C 
HETATM   14  C12 UNL     1      20.453   1.692  52.275  1.00  0.00     0.263 C 
HETATM   15  N2  UNL     1      21.045   2.991  51.811  1.00  0.00     0.119 N 
HETATM   16  C15 UNL     1      22.305   2.383  52.342  1.00  0.00     0.362 C 
HETATM   17  H21 UNL     1      20.694   3.759  52.397  1.00  0.00     0.319 HD
ENDROOT
BRANCH  14  18
HETATM   18  C13 UNL     1      19.270   1.263  51.529  1.00  0.00     0.016 C 
HETATM   19  C14 UNL     1      18.519   0.169  51.465  1.00  0.00     0.040 C 
BRANCH  19  20
HETATM   20  S1  UNL     1      17.066  -0.143  50.440  1.00  0.00    -0.155 SA
HETATM   21  H20 UNL     1      16.655  -1.465  50.774  1.00  0.00     0.106 HD
ENDBRANCH  19  20
ENDBRANCH  14  18
BRANCH   3  22
HETATM   22  O1  UNL     1      22.893  -1.268  55.708  1.00  0.00    -0.365 OA
HETATM   23  H4  UNL     1      22.924  -0.574  56.449  1.00  0.00     0.217 HD
ENDBRANCH   3  22
TORSDOF 3
ENDMDL
MODEL 3
REMARK VINA RESULT:      -6.8      3.217      4.800
REMARK  3 active torsions:
REMARK  status: ('A' for Active; 'I' for Inactive)
REMARK    1  A    between atoms: C3_3  and  O1_4 
REMARK    2  A    between atoms: C12_15  and  C13_16 
REMARK    3  A    between atoms: C14_17  and  S1_18 
ROOT
HETATM    1  C1  UNL     1      25.897   0.592  52.393  1.00  0.00     0.046 C 
HETATM    2  C2  UNL     1      24.689   0.547  53.298  1.00  0.00    -0.054 C 
HETATM    3  C3  UNL     1      24.886  -0.570  54.048  1.00  0.00     0.045 C 
HETATM    4  C4  UNL     1      24.278  -1.424  55.150  1.00  0.00     0.065 C 
HETATM    5  C5  UNL     1      22.842  -0.888  55.385  1.00  0.00     0.009 C 
HETATM    6  C6  UNL     1      22.113  -1.038  54.064  1.00  0.00     0.029 C 
HETATM    7  C7  UNL     1      20.838  -0.286  54.086  1.00  0.00     0.201 C 
HETATM    8  O2  UNL     1      20.297  -0.221  52.762  1.00  0.00    -0.276 OA
HETATM    9  N1  UNL     1      20.930   0.883  52.177  1.00  0.00    -0.235 N 
HETATM   10  C8  UNL     1      20.670   2.306  52.186  1.00  0.00     0.116 C 
HETATM   11  C9  UNL     1      21.861   2.944  52.127  1.00  0.00     0.009 C 
HETATM   12  C10 UNL     1      22.965   1.887  51.973  1.00  0.00     0.067 C 
HETATM   13  C11 UNL     1      23.767   1.690  53.147  1.00  0.00     0.056 C 
HETATM   14  C12 UNL     1      23.506   1.962  50.583  1.00  0.00     0.263 C 
HETATM   15  N2  UNL     1      22.087   1.676  50.184  1.00  0.00     0.119 N 
HETATM   16  C15 UNL     1      22.130   0.791  51.389  1.00  0.00     0.362 C 
HETATM   17  H21 UNL     1      22.076   1.149  49.301  1.00  0.00     0.319 HD
ENDROOT
BRANCH  14  18
HETATM   18  C13 UNL     1      23.994   3.283  50.187  1.00  0.00     0.016 C 
HETATM   19  C14 UNL     1      25.108   3.985  50.356  1.00  0.00     0.040 C 
BRANCH  19  20
HETATM   20  S1  UNL     1      25.496   5.644  49.759  1.00  0.00    -0.155 SA
HETATM   21  H20 UNL     1      26.916   5.670  49.635  1.00  0.00     0.106 HD
ENDBRANCH  19  20
ENDBRANCH  14  18
BRANCH   3  22
HETATM   22  O1  UNL     1      26.077  -1.212  53.714  1.00  0.00    -0.365 OA
HETATM   23  H4  UNL     1      26.171  -1.533  52.756  1.00  0.00     0.217 HD
ENDBRANCH   3  22
TORSDOF 3
ENDMDL
MODEL 4
REMARK VINA RESULT:      -6.7      4.622      6.641
REMARK  3 active torsions:
REMARK  status: ('A' for Active; 'I' for Inactive)
REMARK    1  A    between atoms: C3_3  and  O1_4 
REMARK    2  A    between atoms: C12_15  and  C13_16 
REMARK    3  A    between atoms: C14_17  and  S1_18 
ROOT
HETATM    1  C1  UNL     1      26.576   3.495  50.121  1.00  0.00     0.046 C 
HETATM    2  C2  UNL     1      25.889   4.631  49.402  1.00  0.00    -0.054 C 
HETATM    3  C3  UNL     1      26.916   5.374  48.909  1.00  0.00     0.045 C 
HETATM    4  C4  UNL     1      27.244   6.628  48.113  1.00  0.00     0.065 C 
HETATM    5  C5  UNL     1      25.913   7.401  47.935  1.00  0.00     0.009 C 
HETATM    6  C6  UNL     1      25.415   7.715  49.333  1.00  0.00     0.029 C 
HETATM    7  C7  UNL     1      24.012   8.183  49.293  1.00  0.00     0.201 C 
HETATM    8  O2  UNL     1      23.480   8.219  50.622  1.00  0.00    -0.276 OA
HETATM    9  N1  UNL     1      23.031   6.914  50.858  1.00  0.00    -0.235 N 
HETATM   10  C8  UNL     1      21.806   6.207  50.554  1.00  0.00     0.116 C 
HETATM   11  C9  UNL     1      22.122   4.913  50.323  1.00  0.00     0.009 C 
HETATM   12  C10 UNL     1      23.626   4.732  50.581  1.00  0.00     0.067 C 
HETATM   13  C11 UNL     1      24.414   4.550  49.396  1.00  0.00     0.056 C 
HETATM   14  C12 UNL     1      23.802   3.951  51.842  1.00  0.00     0.263 C 
HETATM   15  N2  UNL     1      23.031   5.080  52.463  1.00  0.00     0.119 N 
HETATM   16  C15 UNL     1      23.826   5.899  51.497  1.00  0.00     0.362 C 
HETATM   17  H21 UNL     1      23.332   5.208  53.438  1.00  0.00     0.319 HD
ENDROOT
BRANCH  14  18
HETATM   18  C13 UNL     1      23.113   2.661  51.864  1.00  0.00     0.016 C 
HETATM   19  C14 UNL     1      22.900   1.701  52.758  1.00  0.00     0.040 C 
BRANCH  19  20
HETATM   20  S1  UNL     1      21.995   0.152  52.553  1.00  0.00    -0.155 SA
HETATM   21  H20 UNL     1      20.950   0.454  51.632  1.00  0.00     0.106 HD
ENDBRANCH  19  20
ENDBRANCH  14  18
BRANCH   3  22
HETATM   22  O1  UNL     1      28.154   4.823  49.236  1.00  0.00    -0.365 OA
HETATM   23  H4  UNL     1      28.666   5.265  49.993  1.00  0.00     0.217 HD
ENDBRANCH   3  22
TORSDOF 3
ENDMDL
MODEL 5
REMARK VINA RESULT:      -6.6      3.221      4.644
REMARK  3 active torsions:
REMARK  status: ('A' for Active; 'I' for Inactive)
REMARK    1  A    between atoms: C3_3  and  O1_4 
REMARK    2  A    between atoms: C12_15  and  C13_16 
REMARK    3  A    between atoms: C14_17  and  S1_18 
ROOT
HETATM    1  C1  UNL     1      21.141   0.961  53.200  1.00  0.00     0.046 C 
HETATM    2  C2  UNL     1      22.496   0.315  53.366  1.00  0.00    -0.054 C 
HETATM    3  C3  UNL     1      22.348  -0.476  54.462  1.00  0.00     0.045 C 
HETATM    4  C4  UNL     1      23.081  -1.447  55.375  1.00  0.00     0.065 C 
HETATM    5  C5  UNL     1      24.579  -1.382  54.981  1.00  0.00     0.009 C 
HETATM    6  C6  UNL     1      25.011   0.056  55.195  1.00  0.00     0.029 C 
HETATM    7  C7  UNL     1      26.330   0.300  54.569  1.00  0.00     0.201 C 
HETATM    8  O2  UNL     1      26.598   1.707  54.550  1.00  0.00    -0.276 OA
HETATM    9  N1  UNL     1      25.968   2.170  53.387  1.00  0.00    -0.235 N 
HETATM   10  C8  UNL     1      26.359   2.233  51.995  1.00  0.00     0.116 C 
HETATM   11  C9  UNL     1      25.246   2.063  51.246  1.00  0.00     0.009 C 
HETATM   12  C10 UNL     1      24.038   1.977  52.192  1.00  0.00     0.067 C 
HETATM   13  C11 UNL     1      23.474   0.664  52.316  1.00  0.00     0.056 C 
HETATM   14  C12 UNL     1      23.240   3.232  52.059  1.00  0.00     0.263 C 
HETATM   15  N2  UNL     1      24.516   3.903  52.478  1.00  0.00     0.119 N 
HETATM   16  C15 UNL     1      24.632   2.700  53.360  1.00  0.00     0.362 C 
HETATM   17  H21 UNL     1      24.299   4.762  52.999  1.00  0.00     0.319 HD
ENDROOT
BRANCH  14  18
HETATM   18  C13 UNL     1      22.810   3.542  50.695  1.00  0.00     0.016 C 
HETATM   19  C14 UNL     1      22.774   4.622  49.922  1.00  0.00     0.040 C 
BRANCH  19  20
HETATM   20  S1  UNL     1      22.184   4.772  48.222  1.00  0.00    -0.155 SA
HETATM   21  H20 UNL     1      23.343   5.084  47.455  1.00  0.00     0.106 HD
ENDBRANCH  19  20
ENDBRANCH  14  18
BRANCH   3  22
HETATM   22  O1  UNL     1      21.059  -0.397  54.985  1.00  0.00    -0.365 OA
HETATM   23  H4  UNL     1      20.423   0.255  54.537  1.00  0.00     0.217 HD
ENDBRANCH   3  22
TORSDOF 3
ENDMDL
MODEL 6
REMARK VINA RESULT:      -6.4      6.159      8.237
REMARK  3 active torsions:
REMARK  status: ('A' for Active; 'I' for Inactive)
REMARK    1  A    between atoms: C3_3  and  O1_4 
REMARK    2  A    between atoms: C12_15  and  C13_16 
REMARK    3  A    between atoms: C14_17  and  S1_18 
ROOT
HETATM    1  C1  UNL     1      26.938   4.160  49.304  1.00  0.00     0.046 C 
HETATM    2  C2  UNL     1      26.779   5.512  48.650  1.00  0.00    -0.054 C 
HETATM    3  C3  UNL     1      28.031   5.813  48.215  1.00  0.00     0.045 C 
HETATM    4  C4  UNL     1      28.853   6.876  47.501  1.00  0.00     0.065 C 
HETATM    5  C5  UNL     1      27.941   8.121  47.358  1.00  0.00     0.009 C 
HETATM    6  C6  UNL     1      27.560   8.531  48.767  1.00  0.00     0.029 C 
HETATM    7  C7  UNL     1      26.455   9.516  48.741  1.00  0.00     0.201 C 
HETATM    8  O2  UNL     1      25.936   9.689  50.065  1.00  0.00    -0.276 OA
HETATM    9  N1  UNL     1      25.002   8.657  50.215  1.00  0.00    -0.235 N 
HETATM   10  C8  UNL     1      23.609   8.508  49.855  1.00  0.00     0.116 C 
HETATM   11  C9  UNL     1      23.398   7.209  49.547  1.00  0.00     0.009 C 
HETATM   12  C10 UNL     1      24.699   6.435  49.809  1.00  0.00     0.067 C 
HETATM   13  C11 UNL     1      25.392   6.020  48.624  1.00  0.00     0.056 C 
HETATM   14  C12 UNL     1      24.511   5.583  51.021  1.00  0.00     0.263 C 
HETATM   15  N2  UNL     1      24.225   6.890  51.703  1.00  0.00     0.119 N 
HETATM   16  C15 UNL     1      25.311   7.379  50.798  1.00  0.00     0.362 C 
HETATM   17  H21 UNL     1      24.519   6.837  52.686  1.00  0.00     0.319 HD
ENDROOT
BRANCH  14  18
HETATM   18  C13 UNL     1      23.369   4.671  50.956  1.00  0.00     0.016 C 
HETATM   19  C14 UNL     1      22.377   4.315  51.764  1.00  0.00     0.040 C 
BRANCH  19  20
HETATM   20  S1  UNL     1      21.044   3.135  51.461  1.00  0.00    -0.155 SA
HETATM   21  H20 UNL     1      19.992   3.533  52.334  1.00  0.00     0.106 HD
ENDBRANCH  19  20
ENDBRANCH  14  18
BRANCH   3  22
HETATM   22  O1  UNL     1      28.940   4.802  48.519  1.00  0.00    -0.365 OA
HETATM   23  H4  UNL     1      28.901   3.964  47.948  1.00  0.00     0.217 HD
ENDBRANCH   3  22
TORSDOF 3
ENDMDL
MODEL 7
REMARK VINA RESULT:      -6.2      3.743      5.270
REMARK  3 active torsions:
REMARK  status: ('A' for Active; 'I' for Inactive)
REMARK    1  A    between atoms: C3_3  and  O1_4 
REMARK    2  A    between atoms: C12_15  and  C13_16 
REMARK    3  A    between atoms: C14_17  and  S1_18 
ROOT
HETATM    1  C1  UNL     1      21.632   2.197  52.357  1.00  0.00     0.046 C 
HETATM    2  C2  UNL     1      22.902   1.453  52.023  1.00  0.00    -0.054 C 
HETATM    3  C3  UNL     1      23.025   0.548  53.030  1.00  0.00     0.045 C 
HETATM    4  C4  UNL     1      23.908  -0.568  53.568  1.00  0.00     0.065 C 
HETATM    5  C5  UNL     1      25.209  -0.550  52.726  1.00  0.00     0.009 C 
HETATM    6  C6  UNL     1      25.823   0.822  52.924  1.00  0.00     0.029 C 
HETATM    7  C7  UNL     1      26.901   1.057  51.937  1.00  0.00     0.201 C 
HETATM    8  O2  UNL     1      27.283   2.436  51.965  1.00  0.00    -0.276 OA
HETATM    9  N1  UNL     1      26.373   3.072  51.111  1.00  0.00    -0.235 N 
HETATM   10  C8  UNL     1      26.318   3.276  49.680  1.00  0.00     0.116 C 
HETATM   11  C9  UNL     1      25.017   3.266  49.310  1.00  0.00     0.009 C 
HETATM   12  C10 UNL     1      24.159   3.144  50.579  1.00  0.00     0.067 C 
HETATM   13  C11 UNL     1      23.536   1.863  50.753  1.00  0.00     0.056 C 
HETATM   14  C12 UNL     1      23.483   4.453  50.824  1.00  0.00     0.263 C 
HETATM   15  N2  UNL     1      24.885   4.988  50.876  1.00  0.00     0.119 N 
HETATM   16  C15 UNL     1      25.152   3.684  51.560  1.00  0.00     0.362 C 
HETATM   17  H21 UNL     1      24.924   5.791  51.517  1.00  0.00     0.319 HD
ENDROOT
BRANCH  14  18
HETATM   18  C13 UNL     1      22.685   4.949  49.703  1.00  0.00     0.016 C 
HETATM   19  C14 UNL     1      22.479   6.123  49.117  1.00  0.00     0.040 C 
BRANCH  19  20
HETATM   20  S1  UNL     1      21.419   6.507  47.707  1.00  0.00    -0.155 SA
HETATM   21  H20 UNL     1      22.313   6.904  46.670  1.00  0.00     0.106 HD
ENDBRANCH  19  20
ENDBRANCH  14  18
BRANCH   3  22
HETATM   22  O1  UNL     1      21.975   0.645  53.941  1.00  0.00    -0.365 OA
HETATM   23  H4  UNL     1      21.297   1.383  53.781  1.00  0.00     0.217 HD
ENDBRANCH   3  22
TORSDOF 3
ENDMDL
MODEL 8
REMARK VINA RESULT:      -6.1      3.532      5.429
REMARK  3 active torsions:
REMARK  status: ('A' for Active; 'I' for Inactive)
REMARK    1  A    between atoms: C3_3  and  O1_4 
REMARK    2  A    between atoms: C12_15  and  C13_16 
REMARK    3  A    between atoms: C14_17  and  S1_18 
ROOT
HETATM    1  C1  UNL     1      20.028   1.345  49.968  1.00  0.00     0.046 C 
HETATM    2  C2  UNL     1      21.356   1.037  50.617  1.00  0.00    -0.054 C 
HETATM    3  C3  UNL     1      21.028   0.238  51.668  1.00  0.00     0.045 C 
HETATM    4  C4  UNL     1      21.608  -0.528  52.847  1.00  0.00     0.065 C 
HETATM    5  C5  UNL     1      23.098  -0.115  52.955  1.00  0.00     0.009 C 
HETATM    6  C6  UNL     1      23.106   1.385  53.177  1.00  0.00     0.029 C 
HETATM    7  C7  UNL     1      24.470   1.930  52.995  1.00  0.00     0.201 C 
HETATM    8  O2  UNL     1      24.412   3.360  52.947  1.00  0.00    -0.276 OA
HETATM    9  N1  UNL     1      24.122   3.656  51.609  1.00  0.00    -0.235 N 
HETATM   10  C8  UNL     1      24.932   3.804  50.419  1.00  0.00     0.116 C 
HETATM   11  C9  UNL     1      24.201   3.373  49.366  1.00  0.00     0.009 C 
HETATM   12  C10 UNL     1      22.796   3.010  49.873  1.00  0.00     0.067 C 
HETATM   13  C11 UNL     1      22.526   1.602  49.915  1.00  0.00     0.056 C 
HETATM   14  C12 UNL     1      21.833   4.041  49.385  1.00  0.00     0.263 C 
HETATM   15  N2  UNL     1      22.715   4.995  50.137  1.00  0.00     0.119 N 
HETATM   16  C15 UNL     1      22.790   3.858  51.106  1.00  0.00     0.362 C 
HETATM   17  H21 UNL     1      22.152   5.781  50.487  1.00  0.00     0.319 HD
ENDROOT
BRANCH  14  18
HETATM   18  C13 UNL     1      21.827   4.235  47.935  1.00  0.00     0.016 C 
HETATM   19  C14 UNL     1      21.387   3.562  46.877  1.00  0.00     0.040 C 
BRANCH  19  20
HETATM   20  S1  UNL     1      21.495   4.009  45.131  1.00  0.00    -0.155 SA
HETATM   21  H20 UNL     1      20.168   3.866  44.631  1.00  0.00     0.106 HD
ENDBRANCH  19  20
ENDBRANCH  14  18
BRANCH   3  22
HETATM   22  O1  UNL     1      19.654   0.015  51.737  1.00  0.00    -0.365 OA
HETATM   23  H4  UNL     1      19.202  -0.317  50.890  1.00  0.00     0.217 HD
ENDBRANCH   3  22
TORSDOF 3
ENDMDL
MODEL 9
REMARK VINA RESULT:      -6.1      2.969      4.648
REMARK  3 active torsions:
REMARK  status: ('A' for Active; 'I' for Inactive)
REMARK    1  A    between atoms: C3_3  and  O1_4 
REMARK    2  A    between atoms: C12_15  and  C13_16 
REMARK    3  A    between atoms: C14_17  and  S1_18 
ROOT
HETATM    1  C1  UNL     1      25.241   3.402  50.607  1.00  0.00     0.046 C 
HETATM    2  C2  UNL     1      24.998   2.648  51.893  1.00  0.00    -0.054 C 
HETATM    3  C3  UNL     1      26.208   2.098  52.181  1.00  0.00     0.045 C 
HETATM    4  C4  UNL     1      26.941   1.218  53.182  1.00  0.00     0.065 C 
HETATM    5  C5  UNL     1      25.864   0.627  54.126  1.00  0.00     0.009 C 
HETATM    6  C6  UNL     1      24.915  -0.162  53.246  1.00  0.00     0.029 C 
HETATM    7  C7  UNL     1      23.687  -0.517  53.993  1.00  0.00     0.201 C 
HETATM    8  O2  UNL     1      22.703  -1.023  53.083  1.00  0.00    -0.276 OA
HETATM    9  N1  UNL     1      22.062   0.119  52.587  1.00  0.00    -0.235 N 
HETATM   10  C8  UNL     1      20.973   0.943  53.064  1.00  0.00     0.116 C 
HETATM   11  C9  UNL     1      21.214   2.214  52.671  1.00  0.00     0.009 C 
HETATM   12  C10 UNL     1      22.483   2.217  51.805  1.00  0.00     0.067 C 
HETATM   13  C11 UNL     1      23.634   2.792  52.439  1.00  0.00     0.056 C 
HETATM   14  C12 UNL     1      22.089   2.462  50.385  1.00  0.00     0.263 C 
HETATM   15  N2  UNL     1      21.265   1.220  50.564  1.00  0.00     0.119 N 
HETATM   16  C15 UNL     1      22.447   0.785  51.371  1.00  0.00     0.362 C 
HETATM   17  H21 UNL     1      21.191   0.724  49.666  1.00  0.00     0.319 HD
ENDROOT
BRANCH  14  18
HETATM   18  C13 UNL     1      21.310   3.681  50.168  1.00  0.00     0.016 C 
HETATM   19  C14 UNL     1      21.558   4.986  50.129  1.00  0.00     0.040 C 
BRANCH  19  20
HETATM   20  S1  UNL     1      20.405   6.344  49.837  1.00  0.00    -0.155 SA
HETATM   21  H20 UNL     1      19.651   5.949  48.695  1.00  0.00     0.106 HD
ENDBRANCH  19  20
ENDBRANCH  14  18
BRANCH   3  22
HETATM   22  O1  UNL     1      27.167   2.430  51.226  1.00  0.00    -0.365 OA
HETATM   23  H4  UNL     1      27.057   2.018  50.304  1.00  0.00     0.217 HD
ENDBRANCH   3  22
TORSDOF 3
ENDMDL
