MODEL 1
REMARK VINA RESULT:      -8.1      0.000      0.000
REMARK  5 active torsions:
REMARK  status: ('A' for Active; 'I' for Inactive)
REMARK    1  A    between atoms: N1_2  and  C2_3 
REMARK    2  A    between atoms: C2_3  and  C14_18 
REMARK    3  A    between atoms: C3_4  and  C4_5 
REMARK    4  A    between atoms: N4_10  and  C7_11 
REMARK    5  A    between atoms: C7_11  and  C8_12 
ROOT
HETATM    1  C4  UNL     1      23.821   2.986  51.390  1.00  0.00     0.236 A 
HETATM    2  N2  UNL     1      23.895   4.356  51.811  1.00  0.00    -0.253 NA
HETATM    3  C5  UNL     1      22.903   5.047  52.265  1.00  0.00     0.230 A 
HETATM    4  N3  UNL     1      21.586   4.504  52.400  1.00  0.00    -0.238 NA
HETATM    5  C6  UNL     1      21.427   3.261  52.040  1.00  0.00     0.208 A 
HETATM    6  N4  UNL     1      22.483   2.441  51.529  1.00  0.00    -0.345 N 
ENDROOT
BRANCH   1   7
HETATM    7  C3  UNL     1      24.839   2.207  52.120  1.00  0.00     0.051 C 
HETATM    8  C2  UNL     1      26.127   2.428  51.922  1.00  0.00     0.037 C 
BRANCH   8   9
HETATM    9  N1  UNL     1      26.511   3.430  50.991  1.00  0.00    -0.394 N 
HETATM   10  C1  UNL     1      26.710   3.051  49.595  1.00  0.00     0.146 C 
HETATM   11  H4  UNL     1      26.696   4.461  51.089  1.00  0.00     0.159 HD
ENDBRANCH   8   9
BRANCH   8  12
HETATM   12  C14 UNL     1      27.158   1.679  52.625  1.00  0.00    -0.010 A 
HETATM   13  C15 UNL     1      28.159   2.270  53.364  1.00  0.00     0.013 A 
HETATM   14  C16 UNL     1      29.140   1.555  54.032  1.00  0.00     0.001 A 
HETATM   15  C17 UNL     1      29.139   0.173  53.971  1.00  0.00     0.000 A 
HETATM   16  C18 UNL     1      28.135  -0.460  53.228  1.00  0.00     0.001 A 
HETATM   17  C19 UNL     1      27.181   0.301  52.581  1.00  0.00     0.013 A 
ENDBRANCH   8  12
ENDBRANCH   1   7
BRANCH   6  18
HETATM   18  C7  UNL     1      22.209   1.069  51.154  1.00  0.00     0.164 C 
BRANCH  18  19
HETATM   19  C8  UNL     1      21.848   0.209  52.307  1.00  0.00    -0.040 A 
HETATM   20  C9  UNL     1      20.536  -0.085  52.593  1.00  0.00     0.009 A 
HETATM   21  C10 UNL     1      20.165  -0.885  53.663  1.00  0.00     0.001 A 
HETATM   22  C11 UNL     1      21.196  -1.388  54.449  1.00  0.00     0.000 A 
HETATM   23  C12 UNL     1      22.512  -1.098  54.169  1.00  0.00     0.001 A 
HETATM   24  C13 UNL     1      22.846  -0.306  53.107  1.00  0.00     0.009 A 
ENDBRANCH  18  19
ENDBRANCH   6  18
TORSDOF 5
ENDMDL
MODEL 2
REMARK VINA RESULT:      -7.8      2.184      5.605
REMARK  5 active torsions:
REMARK  status: ('A' for Active; 'I' for Inactive)
REMARK    1  A    between atoms: N1_2  and  C2_3 
REMARK    2  A    between atoms: C2_3  and  C14_18 
REMARK    3  A    between atoms: C3_4  and  C4_5 
REMARK    4  A    between atoms: N4_10  and  C7_11 
REMARK    5  A    between atoms: C7_11  and  C8_12 
ROOT
HETATM    1  C4  UNL     1      23.407   2.726  50.858  1.00  0.00     0.236 A 
HETATM    2  N2  UNL     1      22.629   1.749  50.151  1.00  0.00    -0.253 NA
HETATM    3  C5  UNL     1      22.192   1.882  48.944  1.00  0.00     0.230 A 
HETATM    4  N3  UNL     1      22.445   3.051  48.159  1.00  0.00    -0.238 NA
HETATM    5  C6  UNL     1      23.146   3.994  48.724  1.00  0.00     0.208 A 
HETATM    6  N4  UNL     1      23.659   3.911  50.058  1.00  0.00    -0.345 N 
ENDROOT
BRANCH   1   7
HETATM    7  C3  UNL     1      24.644   2.089  51.348  1.00  0.00     0.051 C 
HETATM    8  C2  UNL     1      24.633   1.350  52.444  1.00  0.00     0.037 C 
BRANCH   8   9
HETATM    9  N1  UNL     1      23.405   1.183  53.140  1.00  0.00    -0.394 N 
HETATM   10  C1  UNL     1      22.894  -0.170  53.344  1.00  0.00     0.146 C 
HETATM   11  H4  UNL     1      22.733   1.865  53.574  1.00  0.00     0.159 HD
ENDBRANCH   8   9
BRANCH   8  12
HETATM   12  C14 UNL     1      25.833   0.705  52.956  1.00  0.00    -0.010 A 
HETATM   13  C15 UNL     1      26.460   1.081  54.123  1.00  0.00     0.013 A 
HETATM   14  C16 UNL     1      27.602   0.465  54.609  1.00  0.00     0.001 A 
HETATM   15  C17 UNL     1      28.166  -0.584  53.906  1.00  0.00     0.000 A 
HETATM   16  C18 UNL     1      27.552  -0.991  52.715  1.00  0.00     0.001 A 
HETATM   17  C19 UNL     1      26.414  -0.343  52.275  1.00  0.00     0.013 A 
ENDBRANCH   8  12
ENDBRANCH   1   7
BRANCH   6  18
HETATM   18  C7  UNL     1      24.429   5.011  50.600  1.00  0.00     0.164 C 
BRANCH  18  19
HETATM   19  C8  UNL     1      25.610   5.361  49.775  1.00  0.00    -0.040 A 
HETATM   20  C9  UNL     1      26.552   4.417  49.442  1.00  0.00     0.009 A 
HETATM   21  C10 UNL     1      27.667   4.713  48.672  1.00  0.00     0.001 A 
HETATM   22  C11 UNL     1      27.794   6.029  48.242  1.00  0.00     0.000 A 
HETATM   23  C12 UNL     1      26.854   6.980  48.571  1.00  0.00     0.001 A 
HETATM   24  C13 UNL     1      25.766   6.658  49.332  1.00  0.00     0.009 A 
ENDBRANCH  18  19
ENDBRANCH   6  18
TORSDOF 5
ENDMDL
MODEL 3
REMARK VINA RESULT:      -7.7      2.036      5.377
REMARK  5 active torsions:
REMARK  status: ('A' for Active; 'I' for Inactive)
REMARK    1  A    between atoms: N1_2  and  C2_3 
REMARK    2  A    between atoms: C2_3  and  C14_18 
REMARK    3  A    between atoms: C3_4  and  C4_5 
REMARK    4  A    between atoms: N4_10  and  C7_11 
REMARK    5  A    between atoms: C7_11  and  C8_12 
ROOT
HETATM    1  C4  UNL     1      23.084   2.173  51.124  1.00  0.00     0.236 A 
HETATM    2  N2  UNL     1      22.331   1.156  50.446  1.00  0.00    -0.253 NA
HETATM    3  C5  UNL     1      21.816   1.276  49.268  1.00  0.00     0.230 A 
HETATM    4  N3  UNL     1      21.945   2.470  48.490  1.00  0.00    -0.238 NA
HETATM    5  C6  UNL     1      22.616   3.449  49.030  1.00  0.00     0.208 A 
HETATM    6  N4  UNL     1      23.211   3.382  50.331  1.00  0.00    -0.345 N 
ENDROOT
BRANCH   1   7
HETATM    7  C3  UNL     1      24.386   1.611  51.530  1.00  0.00     0.051 C 
HETATM    8  C2  UNL     1      24.486   0.852  52.607  1.00  0.00     0.037 C 
BRANCH   8   9
HETATM    9  N1  UNL     1      23.314   0.590  53.367  1.00  0.00    -0.394 N 
HETATM   10  C1  UNL     1      22.801  -0.776  53.414  1.00  0.00     0.146 C 
HETATM   11  H4  UNL     1      22.687   1.204  53.946  1.00  0.00     0.159 HD
ENDBRANCH   8   9
BRANCH   8  12
HETATM   12  C14 UNL     1      25.753   0.281  53.038  1.00  0.00    -0.010 A 
HETATM   13  C15 UNL     1      26.391  -0.744  52.376  1.00  0.00     0.013 A 
HETATM   14  C16 UNL     1      27.598  -1.287  52.788  1.00  0.00     0.001 A 
HETATM   15  C17 UNL     1      28.218  -0.791  53.921  1.00  0.00     0.000 A 
HETATM   16  C18 UNL     1      27.597   0.252  54.617  1.00  0.00     0.001 A 
HETATM   17  C19 UNL     1      26.393   0.756  54.163  1.00  0.00     0.013 A 
ENDBRANCH   8  12
ENDBRANCH   1   7
BRANCH   6  18
HETATM   18  C7  UNL     1      23.939   4.522  50.847  1.00  0.00     0.164 C 
BRANCH  18  19
HETATM   19  C8  UNL     1      25.108   4.896  50.014  1.00  0.00    -0.040 A 
HETATM   20  C9  UNL     1      25.223   6.154  49.472  1.00  0.00     0.009 A 
HETATM   21  C10 UNL     1      26.303   6.534  48.689  1.00  0.00     0.001 A 
HETATM   22  C11 UNL     1      27.283   5.572  48.472  1.00  0.00     0.000 A 
HETATM   23  C12 UNL     1      27.173   4.310  49.011  1.00  0.00     0.001 A 
HETATM   24  C13 UNL     1      26.097   3.965  49.779  1.00  0.00     0.009 A 
ENDBRANCH  18  19
ENDBRANCH   6  18
TORSDOF 5
ENDMDL
MODEL 4
REMARK VINA RESULT:      -7.6      2.029      5.030
REMARK  5 active torsions:
REMARK  status: ('A' for Active; 'I' for Inactive)
REMARK    1  A    between atoms: N1_2  and  C2_3 
REMARK    2  A    between atoms: C2_3  and  C14_18 
REMARK    3  A    between atoms: C3_4  and  C4_5 
REMARK    4  A    between atoms: N4_10  and  C7_11 
REMARK    5  A    between atoms: C7_11  and  C8_12 
ROOT
HETATM    1  C4  UNL     1      23.473   1.448  52.391  1.00  0.00     0.236 A 
HETATM    2  N2  UNL     1      22.576   0.438  51.905  1.00  0.00    -0.253 NA
HETATM    3  C5  UNL     1      21.749   0.591  50.926  1.00  0.00     0.230 A 
HETATM    4  N3  UNL     1      21.637   1.817  50.198  1.00  0.00    -0.238 NA
HETATM    5  C6  UNL     1      22.417   2.792  50.573  1.00  0.00     0.208 A 
HETATM    6  N4  UNL     1      23.354   2.690  51.650  1.00  0.00    -0.345 N 
ENDROOT
BRANCH   1   7
HETATM    7  C3  UNL     1      24.845   0.907  52.391  1.00  0.00     0.051 C 
HETATM    8  C2  UNL     1      25.180  -0.083  53.200  1.00  0.00     0.037 C 
BRANCH   8   9
HETATM    9  N1  UNL     1      24.191  -0.614  54.072  1.00  0.00    -0.394 N 
HETATM   10  C1  UNL     1      24.599  -1.079  55.394  1.00  0.00     0.146 C 
HETATM   11  H4  UNL     1      23.154  -0.757  53.971  1.00  0.00     0.159 HD
ENDBRANCH   8   9
BRANCH   8  12
HETATM   12  C14 UNL     1      26.523  -0.643  53.227  1.00  0.00    -0.010 A 
HETATM   13  C15 UNL     1      27.611   0.012  53.761  1.00  0.00     0.013 A 
HETATM   14  C16 UNL     1      28.889  -0.522  53.785  1.00  0.00     0.001 A 
HETATM   15  C17 UNL     1      29.114  -1.779  53.253  1.00  0.00     0.000 A 
HETATM   16  C18 UNL     1      28.029  -2.472  52.702  1.00  0.00     0.001 A 
HETATM   17  C19 UNL     1      26.775  -1.892  52.704  1.00  0.00     0.013 A 
ENDBRANCH   8  12
ENDBRANCH   1   7
BRANCH   6  18
HETATM   18  C7  UNL     1      24.180   3.829  51.994  1.00  0.00     0.164 C 
BRANCH  18  19
HETATM   19  C8  UNL     1      25.038   4.288  50.874  1.00  0.00    -0.040 A 
HETATM   20  C9  UNL     1      24.866   5.529  50.308  1.00  0.00     0.009 A 
HETATM   21  C10 UNL     1      25.651   5.988  49.261  1.00  0.00     0.001 A 
HETATM   22  C11 UNL     1      26.638   5.124  48.800  1.00  0.00     0.000 A 
HETATM   23  C12 UNL     1      26.816   3.879  49.361  1.00  0.00     0.001 A 
HETATM   24  C13 UNL     1      26.026   3.456  50.393  1.00  0.00     0.009 A 
ENDBRANCH  18  19
ENDBRANCH   6  18
TORSDOF 5
ENDMDL
MODEL 5
REMARK VINA RESULT:      -7.3      2.058      5.839
REMARK  5 active torsions:
REMARK  status: ('A' for Active; 'I' for Inactive)
REMARK    1  A    between atoms: N1_2  and  C2_3 
REMARK    2  A    between atoms: C2_3  and  C14_18 
REMARK    3  A    between atoms: C3_4  and  C4_5 
REMARK    4  A    between atoms: N4_10  and  C7_11 
REMARK    5  A    between atoms: C7_11  and  C8_12 
ROOT
HETATM    1  C4  UNL     1      24.065   1.113  51.773  1.00  0.00     0.236 A 
HETATM    2  N2  UNL     1      22.802   1.128  52.457  1.00  0.00    -0.253 NA
HETATM    3  C5  UNL     1      22.529   0.456  53.524  1.00  0.00     0.230 A 
HETATM    4  N3  UNL     1      23.484  -0.400  54.160  1.00  0.00    -0.238 NA
HETATM    5  C6  UNL     1      24.661  -0.475  53.605  1.00  0.00     0.208 A 
HETATM    6  N4  UNL     1      25.029   0.242  52.422  1.00  0.00    -0.345 N 
ENDROOT
BRANCH   1   7
HETATM    7  C3  UNL     1      24.546   2.499  51.630  1.00  0.00     0.051 C 
HETATM    8  C2  UNL     1      23.974   3.326  50.773  1.00  0.00     0.037 C 
BRANCH   8   9
HETATM    9  N1  UNL     1      22.886   2.852  49.992  1.00  0.00    -0.394 N 
HETATM   10  C1  UNL     1      23.017   2.847  48.537  1.00  0.00     0.146 C 
HETATM   11  H4  UNL     1      21.937   2.475  50.244  1.00  0.00     0.159 HD
ENDBRANCH   8   9
BRANCH   8  12
HETATM   12  C14 UNL     1      24.422   4.701  50.605  1.00  0.00    -0.010 A 
HETATM   13  C15 UNL     1      25.511   5.060  49.844  1.00  0.00     0.013 A 
HETATM   14  C16 UNL     1      25.936   6.369  49.686  1.00  0.00     0.001 A 
HETATM   15  C17 UNL     1      25.247   7.392  50.314  1.00  0.00     0.000 A 
HETATM   16  C18 UNL     1      24.134   7.061  51.095  1.00  0.00     0.001 A 
HETATM   17  C19 UNL     1      23.753   5.738  51.220  1.00  0.00     0.013 A 
ENDBRANCH   8  12
ENDBRANCH   1   7
BRANCH   6  18
HETATM   18  C7  UNL     1      26.363   0.096  51.879  1.00  0.00     0.164 C 
BRANCH  18  19
HETATM   19  C8  UNL     1      27.422   0.599  52.786  1.00  0.00    -0.040 A 
HETATM   20  C9  UNL     1      27.686   1.943  52.897  1.00  0.00     0.009 A 
HETATM   21  C10 UNL     1      28.669   2.445  53.736  1.00  0.00     0.001 A 
HETATM   22  C11 UNL     1      29.391   1.515  54.474  1.00  0.00     0.000 A 
HETATM   23  C12 UNL     1      29.133   0.166  54.368  1.00  0.00     0.001 A 
HETATM   24  C13 UNL     1      28.157  -0.298  53.532  1.00  0.00     0.009 A 
ENDBRANCH  18  19
ENDBRANCH   6  18
TORSDOF 5
ENDMDL
MODEL 6
REMARK VINA RESULT:      -7.1      6.101     10.424
REMARK  5 active torsions:
REMARK  status: ('A' for Active; 'I' for Inactive)
REMARK    1  A    between atoms: N1_2  and  C2_3 
REMARK    2  A    between atoms: C2_3  and  C14_18 
REMARK    3  A    between atoms: C3_4  and  C4_5 
REMARK    4  A    between atoms: N4_10  and  C7_11 
REMARK    5  A    between atoms: C7_11  and  C8_12 
ROOT
HETATM    1  C4  UNL     1      30.226   7.566  47.192  1.00  0.00     0.236 A 
HETATM    2  N2  UNL     1      29.710   8.211  46.018  1.00  0.00    -0.253 NA
HETATM    3  C5  UNL     1      30.336   8.317  44.894  1.00  0.00     0.230 A 
HETATM    4  N3  UNL     1      31.649   7.785  44.692  1.00  0.00    -0.238 NA
HETATM    5  C6  UNL     1      32.197   7.180  45.709  1.00  0.00     0.208 A 
HETATM    6  N4  UNL     1      31.558   7.029  46.982  1.00  0.00    -0.345 N 
ENDROOT
BRANCH   1   7
HETATM    7  C3  UNL     1      29.260   6.546  47.640  1.00  0.00     0.051 C 
HETATM    8  C2  UNL     1      28.087   6.901  48.137  1.00  0.00     0.037 C 
BRANCH   8   9
HETATM    9  N1  UNL     1      27.779   8.285  48.232  1.00  0.00    -0.394 N 
HETATM   10  C1  UNL     1      27.889   8.939  49.532  1.00  0.00     0.146 C 
HETATM   11  H4  UNL     1      27.466   8.996  47.523  1.00  0.00     0.159 HD
ENDBRANCH   8   9
BRANCH   8  12
HETATM   12  C14 UNL     1      27.108   5.923  48.588  1.00  0.00    -0.010 A 
HETATM   13  C15 UNL     1      25.766   6.196  48.726  1.00  0.00     0.013 A 
HETATM   14  C16 UNL     1      24.836   5.263  49.156  1.00  0.00     0.001 A 
HETATM   15  C17 UNL     1      25.249   3.981  49.470  1.00  0.00     0.000 A 
HETATM   16  C18 UNL     1      26.608   3.670  49.340  1.00  0.00     0.001 A 
HETATM   17  C19 UNL     1      27.493   4.638  48.907  1.00  0.00     0.013 A 
ENDBRANCH   8  12
ENDBRANCH   1   7
BRANCH   6  18
HETATM   18  C7  UNL     1      32.247   6.340  48.053  1.00  0.00     0.164 C 
BRANCH  18  19
HETATM   19  C8  UNL     1      32.775   5.014  47.651  1.00  0.00    -0.040 A 
HETATM   20  C9  UNL     1      34.113   4.719  47.752  1.00  0.00     0.009 A 
HETATM   21  C10 UNL     1      34.638   3.488  47.385  1.00  0.00     0.001 A 
HETATM   22  C11 UNL     1      33.736   2.548  46.901  1.00  0.00     0.000 A 
HETATM   23  C12 UNL     1      32.394   2.836  46.796  1.00  0.00     0.001 A 
HETATM   24  C13 UNL     1      31.907   4.058  47.166  1.00  0.00     0.009 A 
ENDBRANCH  18  19
ENDBRANCH   6  18
TORSDOF 5
ENDMDL
MODEL 7
REMARK VINA RESULT:      -6.9      1.952      2.900
REMARK  5 active torsions:
REMARK  status: ('A' for Active; 'I' for Inactive)
REMARK    1  A    between atoms: N1_2  and  C2_3 
REMARK    2  A    between atoms: C2_3  and  C14_18 
REMARK    3  A    between atoms: C3_4  and  C4_5 
REMARK    4  A    between atoms: N4_10  and  C7_11 
REMARK    5  A    between atoms: C7_11  and  C8_12 
ROOT
HETATM    1  C4  UNL     1      25.167   4.188  49.396  1.00  0.00     0.236 A 
HETATM    2  N2  UNL     1      25.435   5.427  50.071  1.00  0.00    -0.253 NA
HETATM    3  C5  UNL     1      24.538   6.202  50.582  1.00  0.00     0.230 A 
HETATM    4  N3  UNL     1      23.141   5.901  50.527  1.00  0.00    -0.238 NA
HETATM    5  C6  UNL     1      22.805   4.792  49.930  1.00  0.00     0.208 A 
HETATM    6  N4  UNL     1      23.748   3.889  49.343  1.00  0.00    -0.345 N 
ENDROOT
BRANCH   1   7
HETATM    7  C3  UNL     1      25.958   3.118  50.030  1.00  0.00     0.051 C 
HETATM    8  C2  UNL     1      25.862   2.887  51.328  1.00  0.00     0.037 C 
BRANCH   8   9
HETATM    9  N1  UNL     1      24.981   3.693  52.099  1.00  0.00    -0.394 N 
HETATM   10  C1  UNL     1      24.314   3.096  53.252  1.00  0.00     0.146 C 
HETATM   11  H4  UNL     1      24.681   4.698  52.021  1.00  0.00     0.159 HD
ENDBRANCH   8   9
BRANCH   8  12
HETATM   12  C14 UNL     1      26.626   1.839  51.988  1.00  0.00    -0.010 A 
HETATM   13  C15 UNL     1      27.721   2.082  52.787  1.00  0.00     0.013 A 
HETATM   14  C16 UNL     1      28.447   1.083  53.414  1.00  0.00     0.001 A 
HETATM   15  C17 UNL     1      28.075  -0.239  53.248  1.00  0.00     0.000 A 
HETATM   16  C18 UNL     1      26.966  -0.521  52.441  1.00  0.00     0.001 A 
HETATM   17  C19 UNL     1      26.277   0.514  51.839  1.00  0.00     0.013 A 
ENDBRANCH   8  12
ENDBRANCH   1   7
BRANCH   6  18
HETATM   18  C7  UNL     1      23.279   2.679  48.700  1.00  0.00     0.164 C 
BRANCH  18  19
HETATM   19  C8  UNL     1      22.292   1.929  49.515  1.00  0.00    -0.040 A 
HETATM   20  C9  UNL     1      22.651   1.341  50.704  1.00  0.00     0.009 A 
HETATM   21  C10 UNL     1      21.753   0.632  51.489  1.00  0.00     0.001 A 
HETATM   22  C11 UNL     1      20.450   0.541  51.013  1.00  0.00     0.000 A 
HETATM   23  C12 UNL     1      20.083   1.127  49.822  1.00  0.00     0.001 A 
HETATM   24  C13 UNL     1      20.992   1.818  49.071  1.00  0.00     0.009 A 
ENDBRANCH  18  19
ENDBRANCH   6  18
TORSDOF 5
ENDMDL
MODEL 8
REMARK VINA RESULT:      -6.9      7.691     11.618
REMARK  5 active torsions:
REMARK  status: ('A' for Active; 'I' for Inactive)
REMARK    1  A    between atoms: N1_2  and  C2_3 
REMARK    2  A    between atoms: C2_3  and  C14_18 
REMARK    3  A    between atoms: C3_4  and  C4_5 
REMARK    4  A    between atoms: N4_10  and  C7_11 
REMARK    5  A    between atoms: C7_11  and  C8_12 
ROOT
HETATM    1  C4  UNL     1      32.607   7.191  46.141  1.00  0.00     0.236 A 
HETATM    2  N2  UNL     1      32.835   8.605  46.237  1.00  0.00    -0.253 NA
HETATM    3  C5  UNL     1      33.372   9.333  45.316  1.00  0.00     0.230 A 
HETATM    4  N3  UNL     1      33.809   8.792  44.065  1.00  0.00    -0.238 NA
HETATM    5  C6  UNL     1      33.640   7.511  43.892  1.00  0.00     0.208 A 
HETATM    6  N4  UNL     1      33.053   6.648  44.871  1.00  0.00    -0.345 N 
ENDROOT
BRANCH   1   7
HETATM    7  C3  UNL     1      31.184   6.917  46.416  1.00  0.00     0.051 C 
HETATM    8  C2  UNL     1      30.742   6.831  47.658  1.00  0.00     0.037 C 
BRANCH   8   9
HETATM    9  N1  UNL     1      31.666   7.005  48.724  1.00  0.00    -0.394 N 
HETATM   10  C1  UNL     1      32.171   5.821  49.414  1.00  0.00     0.146 C 
HETATM   11  H4  UNL     1      32.101   7.858  49.159  1.00  0.00     0.159 HD
ENDBRANCH   8   9
BRANCH   8  12
HETATM   12  C14 UNL     1      29.345   6.563  47.968  1.00  0.00    -0.010 A 
HETATM   13  C15 UNL     1      28.364   7.528  47.956  1.00  0.00     0.013 A 
HETATM   14  C16 UNL     1      27.034   7.271  48.251  1.00  0.00     0.001 A 
HETATM   15  C17 UNL     1      26.643   5.985  48.577  1.00  0.00     0.000 A 
HETATM   16  C18 UNL     1      27.617   4.979  48.597  1.00  0.00     0.001 A 
HETATM   17  C19 UNL     1      28.929   5.290  48.295  1.00  0.00     0.013 A 
ENDBRANCH   8  12
ENDBRANCH   1   7
BRANCH   6  18
HETATM   18  C7  UNL     1      32.906   5.235  44.587  1.00  0.00     0.164 C 
BRANCH  18  19
HETATM   19  C8  UNL     1      33.313   4.366  45.717  1.00  0.00    -0.040 A 
HETATM   20  C9  UNL     1      34.599   4.384  46.202  1.00  0.00     0.009 A 
HETATM   21  C10 UNL     1      35.011   3.583  47.257  1.00  0.00     0.001 A 
HETATM   22  C11 UNL     1      34.051   2.747  47.814  1.00  0.00     0.000 A 
HETATM   23  C12 UNL     1      32.761   2.723  47.333  1.00  0.00     0.001 A 
HETATM   24  C13 UNL     1      32.385   3.524  46.292  1.00  0.00     0.009 A 
ENDBRANCH  18  19
ENDBRANCH   6  18
TORSDOF 5
ENDMDL
MODEL 9
REMARK VINA RESULT:      -6.7      2.684      6.266
REMARK  5 active torsions:
REMARK  status: ('A' for Active; 'I' for Inactive)
REMARK    1  A    between atoms: N1_2  and  C2_3 
REMARK    2  A    between atoms: C2_3  and  C14_18 
REMARK    3  A    between atoms: C3_4  and  C4_5 
REMARK    4  A    between atoms: N4_10  and  C7_11 
REMARK    5  A    between atoms: C7_11  and  C8_12 
ROOT
HETATM    1  C4  UNL     1      23.381   4.741  51.494  1.00  0.00     0.236 A 
HETATM    2  N2  UNL     1      22.053   5.285  51.474  1.00  0.00    -0.253 NA
HETATM    3  C5  UNL     1      21.361   5.509  50.407  1.00  0.00     0.230 A 
HETATM    4  N3  UNL     1      21.858   5.231  49.095  1.00  0.00    -0.238 NA
HETATM    5  C6  UNL     1      23.060   4.734  49.019  1.00  0.00     0.208 A 
HETATM    6  N4  UNL     1      23.881   4.462  50.160  1.00  0.00    -0.345 N 
ENDROOT
BRANCH   1   7
HETATM    7  C3  UNL     1      23.399   3.558  52.374  1.00  0.00     0.051 C 
HETATM    8  C2  UNL     1      22.697   2.480  52.069  1.00  0.00     0.037 C 
BRANCH   8   9
HETATM    9  N1  UNL     1      21.923   2.486  50.877  1.00  0.00    -0.394 N 
HETATM   10  C1  UNL     1      22.043   1.358  49.959  1.00  0.00     0.146 C 
HETATM   11  H4  UNL     1      21.232   3.172  50.479  1.00  0.00     0.159 HD
ENDBRANCH   8   9
BRANCH   8  12
HETATM   12  C14 UNL     1      22.690   1.295  52.914  1.00  0.00    -0.010 A 
HETATM   13  C15 UNL     1      21.562   0.808  53.535  1.00  0.00     0.013 A 
HETATM   14  C16 UNL     1      21.559  -0.321  54.339  1.00  0.00     0.001 A 
HETATM   15  C17 UNL     1      22.736  -1.017  54.544  1.00  0.00     0.000 A 
HETATM   16  C18 UNL     1      23.902  -0.549  53.926  1.00  0.00     0.001 A 
HETATM   17  C19 UNL     1      23.850   0.583  53.135  1.00  0.00     0.013 A 
ENDBRANCH   8  12
ENDBRANCH   1   7
BRANCH   6  18
HETATM   18  C7  UNL     1      25.206   3.907  49.976  1.00  0.00     0.164 C 
BRANCH  18  19
HETATM   19  C8  UNL     1      26.174   4.881  49.416  1.00  0.00    -0.040 A 
HETATM   20  C9  UNL     1      25.913   6.230  49.423  1.00  0.00     0.009 A 
HETATM   21  C10 UNL     1      26.798   7.166  48.907  1.00  0.00     0.001 A 
HETATM   22  C11 UNL     1      27.982   6.672  48.374  1.00  0.00     0.000 A 
HETATM   23  C12 UNL     1      28.251   5.322  48.363  1.00  0.00     0.001 A 
HETATM   24  C13 UNL     1      27.359   4.424  48.879  1.00  0.00     0.009 A 
ENDBRANCH  18  19
ENDBRANCH   6  18
TORSDOF 5
ENDMDL
