MODEL 1
REMARK VINA RESULT:      -8.1      0.000      0.000
REMARK  9 active torsions:
REMARK  status: ('A' for Active; 'I' for Inactive)
REMARK    1  A    between atoms: C2_2  and  C3_3 
REMARK    2  A    between atoms: C2_2  and  C6_7 
REMARK    3  A    between atoms: C3_3  and  N1_4 
REMARK    4  A    between atoms: C6_7  and  C7_9 
REMARK    5  A    between atoms: C10_12  and  O2_13 
REMARK    6  A    between atoms: O2_13  and  S1_14 
REMARK    7  A    between atoms: S1_14  and  C11_17 
REMARK    8  A    between atoms: C14_20  and  C15_21 
REMARK    9  A    between atoms: C15_21  and  O6_23 
ROOT
HETATM    1  C7  UNL     1      24.542   0.719  53.288  1.00  0.00     0.010 A 
HETATM    2  C8  UNL     1      23.376   0.521  52.589  1.00  0.00     0.018 A 
HETATM    3  C9  UNL     1      22.679   1.483  51.889  1.00  0.00     0.039 A 
HETATM    4  C10 UNL     1      23.175   2.766  51.876  1.00  0.00     0.089 A 
HETATM    5  C18 UNL     1      24.338   3.038  52.551  1.00  0.00     0.039 A 
HETATM    6  C19 UNL     1      25.017   2.041  53.249  1.00  0.00     0.018 A 
ENDROOT
BRANCH   4   7
HETATM    7  O2  UNL     1      22.694   3.938  51.268  1.00  0.00    -0.229 OA
BRANCH   7   8
HETATM    8  S1  UNL     1      22.953   4.060  49.565  1.00  0.00     0.303 S 
HETATM    9  O3  UNL     1      22.028   5.166  49.110  1.00  0.00    -0.193 OA
HETATM   10  O4  UNL     1      22.585   2.774  48.886  1.00  0.00    -0.193 OA
BRANCH   8  11
HETATM   11  C11 UNL     1      24.589   4.566  49.248  1.00  0.00     0.086 A 
HETATM   12  C12 UNL     1      24.809   5.853  48.778  1.00  0.00     0.027 A 
HETATM   13  C13 UNL     1      26.048   6.384  48.469  1.00  0.00     0.020 A 
HETATM   14  C14 UNL     1      27.135   5.536  48.655  1.00  0.00     0.037 A 
HETATM   15  C16 UNL     1      26.986   4.243  49.120  1.00  0.00     0.020 A 
HETATM   16  C17 UNL     1      25.707   3.762  49.416  1.00  0.00     0.027 A 
BRANCH  14  17
HETATM   17  C15 UNL     1      28.513   5.935  48.376  1.00  0.00     0.176 C 
HETATM   18  O5  UNL     1      28.955   6.733  47.503  1.00  0.00    -0.646 OA
BRANCH  17  19
HETATM   19  O6  UNL     1      29.618   5.451  49.091  1.00  0.00    -0.773 OA
HETATM   20  H17 UNL     1      29.920   5.867  49.977  1.00  0.00     0.167 HD
ENDBRANCH  17  19
ENDBRANCH  14  17
ENDBRANCH   8  11
ENDBRANCH   7   8
ENDBRANCH   4   7
BRANCH   1  21
HETATM   21  C6  UNL     1      25.206  -0.386  54.014  1.00  0.00     0.165 C 
HETATM   22  O1  UNL     1      24.372  -0.860  54.790  1.00  0.00    -0.292 OA
BRANCH  21  23
HETATM   23  C2  UNL     1      26.597  -0.723  53.736  1.00  0.00     0.085 C 
HETATM   24  C1  UNL     1      26.757  -1.088  52.273  1.00  0.00     0.020 C 
BRANCH  23  25
HETATM   25  C3  UNL     1      27.673   0.108  54.288  1.00  0.00     0.283 C 
BRANCH  25  26
HETATM   26  N1  UNL     1      28.564   0.744  53.364  1.00  0.00     0.080 N 
HETATM   27  C4  UNL     1      29.897   0.098  53.679  1.00  0.00     0.309 C 
HETATM   28  C5  UNL     1      28.741   2.162  53.752  1.00  0.00     0.309 C 
ENDBRANCH  25  26
ENDBRANCH  23  25
ENDBRANCH  21  23
ENDBRANCH   1  21
TORSDOF 9
ENDMDL
MODEL 2
REMARK VINA RESULT:      -7.8      1.707      2.038
REMARK  9 active torsions:
REMARK  status: ('A' for Active; 'I' for Inactive)
REMARK    1  A    between atoms: C2_2  and  C3_3 
REMARK    2  A    between atoms: C2_2  and  C6_7 
REMARK    3  A    between atoms: C3_3  and  N1_4 
REMARK    4  A    between atoms: C6_7  and  C7_9 
REMARK    5  A    between atoms: C10_12  and  O2_13 
REMARK    6  A    between atoms: O2_13  and  S1_14 
REMARK    7  A    between atoms: S1_14  and  C11_17 
REMARK    8  A    between atoms: C14_20  and  C15_21 
REMARK    9  A    between atoms: C15_21  and  O6_23 
ROOT
HETATM    1  C7  UNL     1      24.451   0.782  53.209  1.00  0.00     0.010 A 
HETATM    2  C8  UNL     1      23.372   0.530  52.397  1.00  0.00     0.018 A 
HETATM    3  C9  UNL     1      22.681   1.465  51.656  1.00  0.00     0.039 A 
HETATM    4  C10 UNL     1      23.090   2.778  51.720  1.00  0.00     0.089 A 
HETATM    5  C18 UNL     1      24.163   3.103  52.510  1.00  0.00     0.039 A 
HETATM    6  C19 UNL     1      24.838   2.132  53.246  1.00  0.00     0.018 A 
ENDROOT
BRANCH   4   7
HETATM    7  O2  UNL     1      22.591   3.934  51.097  1.00  0.00    -0.229 OA
BRANCH   7   8
HETATM    8  S1  UNL     1      23.324   4.347  49.588  1.00  0.00     0.303 S 
HETATM    9  O3  UNL     1      22.167   4.676  48.672  1.00  0.00    -0.193 OA
HETATM   10  O4  UNL     1      24.093   3.180  49.043  1.00  0.00    -0.193 OA
BRANCH   8  11
HETATM   11  C11 UNL     1      24.288   5.786  49.771  1.00  0.00     0.086 A 
HETATM   12  C12 UNL     1      25.457   5.904  49.032  1.00  0.00     0.027 A 
HETATM   13  C13 UNL     1      26.325   6.978  49.088  1.00  0.00     0.020 A 
HETATM   14  C14 UNL     1      25.970   8.001  49.961  1.00  0.00     0.037 A 
HETATM   15  C16 UNL     1      24.820   7.948  50.725  1.00  0.00     0.020 A 
HETATM   16  C17 UNL     1      23.980   6.835  50.626  1.00  0.00     0.027 A 
BRANCH  14  17
HETATM   17  C15 UNL     1      26.775   9.208  50.143  1.00  0.00     0.176 C 
HETATM   18  O5  UNL     1      26.878  10.222  49.399  1.00  0.00    -0.646 OA
BRANCH  17  19
HETATM   19  O6  UNL     1      27.609   9.421  51.251  1.00  0.00    -0.773 OA
HETATM   20  H17 UNL     1      28.235   8.695  51.610  1.00  0.00     0.167 HD
ENDBRANCH  17  19
ENDBRANCH  14  17
ENDBRANCH   8  11
ENDBRANCH   7   8
ENDBRANCH   4   7
BRANCH   1  21
HETATM   21  C6  UNL     1      25.116  -0.299  53.970  1.00  0.00     0.165 C 
HETATM   22  O1  UNL     1      24.271  -0.774  54.733  1.00  0.00    -0.292 OA
BRANCH  21  23
HETATM   23  C2  UNL     1      26.519  -0.617  53.731  1.00  0.00     0.085 C 
HETATM   24  C1  UNL     1      26.711  -1.054  52.291  1.00  0.00     0.020 C 
BRANCH  23  25
HETATM   25  C3  UNL     1      27.566   0.267  54.255  1.00  0.00     0.283 C 
BRANCH  25  26
HETATM   26  N1  UNL     1      28.466   0.864  53.314  1.00  0.00     0.080 N 
HETATM   27  C4  UNL     1      29.797   0.239  53.673  1.00  0.00     0.309 C 
HETATM   28  C5  UNL     1      28.633   2.299  53.639  1.00  0.00     0.309 C 
ENDBRANCH  25  26
ENDBRANCH  23  25
ENDBRANCH  21  23
ENDBRANCH   1  21
TORSDOF 9
ENDMDL
MODEL 3
REMARK VINA RESULT:      -7.6      3.211      7.614
REMARK  9 active torsions:
REMARK  status: ('A' for Active; 'I' for Inactive)
REMARK    1  A    between atoms: C2_2  and  C3_3 
REMARK    2  A    between atoms: C2_2  and  C6_7 
REMARK    3  A    between atoms: C3_3  and  N1_4 
REMARK    4  A    between atoms: C6_7  and  C7_9 
REMARK    5  A    between atoms: C10_12  and  O2_13 
REMARK    6  A    between atoms: O2_13  and  S1_14 
REMARK    7  A    between atoms: S1_14  and  C11_17 
REMARK    8  A    between atoms: C14_20  and  C15_21 
REMARK    9  A    between atoms: C15_21  and  O6_23 
ROOT
HETATM    1  C7  UNL     1      26.007   5.593  48.926  1.00  0.00     0.010 A 
HETATM    2  C8  UNL     1      26.763   4.512  49.311  1.00  0.00     0.018 A 
HETATM    3  C9  UNL     1      26.291   3.375  49.932  1.00  0.00     0.039 A 
HETATM    4  C10 UNL     1      24.945   3.291  50.202  1.00  0.00     0.089 A 
HETATM    5  C18 UNL     1      24.127   4.333  49.843  1.00  0.00     0.039 A 
HETATM    6  C19 UNL     1      24.638   5.468  49.218  1.00  0.00     0.018 A 
ENDROOT
BRANCH   4   7
HETATM    7  O2  UNL     1      24.185   2.282  50.818  1.00  0.00    -0.229 OA
BRANCH   7   8
HETATM    8  S1  UNL     1      24.432   2.090  52.517  1.00  0.00     0.303 S 
HETATM    9  O3  UNL     1      23.213   1.339  53.003  1.00  0.00    -0.193 OA
HETATM   10  O4  UNL     1      24.511   3.429  53.189  1.00  0.00    -0.193 OA
BRANCH   8  11
HETATM   11  C11 UNL     1      25.827   1.088  52.805  1.00  0.00     0.086 A 
HETATM   12  C12 UNL     1      25.856  -0.188  52.258  1.00  0.00     0.027 A 
HETATM   13  C13 UNL     1      26.886  -1.095  52.417  1.00  0.00     0.020 A 
HETATM   14  C14 UNL     1      27.961  -0.665  53.190  1.00  0.00     0.037 A 
HETATM   15  C16 UNL     1      27.996   0.591  53.763  1.00  0.00     0.020 A 
HETATM   16  C17 UNL     1      26.923   1.466  53.567  1.00  0.00     0.027 A 
BRANCH  14  17
HETATM   17  C15 UNL     1      29.131  -1.498  53.459  1.00  0.00     0.176 C 
HETATM   18  O5  UNL     1      30.303  -1.154  53.780  1.00  0.00    -0.646 OA
BRANCH  17  19
HETATM   19  O6  UNL     1      29.115  -2.899  53.393  1.00  0.00    -0.773 OA
HETATM   20  H17 UNL     1      29.926  -3.439  53.077  1.00  0.00     0.167 HD
ENDBRANCH  17  19
ENDBRANCH  14  17
ENDBRANCH   8  11
ENDBRANCH   7   8
ENDBRANCH   4   7
BRANCH   1  21
HETATM   21  C6  UNL     1      26.618   6.771  48.272  1.00  0.00     0.165 C 
HETATM   22  O1  UNL     1      25.762   7.252  47.524  1.00  0.00    -0.292 OA
BRANCH  21  23
HETATM   23  C2  UNL     1      27.991   7.156  48.576  1.00  0.00     0.085 C 
HETATM   24  C1  UNL     1      28.925   6.630  47.503  1.00  0.00     0.020 C 
BRANCH  23  25
HETATM   25  C3  UNL     1      28.281   8.519  49.036  1.00  0.00     0.283 C 
BRANCH  25  26
HETATM   26  N1  UNL     1      29.227   9.287  48.284  1.00  0.00     0.080 N 
HETATM   27  C4  UNL     1      30.078   9.928  49.361  1.00  0.00     0.309 C 
HETATM   28  C5  UNL     1      28.532  10.425  47.639  1.00  0.00     0.309 C 
ENDBRANCH  25  26
ENDBRANCH  23  25
ENDBRANCH  21  23
ENDBRANCH   1  21
TORSDOF 9
ENDMDL
MODEL 4
REMARK VINA RESULT:      -7.5      2.755      7.154
REMARK  9 active torsions:
REMARK  status: ('A' for Active; 'I' for Inactive)
REMARK    1  A    between atoms: C2_2  and  C3_3 
REMARK    2  A    between atoms: C2_2  and  C6_7 
REMARK    3  A    between atoms: C3_3  and  N1_4 
REMARK    4  A    between atoms: C6_7  and  C7_9 
REMARK    5  A    between atoms: C10_12  and  O2_13 
REMARK    6  A    between atoms: O2_13  and  S1_14 
REMARK    7  A    between atoms: S1_14  and  C11_17 
REMARK    8  A    between atoms: C14_20  and  C15_21 
REMARK    9  A    between atoms: C15_21  and  O6_23 
ROOT
HETATM    1  C7  UNL     1      26.958   6.062  48.850  1.00  0.00     0.010 A 
HETATM    2  C8  UNL     1      25.637   6.281  49.161  1.00  0.00     0.018 A 
HETATM    3  C9  UNL     1      24.723   5.317  49.533  1.00  0.00     0.039 A 
HETATM    4  C10 UNL     1      25.147   4.010  49.603  1.00  0.00     0.089 A 
HETATM    5  C18 UNL     1      26.454   3.717  49.308  1.00  0.00     0.039 A 
HETATM    6  C19 UNL     1      27.351   4.716  48.935  1.00  0.00     0.018 A 
ENDROOT
BRANCH   4   7
HETATM    7  O2  UNL     1      24.460   2.832  49.939  1.00  0.00    -0.229 OA
BRANCH   7   8
HETATM    8  S1  UNL     1      24.350   2.484  51.628  1.00  0.00     0.303 S 
HETATM    9  O3  UNL     1      23.184   1.528  51.751  1.00  0.00    -0.193 OA
HETATM   10  O4  UNL     1      24.069   3.737  52.403  1.00  0.00    -0.193 OA
BRANCH   8  11
HETATM   11  C11 UNL     1      25.784   1.649  52.157  1.00  0.00     0.086 A 
HETATM   12  C12 UNL     1      25.819   0.264  52.072  1.00  0.00     0.027 A 
HETATM   13  C13 UNL     1      26.880  -0.528  52.468  1.00  0.00     0.020 A 
HETATM   14  C14 UNL     1      27.981   0.147  52.988  1.00  0.00     0.037 A 
HETATM   15  C16 UNL     1      28.011   1.523  53.100  1.00  0.00     0.020 A 
HETATM   16  C17 UNL     1      26.908   2.272  52.682  1.00  0.00     0.027 A 
BRANCH  14  17
HETATM   17  C15 UNL     1      29.185  -0.537  53.455  1.00  0.00     0.176 C 
HETATM   18  O5  UNL     1      29.323  -1.719  53.877  1.00  0.00    -0.646 OA
BRANCH  17  19
HETATM   19  O6  UNL     1      30.448   0.070  53.506  1.00  0.00    -0.773 OA
HETATM   20  H17 UNL     1      30.654   0.850  54.138  1.00  0.00     0.167 HD
ENDBRANCH  17  19
ENDBRANCH  14  17
ENDBRANCH   8  11
ENDBRANCH   7   8
ENDBRANCH   4   7
BRANCH   1  21
HETATM   21  C6  UNL     1      27.853   7.171  48.454  1.00  0.00     0.165 C 
HETATM   22  O1  UNL     1      27.493   8.168  49.086  1.00  0.00    -0.292 OA
BRANCH  21  23
HETATM   23  C2  UNL     1      28.919   6.950  47.484  1.00  0.00     0.085 C 
HETATM   24  C1  UNL     1      28.692   7.817  46.260  1.00  0.00     0.020 C 
BRANCH  23  25
HETATM   25  C3  UNL     1      30.312   6.871  47.937  1.00  0.00     0.283 C 
BRANCH  25  26
HETATM   26  N1  UNL     1      30.808   5.592  48.348  1.00  0.00     0.080 N 
HETATM   27  C4  UNL     1      31.703   5.934  49.520  1.00  0.00     0.309 C 
HETATM   28  C5  UNL     1      31.735   5.071  47.316  1.00  0.00     0.309 C 
ENDBRANCH  25  26
ENDBRANCH  23  25
ENDBRANCH  21  23
ENDBRANCH   1  21
TORSDOF 9
ENDMDL
MODEL 5
REMARK VINA RESULT:      -7.5      3.209      7.846
REMARK  9 active torsions:
REMARK  status: ('A' for Active; 'I' for Inactive)
REMARK    1  A    between atoms: C2_2  and  C3_3 
REMARK    2  A    between atoms: C2_2  and  C6_7 
REMARK    3  A    between atoms: C3_3  and  N1_4 
REMARK    4  A    between atoms: C6_7  and  C7_9 
REMARK    5  A    between atoms: C10_12  and  O2_13 
REMARK    6  A    between atoms: O2_13  and  S1_14 
REMARK    7  A    between atoms: S1_14  and  C11_17 
REMARK    8  A    between atoms: C14_20  and  C15_21 
REMARK    9  A    between atoms: C15_21  and  O6_23 
ROOT
HETATM    1  C7  UNL     1      26.518   5.313  49.010  1.00  0.00     0.010 A 
HETATM    2  C8  UNL     1      27.052   4.085  49.314  1.00  0.00     0.018 A 
HETATM    3  C9  UNL     1      26.380   3.032  49.898  1.00  0.00     0.039 A 
HETATM    4  C10 UNL     1      25.052   3.203  50.216  1.00  0.00     0.089 A 
HETATM    5  C18 UNL     1      24.450   4.404  49.938  1.00  0.00     0.039 A 
HETATM    6  C19 UNL     1      25.161   5.448  49.348  1.00  0.00     0.018 A 
ENDROOT
BRANCH   4   7
HETATM    7  O2  UNL     1      24.124   2.333  50.812  1.00  0.00    -0.229 OA
BRANCH   7   8
HETATM    8  S1  UNL     1      24.332   2.061  52.505  1.00  0.00     0.303 S 
HETATM    9  O3  UNL     1      23.120   1.257  52.920  1.00  0.00    -0.193 OA
HETATM   10  O4  UNL     1      24.360   3.365  53.245  1.00  0.00    -0.193 OA
BRANCH   8  11
HETATM   11  C11 UNL     1      25.744   1.078  52.779  1.00  0.00     0.086 A 
HETATM   12  C12 UNL     1      25.711  -0.257  52.401  1.00  0.00     0.027 A 
HETATM   13  C13 UNL     1      26.748  -1.155  52.572  1.00  0.00     0.020 A 
HETATM   14  C14 UNL     1      27.897  -0.649  53.172  1.00  0.00     0.037 A 
HETATM   15  C16 UNL     1      27.996   0.669  53.572  1.00  0.00     0.020 A 
HETATM   16  C17 UNL     1      26.914   1.531  53.373  1.00  0.00     0.027 A 
BRANCH  14  17
HETATM   17  C15 UNL     1      29.084  -1.462  53.428  1.00  0.00     0.176 C 
HETATM   18  O5  UNL     1      30.254  -1.097  53.731  1.00  0.00    -0.646 OA
BRANCH  17  19
HETATM   19  O6  UNL     1      29.090  -2.863  53.368  1.00  0.00    -0.773 OA
HETATM   20  H17 UNL     1      28.607  -3.441  54.063  1.00  0.00     0.167 HD
ENDBRANCH  17  19
ENDBRANCH  14  17
ENDBRANCH   8  11
ENDBRANCH   7   8
ENDBRANCH   4   7
BRANCH   1  21
HETATM   21  C6  UNL     1      27.334   6.380  48.390  1.00  0.00     0.165 C 
HETATM   22  O1  UNL     1      28.405   5.866  48.056  1.00  0.00    -0.292 OA
BRANCH  21  23
HETATM   23  C2  UNL     1      26.811   7.735  48.269  1.00  0.00     0.085 C 
HETATM   24  C1  UNL     1      27.764   8.718  48.923  1.00  0.00     0.020 C 
BRANCH  23  25
HETATM   25  C3  UNL     1      26.236   8.185  46.997  1.00  0.00     0.283 C 
BRANCH  25  26
HETATM   26  N1  UNL     1      24.809   8.262  46.901  1.00  0.00     0.080 N 
HETATM   27  C4  UNL     1      24.562   8.157  45.411  1.00  0.00     0.309 C 
HETATM   28  C5  UNL     1      24.367   9.632  47.252  1.00  0.00     0.309 C 
ENDBRANCH  25  26
ENDBRANCH  23  25
ENDBRANCH  21  23
ENDBRANCH   1  21
TORSDOF 9
ENDMDL
MODEL 6
REMARK VINA RESULT:      -7.5      3.449      8.093
REMARK  9 active torsions:
REMARK  status: ('A' for Active; 'I' for Inactive)
REMARK    1  A    between atoms: C2_2  and  C3_3 
REMARK    2  A    between atoms: C2_2  and  C6_7 
REMARK    3  A    between atoms: C3_3  and  N1_4 
REMARK    4  A    between atoms: C6_7  and  C7_9 
REMARK    5  A    between atoms: C10_12  and  O2_13 
REMARK    6  A    between atoms: O2_13  and  S1_14 
REMARK    7  A    between atoms: S1_14  and  C11_17 
REMARK    8  A    between atoms: C14_20  and  C15_21 
REMARK    9  A    between atoms: C15_21  and  O6_23 
ROOT
HETATM    1  C7  UNL     1      25.072   3.311  50.870  1.00  0.00     0.010 A 
HETATM    2  C8  UNL     1      24.387   3.490  52.048  1.00  0.00     0.018 A 
HETATM    3  C9  UNL     1      24.631   2.833  53.235  1.00  0.00     0.039 A 
HETATM    4  C10 UNL     1      25.648   1.907  53.269  1.00  0.00     0.089 A 
HETATM    5  C18 UNL     1      26.378   1.676  52.130  1.00  0.00     0.039 A 
HETATM    6  C19 UNL     1      26.102   2.359  50.946  1.00  0.00     0.018 A 
ENDROOT
BRANCH   4   7
HETATM    7  O2  UNL     1      26.121   1.090  54.309  1.00  0.00    -0.229 OA
BRANCH   7   8
HETATM    8  S1  UNL     1      25.502  -0.522  54.337  1.00  0.00     0.303 S 
HETATM    9  O3  UNL     1      25.672  -0.978  55.769  1.00  0.00    -0.193 OA
HETATM   10  O4  UNL     1      26.297  -1.405  53.421  1.00  0.00    -0.193 OA
BRANCH   8  11
HETATM   11  C11 UNL     1      23.798  -0.510  53.979  1.00  0.00     0.086 A 
HETATM   12  C12 UNL     1      22.899  -0.758  55.007  1.00  0.00     0.027 A 
HETATM   13  C13 UNL     1      21.524  -0.796  54.866  1.00  0.00     0.020 A 
HETATM   14  C14 UNL     1      21.038  -0.563  53.583  1.00  0.00     0.037 A 
HETATM   15  C16 UNL     1      21.878  -0.310  52.515  1.00  0.00     0.020 A 
HETATM   16  C17 UNL     1      23.261  -0.284  52.720  1.00  0.00     0.027 A 
BRANCH  14  17
HETATM   17  C15 UNL     1      19.614  -0.568  53.258  1.00  0.00     0.176 C 
HETATM   18  O5  UNL     1      18.972   0.166  52.455  1.00  0.00    -0.646 OA
BRANCH  17  19
HETATM   19  O6  UNL     1      18.691  -1.453  53.837  1.00  0.00    -0.773 OA
HETATM   20  H17 UNL     1      18.929  -2.426  54.049  1.00  0.00     0.167 HD
ENDBRANCH  17  19
ENDBRANCH  14  17
ENDBRANCH   8  11
ENDBRANCH   7   8
ENDBRANCH   4   7
BRANCH   1  21
HETATM   21  C6  UNL     1      24.720   4.065  49.647  1.00  0.00     0.165 C 
HETATM   22  O1  UNL     1      25.692   4.771  49.367  1.00  0.00    -0.292 OA
BRANCH  21  23
HETATM   23  C2  UNL     1      23.420   3.881  49.014  1.00  0.00     0.085 C 
HETATM   24  C1  UNL     1      22.948   2.452  49.209  1.00  0.00     0.020 C 
BRANCH  23  25
HETATM   25  C3  UNL     1      22.380   4.903  49.172  1.00  0.00     0.283 C 
BRANCH  25  26
HETATM   26  N1  UNL     1      21.540   4.825  50.330  1.00  0.00     0.080 N 
HETATM   27  C4  UNL     1      20.148   4.966  49.750  1.00  0.00     0.309 C 
HETATM   28  C5  UNL     1      21.722   6.044  51.151  1.00  0.00     0.309 C 
ENDBRANCH  25  26
ENDBRANCH  23  25
ENDBRANCH  21  23
ENDBRANCH   1  21
TORSDOF 9
ENDMDL
MODEL 7
REMARK VINA RESULT:      -7.2      2.286      7.119
REMARK  9 active torsions:
REMARK  status: ('A' for Active; 'I' for Inactive)
REMARK    1  A    between atoms: C2_2  and  C3_3 
REMARK    2  A    between atoms: C2_2  and  C6_7 
REMARK    3  A    between atoms: C3_3  and  N1_4 
REMARK    4  A    between atoms: C6_7  and  C7_9 
REMARK    5  A    between atoms: C10_12  and  O2_13 
REMARK    6  A    between atoms: O2_13  and  S1_14 
REMARK    7  A    between atoms: S1_14  and  C11_17 
REMARK    8  A    between atoms: C14_20  and  C15_21 
REMARK    9  A    between atoms: C15_21  and  O6_23 
ROOT
HETATM    1  C7  UNL     1      26.465   5.936  48.813  1.00  0.00     0.010 A 
HETATM    2  C8  UNL     1      25.158   6.325  48.645  1.00  0.00     0.018 A 
HETATM    3  C9  UNL     1      24.046   5.530  48.828  1.00  0.00     0.039 A 
HETATM    4  C10 UNL     1      24.237   4.223  49.213  1.00  0.00     0.089 A 
HETATM    5  C18 UNL     1      25.516   3.764  49.402  1.00  0.00     0.039 A 
HETATM    6  C19 UNL     1      26.617   4.596  49.207  1.00  0.00     0.018 A 
ENDROOT
BRANCH   4   7
HETATM    7  O2  UNL     1      23.319   3.190  49.466  1.00  0.00    -0.229 OA
BRANCH   7   8
HETATM    8  S1  UNL     1      22.664   3.146  51.064  1.00  0.00     0.303 S 
HETATM    9  O3  UNL     1      21.347   2.415  50.922  1.00  0.00    -0.193 OA
HETATM   10  O4  UNL     1      22.425   4.537  51.570  1.00  0.00    -0.193 OA
BRANCH   8  11
HETATM   11  C11 UNL     1      23.692   2.198  52.102  1.00  0.00     0.086 A 
HETATM   12  C12 UNL     1      23.373   0.865  52.320  1.00  0.00     0.027 A 
HETATM   13  C13 UNL     1      24.086   0.001  53.129  1.00  0.00     0.020 A 
HETATM   14  C14 UNL     1      25.204   0.541  53.758  1.00  0.00     0.037 A 
HETATM   15  C16 UNL     1      25.578   1.860  53.584  1.00  0.00     0.020 A 
HETATM   16  C17 UNL     1      24.816   2.686  52.753  1.00  0.00     0.027 A 
BRANCH  14  17
HETATM   17  C15 UNL     1      26.068  -0.232  54.648  1.00  0.00     0.176 C 
HETATM   18  O5  UNL     1      25.825  -0.696  55.797  1.00  0.00    -0.646 OA
BRANCH  17  19
HETATM   19  O6  UNL     1      27.385  -0.592  54.327  1.00  0.00    -0.773 OA
HETATM   20  H17 UNL     1      27.773  -1.509  54.566  1.00  0.00     0.167 HD
ENDBRANCH  17  19
ENDBRANCH  14  17
ENDBRANCH   8  11
ENDBRANCH   7   8
ENDBRANCH   4   7
BRANCH   1  21
HETATM   21  C6  UNL     1      27.587   6.871  48.580  1.00  0.00     0.165 C 
HETATM   22  O1  UNL     1      27.300   7.927  49.150  1.00  0.00    -0.292 OA
BRANCH  21  23
HETATM   23  C2  UNL     1      28.747   6.455  47.801  1.00  0.00     0.085 C 
HETATM   24  C1  UNL     1      29.094   7.522  46.780  1.00  0.00     0.020 C 
BRANCH  23  25
HETATM   25  C3  UNL     1      29.898   5.846  48.476  1.00  0.00     0.283 C 
BRANCH  25  26
HETATM   26  N1  UNL     1      31.200   6.106  47.937  1.00  0.00     0.080 N 
HETATM   27  C4  UNL     1      31.620   4.755  47.397  1.00  0.00     0.309 C 
HETATM   28  C5  UNL     1      32.146   6.370  49.046  1.00  0.00     0.309 C 
ENDBRANCH  25  26
ENDBRANCH  23  25
ENDBRANCH  21  23
ENDBRANCH   1  21
TORSDOF 9
ENDMDL
MODEL 8
REMARK VINA RESULT:      -7.2      2.765      7.770
REMARK  9 active torsions:
REMARK  status: ('A' for Active; 'I' for Inactive)
REMARK    1  A    between atoms: C2_2  and  C3_3 
REMARK    2  A    between atoms: C2_2  and  C6_7 
REMARK    3  A    between atoms: C3_3  and  N1_4 
REMARK    4  A    between atoms: C6_7  and  C7_9 
REMARK    5  A    between atoms: C10_12  and  O2_13 
REMARK    6  A    between atoms: O2_13  and  S1_14 
REMARK    7  A    between atoms: S1_14  and  C11_17 
REMARK    8  A    between atoms: C14_20  and  C15_21 
REMARK    9  A    between atoms: C15_21  and  O6_23 
ROOT
HETATM    1  C7  UNL     1      27.359   5.540  48.620  1.00  0.00     0.010 A 
HETATM    2  C8  UNL     1      27.210   4.267  49.116  1.00  0.00     0.018 A 
HETATM    3  C9  UNL     1      26.026   3.692  49.529  1.00  0.00     0.039 A 
HETATM    4  C10 UNL     1      24.875   4.442  49.447  1.00  0.00     0.089 A 
HETATM    5  C18 UNL     1      24.947   5.722  48.959  1.00  0.00     0.039 A 
HETATM    6  C19 UNL     1      26.161   6.271  48.552  1.00  0.00     0.018 A 
ENDROOT
BRANCH   4   7
HETATM    7  O2  UNL     1      23.547   4.138  49.790  1.00  0.00    -0.229 OA
BRANCH   7   8
HETATM    8  S1  UNL     1      23.189   4.145  51.480  1.00  0.00     0.303 S 
HETATM    9  O3  UNL     1      21.699   3.902  51.562  1.00  0.00    -0.193 OA
HETATM   10  O4  UNL     1      23.525   5.478  52.081  1.00  0.00    -0.193 OA
BRANCH   8  11
HETATM   11  C11 UNL     1      23.992   2.812  52.262  1.00  0.00     0.086 A 
HETATM   12  C12 UNL     1      23.508   1.528  52.055  1.00  0.00     0.027 A 
HETATM   13  C13 UNL     1      24.033   0.381  52.622  1.00  0.00     0.020 A 
HETATM   14  C14 UNL     1      25.129   0.565  53.459  1.00  0.00     0.037 A 
HETATM   15  C16 UNL     1      25.661   1.815  53.707  1.00  0.00     0.020 A 
HETATM   16  C17 UNL     1      25.087   2.938  53.105  1.00  0.00     0.027 A 
BRANCH  14  17
HETATM   17  C15 UNL     1      25.804  -0.539  54.139  1.00  0.00     0.176 C 
HETATM   18  O5  UNL     1      26.473  -1.492  53.651  1.00  0.00    -0.646 OA
BRANCH  17  19
HETATM   19  O6  UNL     1      25.801  -0.706  55.532  1.00  0.00    -0.773 OA
HETATM   20  H17 UNL     1      26.267  -1.497  55.987  1.00  0.00     0.167 HD
ENDBRANCH  17  19
ENDBRANCH  14  17
ENDBRANCH   8  11
ENDBRANCH   7   8
ENDBRANCH   4   7
BRANCH   1  21
HETATM   21  C6  UNL     1      28.682   6.062  48.214  1.00  0.00     0.165 C 
HETATM   22  O1  UNL     1      29.482   5.128  48.306  1.00  0.00    -0.292 OA
BRANCH  21  23
HETATM   23  C2  UNL     1      28.833   7.452  47.802  1.00  0.00     0.085 C 
HETATM   24  C1  UNL     1      29.737   8.184  48.775  1.00  0.00     0.020 C 
BRANCH  23  25
HETATM   25  C3  UNL     1      29.055   7.774  46.388  1.00  0.00     0.283 C 
BRANCH  25  26
HETATM   26  N1  UNL     1      30.172   8.612  46.064  1.00  0.00     0.080 N 
HETATM   27  C4  UNL     1      29.525   9.774  45.339  1.00  0.00     0.309 C 
HETATM   28  C5  UNL     1      30.999   7.947  45.030  1.00  0.00     0.309 C 
ENDBRANCH  25  26
ENDBRANCH  23  25
ENDBRANCH  21  23
ENDBRANCH   1  21
TORSDOF 9
ENDMDL
MODEL 9
REMARK VINA RESULT:      -7.1      2.853      8.144
REMARK  9 active torsions:
REMARK  status: ('A' for Active; 'I' for Inactive)
REMARK    1  A    between atoms: C2_2  and  C3_3 
REMARK    2  A    between atoms: C2_2  and  C6_7 
REMARK    3  A    between atoms: C3_3  and  N1_4 
REMARK    4  A    between atoms: C6_7  and  C7_9 
REMARK    5  A    between atoms: C10_12  and  O2_13 
REMARK    6  A    between atoms: O2_13  and  S1_14 
REMARK    7  A    between atoms: S1_14  and  C11_17 
REMARK    8  A    between atoms: C14_20  and  C15_21 
REMARK    9  A    between atoms: C15_21  and  O6_23 
ROOT
HETATM    1  C7  UNL     1      27.091   6.326  48.561  1.00  0.00     0.010 A 
HETATM    2  C8  UNL     1      25.966   6.572  49.312  1.00  0.00     0.018 A 
HETATM    3  C9  UNL     1      25.283   5.648  50.073  1.00  0.00     0.039 A 
HETATM    4  C10 UNL     1      25.749   4.354  50.099  1.00  0.00     0.089 A 
HETATM    5  C18 UNL     1      26.870   4.034  49.375  1.00  0.00     0.039 A 
HETATM    6  C19 UNL     1      27.535   4.994  48.615  1.00  0.00     0.018 A 
ENDROOT
BRANCH   4   7
HETATM    7  O2  UNL     1      25.272   3.212  50.765  1.00  0.00    -0.229 OA
BRANCH   7   8
HETATM    8  S1  UNL     1      23.559   2.991  50.740  1.00  0.00     0.303 S 
HETATM    9  O3  UNL     1      23.262   2.419  49.372  1.00  0.00    -0.193 OA
HETATM   10  O4  UNL     1      22.860   4.307  50.908  1.00  0.00    -0.193 OA
BRANCH   8  11
HETATM   11  C11 UNL     1      23.097   1.804  51.928  1.00  0.00     0.086 A 
HETATM   12  C12 UNL     1      24.087   1.035  52.522  1.00  0.00     0.027 A 
HETATM   13  C13 UNL     1      23.866   0.048  53.465  1.00  0.00     0.020 A 
HETATM   14  C14 UNL     1      22.537  -0.164  53.822  1.00  0.00     0.037 A 
HETATM   15  C16 UNL     1      21.504   0.567  53.269  1.00  0.00     0.020 A 
HETATM   16  C17 UNL     1      21.790   1.552  52.320  1.00  0.00     0.027 A 
BRANCH  14  17
HETATM   17  C15 UNL     1      22.127  -1.168  54.801  1.00  0.00     0.176 C 
HETATM   18  O5  UNL     1      22.815  -1.757  55.681  1.00  0.00    -0.646 OA
BRANCH  17  19
HETATM   19  O6  UNL     1      20.816  -1.654  54.908  1.00  0.00    -0.773 OA
HETATM   20  H17 UNL     1      20.441  -2.357  54.263  1.00  0.00     0.167 HD
ENDBRANCH  17  19
ENDBRANCH  14  17
ENDBRANCH   8  11
ENDBRANCH   7   8
ENDBRANCH   4   7
BRANCH   1  21
HETATM   21  C6  UNL     1      27.742   7.393  47.770  1.00  0.00     0.165 C 
HETATM   22  O1  UNL     1      26.842   8.100  47.308  1.00  0.00    -0.292 OA
BRANCH  21  23
HETATM   23  C2  UNL     1      29.195   7.453  47.665  1.00  0.00     0.085 C 
HETATM   24  C1  UNL     1      29.598   7.746  46.232  1.00  0.00     0.020 C 
BRANCH  23  25
HETATM   25  C3  UNL     1      29.971   8.167  48.685  1.00  0.00     0.283 C 
BRANCH  25  26
HETATM   26  N1  UNL     1      31.099   7.494  49.256  1.00  0.00     0.080 N 
HETATM   27  C4  UNL     1      32.257   8.009  48.427  1.00  0.00     0.309 C 
HETATM   28  C5  UNL     1      31.026   6.051  48.928  1.00  0.00     0.309 C 
ENDBRANCH  25  26
ENDBRANCH  23  25
ENDBRANCH  21  23
ENDBRANCH   1  21
TORSDOF 9
ENDMDL
