MODEL 1
REMARK VINA RESULT:      -6.3      0.000      0.000
REMARK  7 active torsions:
REMARK  status: ('A' for Active; 'I' for Inactive)
REMARK    1  A    between atoms: N1_5  and  C4_6 
REMARK    2  A    between atoms: C7_9  and  P1_19 
REMARK    3  A    between atoms: C9_11  and  N2_12 
REMARK    4  A    between atoms: N2_12  and  C11_14 
REMARK    5  A    between atoms: C11_14  and  C12_15 
REMARK    6  A    between atoms: C12_15  and  N3_16 
REMARK    7  A    between atoms: P1_19  and  O2_20 
ROOT
HETATM    1  C4  UNL     1      25.757   1.286  52.887  1.00  0.00     0.062 A 
HETATM    2  C5  UNL     1      26.301   2.205  53.948  1.00  0.00    -0.015 A 
HETATM    3  C6  UNL     1      25.193   2.132  53.282  1.00  0.00     0.072 A 
HETATM    4  C7  UNL     1      24.792   1.092  52.167  1.00  0.00     0.066 A 
HETATM    5  C8  UNL     1      23.481   1.205  51.516  1.00  0.00     0.044 A 
HETATM    6  C9  UNL     1      24.372   1.634  52.395  1.00  0.00     0.058 A 
ENDROOT
BRANCH   6   7
HETATM    7  N2  UNL     1      23.130   2.617  52.395  1.00  0.00    -0.404 N 
HETATM    8  C10 UNL     1      21.721   2.161  52.402  1.00  0.00     0.144 C 
BRANCH   7   9
HETATM    9  C11 UNL     1      23.339   4.072  52.274  1.00  0.00     0.147 C 
BRANCH   9  10
HETATM   10  C12 UNL     1      23.447   4.528  50.835  1.00  0.00     0.290 C 
BRANCH  10  11
HETATM   11  N3  UNL     1      24.860   4.768  50.591  1.00  0.00     0.081 N 
HETATM   12  C13 UNL     1      25.419   3.853  49.626  1.00  0.00     0.309 C 
HETATM   13  C14 UNL     1      25.153   6.117  50.174  1.00  0.00     0.309 C 
ENDBRANCH  10  11
ENDBRANCH   9  10
ENDBRANCH   7   9
ENDBRANCH   6   7
BRANCH   1  14
HETATM   14  N1  UNL     1      27.076   0.558  53.010  1.00  0.00    -0.237 NA
HETATM   15  C3  UNL     1      27.283  -0.794  53.200  1.00  0.00     0.107 A 
HETATM   16  C2  UNL     1      28.710  -0.707  53.134  1.00  0.00     0.026 A 
HETATM   17  O1  UNL     1      27.705  -1.963  53.357  1.00  0.00     0.000 OA
HETATM   18  P1  UNL     1      25.716  -0.610  53.344  1.00  0.00     0.082 P 
HETATM   19  C1  UNL     1      29.100  -1.941  53.334  1.00  0.00     0.008 A 
BRANCH  18  20
HETATM   20  O2  UNL     1      25.526  -0.990  55.019  1.00  0.00    -0.357 OA
HETATM   21  C15 UNL     1      24.227  -1.236  55.406  1.00  0.00     0.208 C 
ENDBRANCH  18  20
ENDBRANCH   1  14
TORSDOF 7
ENDMDL
MODEL 2
REMARK VINA RESULT:      -6.2      1.069      1.382
REMARK  7 active torsions:
REMARK  status: ('A' for Active; 'I' for Inactive)
REMARK    1  A    between atoms: N1_5  and  C4_6 
REMARK    2  A    between atoms: C7_9  and  P1_19 
REMARK    3  A    between atoms: C9_11  and  N2_12 
REMARK    4  A    between atoms: N2_12  and  C11_14 
REMARK    5  A    between atoms: C11_14  and  C12_15 
REMARK    6  A    between atoms: C12_15  and  N3_16 
REMARK    7  A    between atoms: P1_19  and  O2_20 
ROOT
HETATM    1  C4  UNL     1      26.095   1.392  52.867  1.00  0.00     0.062 A 
HETATM    2  C5  UNL     1      26.473   2.106  54.136  1.00  0.00    -0.015 A 
HETATM    3  C6  UNL     1      25.480   2.178  53.307  1.00  0.00     0.072 A 
HETATM    4  C7  UNL     1      25.251   1.349  51.986  1.00  0.00     0.066 A 
HETATM    5  C8  UNL     1      24.058   1.608  51.172  1.00  0.00     0.044 A 
HETATM    6  C9  UNL     1      24.805   1.859  52.235  1.00  0.00     0.058 A 
ENDROOT
BRANCH   6   7
HETATM    7  N2  UNL     1      23.582   2.867  52.211  1.00  0.00    -0.404 N 
HETATM    8  C10 UNL     1      22.178   2.460  52.444  1.00  0.00     0.144 C 
BRANCH   7   9
HETATM    9  C11 UNL     1      23.795   4.276  51.834  1.00  0.00     0.147 C 
BRANCH   9  10
HETATM   10  C12 UNL     1      22.499   5.046  51.699  1.00  0.00     0.290 C 
BRANCH  10  11
HETATM   11  N3  UNL     1      22.786   6.168  50.820  1.00  0.00     0.081 N 
HETATM   12  C13 UNL     1      21.743   7.164  50.836  1.00  0.00     0.309 C 
HETATM   13  C14 UNL     1      24.045   6.812  51.097  1.00  0.00     0.309 C 
ENDBRANCH  10  11
ENDBRANCH   9  10
ENDBRANCH   7   9
ENDBRANCH   6   7
BRANCH   1  14
HETATM   14  N1  UNL     1      27.375   0.613  53.064  1.00  0.00    -0.237 NA
HETATM   15  C3  UNL     1      27.533  -0.758  53.118  1.00  0.00     0.107 A 
HETATM   16  C2  UNL     1      28.958  -0.710  53.239  1.00  0.00     0.026 A 
HETATM   17  O1  UNL     1      27.911  -1.950  53.187  1.00  0.00     0.000 OA
HETATM   18  P1  UNL     1      25.964  -0.542  53.088  1.00  0.00     0.082 P 
HETATM   19  C1  UNL     1      29.298  -1.970  53.339  1.00  0.00     0.008 A 
BRANCH  18  20
HETATM   20  O2  UNL     1      25.557  -1.105  54.670  1.00  0.00    -0.357 OA
HETATM   21  C15 UNL     1      24.218  -1.014  54.983  1.00  0.00     0.208 C 
ENDBRANCH  18  20
ENDBRANCH   1  14
TORSDOF 7
ENDMDL
MODEL 3
REMARK VINA RESULT:      -6.2      2.612      5.050
REMARK  7 active torsions:
REMARK  status: ('A' for Active; 'I' for Inactive)
REMARK    1  A    between atoms: N1_5  and  C4_6 
REMARK    2  A    between atoms: C7_9  and  P1_19 
REMARK    3  A    between atoms: C9_11  and  N2_12 
REMARK    4  A    between atoms: N2_12  and  C11_14 
REMARK    5  A    between atoms: C11_14  and  C12_15 
REMARK    6  A    between atoms: C12_15  and  N3_16 
REMARK    7  A    between atoms: P1_19  and  O2_20 
ROOT
HETATM    1  C4  UNL     1      24.834   1.909  52.379  1.00  0.00     0.062 A 
HETATM    2  C5  UNL     1      24.468   3.036  53.306  1.00  0.00    -0.015 A 
HETATM    3  C6  UNL     1      24.496   1.745  53.402  1.00  0.00     0.072 A 
HETATM    4  C7  UNL     1      24.895   0.693  52.298  1.00  0.00     0.066 A 
HETATM    5  C8  UNL     1      24.833  -0.739  52.613  1.00  0.00     0.044 A 
HETATM    6  C9  UNL     1      24.681   0.527  52.967  1.00  0.00     0.058 A 
ENDROOT
BRANCH   6   7
HETATM    7  N2  UNL     1      24.217  -0.405  54.162  1.00  0.00    -0.404 N 
HETATM    8  C10 UNL     1      25.090  -0.783  55.296  1.00  0.00     0.144 C 
BRANCH   7   9
HETATM    9  C11 UNL     1      22.887  -1.041  54.129  1.00  0.00     0.147 C 
BRANCH   9  10
HETATM   10  C12 UNL     1      21.774  -0.085  54.502  1.00  0.00     0.290 C 
BRANCH  10  11
HETATM   11  N3  UNL     1      20.992   0.117  53.293  1.00  0.00     0.081 N 
HETATM   12  C13 UNL     1      19.675  -0.463  53.382  1.00  0.00     0.309 C 
HETATM   13  C14 UNL     1      20.863   1.502  52.914  1.00  0.00     0.309 C 
ENDBRANCH  10  11
ENDBRANCH   9  10
ENDBRANCH   7   9
ENDBRANCH   6   7
BRANCH   1  14
HETATM   14  N1  UNL     1      25.130   2.995  51.370  1.00  0.00    -0.237 NA
HETATM   15  C3  UNL     1      26.247   3.125  50.568  1.00  0.00     0.107 A 
HETATM   16  C2  UNL     1      25.768   4.285  49.881  1.00  0.00     0.026 A 
HETATM   17  O1  UNL     1      27.146   3.435  49.752  1.00  0.00     0.000 OA
HETATM   18  P1  UNL     1      26.594   1.919  51.536  1.00  0.00     0.082 P 
HETATM   19  C1  UNL     1      26.750   4.585  49.069  1.00  0.00     0.008 A 
BRANCH  18  20
HETATM   20  O2  UNL     1      27.875   2.632  52.450  1.00  0.00    -0.357 OA
HETATM   21  C15 UNL     1      28.327   1.861  53.499  1.00  0.00     0.208 C 
ENDBRANCH  18  20
ENDBRANCH   1  14
TORSDOF 7
ENDMDL
MODEL 4
REMARK VINA RESULT:      -6.2      3.639      6.557
REMARK  7 active torsions:
REMARK  status: ('A' for Active; 'I' for Inactive)
REMARK    1  A    between atoms: N1_5  and  C4_6 
REMARK    2  A    between atoms: C7_9  and  P1_19 
REMARK    3  A    between atoms: C9_11  and  N2_12 
REMARK    4  A    between atoms: N2_12  and  C11_14 
REMARK    5  A    between atoms: C11_14  and  C12_15 
REMARK    6  A    between atoms: C12_15  and  N3_16 
REMARK    7  A    between atoms: P1_19  and  O2_20 
ROOT
HETATM    1  C4  UNL     1      21.685   0.148  53.142  1.00  0.00     0.062 A 
HETATM    2  C5  UNL     1      21.376  -0.077  54.597  1.00  0.00    -0.015 A 
HETATM    3  C6  UNL     1      22.418   0.310  53.933  1.00  0.00     0.072 A 
HETATM    4  C7  UNL     1      22.575   0.473  52.373  1.00  0.00     0.066 A 
HETATM    5  C8  UNL     1      23.864   0.906  51.821  1.00  0.00     0.044 A 
HETATM    6  C9  UNL     1      23.097   0.600  52.855  1.00  0.00     0.058 A 
ENDROOT
BRANCH   6   7
HETATM    7  N2  UNL     1      24.562   0.914  53.372  1.00  0.00    -0.404 N 
HETATM    8  C10 UNL     1      25.173   2.262  53.340  1.00  0.00     0.144 C 
BRANCH   7   9
HETATM    9  C11 UNL     1      25.439  -0.185  53.815  1.00  0.00     0.147 C 
BRANCH   9  10
HETATM   10  C12 UNL     1      26.438   0.253  54.865  1.00  0.00     0.290 C 
BRANCH  10  11
HETATM   11  N3  UNL     1      27.738  -0.209  54.404  1.00  0.00     0.081 N 
HETATM   12  C13 UNL     1      27.723  -0.609  53.019  1.00  0.00     0.309 C 
HETATM   13  C14 UNL     1      28.794   0.753  54.597  1.00  0.00     0.309 C 
ENDBRANCH  10  11
ENDBRANCH   9  10
ENDBRANCH   7   9
ENDBRANCH   6   7
BRANCH   1  14
HETATM   14  N1  UNL     1      20.255  -0.276  52.895  1.00  0.00    -0.237 NA
HETATM   15  C3  UNL     1      19.353   0.266  52.001  1.00  0.00     0.107 A 
HETATM   16  C2  UNL     1      18.316  -0.676  52.291  1.00  0.00     0.026 A 
HETATM   17  O1  UNL     1      18.388   0.583  51.269  1.00  0.00     0.000 OA
HETATM   18  P1  UNL     1      20.601   1.240  51.943  1.00  0.00     0.082 P 
HETATM   19  C1  UNL     1      17.326  -0.285  51.529  1.00  0.00     0.008 A 
BRANCH  18  20
HETATM   20  O2  UNL     1      19.899   2.663  52.627  1.00  0.00    -0.357 OA
HETATM   21  C15 UNL     1      19.983   3.783  51.829  1.00  0.00     0.208 C 
ENDBRANCH  18  20
ENDBRANCH   1  14
TORSDOF 7
ENDMDL
MODEL 5
REMARK VINA RESULT:      -6.2      1.495      2.851
REMARK  7 active torsions:
REMARK  status: ('A' for Active; 'I' for Inactive)
REMARK    1  A    between atoms: N1_5  and  C4_6 
REMARK    2  A    between atoms: C7_9  and  P1_19 
REMARK    3  A    between atoms: C9_11  and  N2_12 
REMARK    4  A    between atoms: N2_12  and  C11_14 
REMARK    5  A    between atoms: C11_14  and  C12_15 
REMARK    6  A    between atoms: C12_15  and  N3_16 
REMARK    7  A    between atoms: P1_19  and  O2_20 
ROOT
HETATM    1  C4  UNL     1      25.582   1.304  52.911  1.00  0.00     0.062 A 
HETATM    2  C5  UNL     1      26.010   2.282  53.971  1.00  0.00    -0.015 A 
HETATM    3  C6  UNL     1      24.921   2.078  53.300  1.00  0.00     0.072 A 
HETATM    4  C7  UNL     1      24.650   0.996  52.187  1.00  0.00     0.066 A 
HETATM    5  C8  UNL     1      23.338   0.954  51.529  1.00  0.00     0.044 A 
HETATM    6  C9  UNL     1      24.169   1.486  52.411  1.00  0.00     0.058 A 
ENDROOT
BRANCH   6   7
HETATM    7  N2  UNL     1      22.820   2.318  52.403  1.00  0.00    -0.404 N 
HETATM    8  C10 UNL     1      22.755   3.775  52.153  1.00  0.00     0.144 C 
BRANCH   7   9
HETATM    9  C11 UNL     1      21.549   1.665  52.766  1.00  0.00     0.147 C 
BRANCH   9  10
HETATM   10  C12 UNL     1      20.348   2.558  52.539  1.00  0.00     0.290 C 
BRANCH  10  11
HETATM   11  N3  UNL     1      19.491   1.853  51.600  1.00  0.00     0.081 N 
HETATM   12  C13 UNL     1      19.820   2.141  50.226  1.00  0.00     0.309 C 
HETATM   13  C14 UNL     1      19.485   0.423  51.785  1.00  0.00     0.309 C 
ENDBRANCH  10  11
ENDBRANCH   9  10
ENDBRANCH   7   9
ENDBRANCH   6   7
BRANCH   1  14
HETATM   14  N1  UNL     1      26.977   0.735  53.041  1.00  0.00    -0.237 NA
HETATM   15  C3  UNL     1      27.339  -0.579  53.264  1.00  0.00     0.107 A 
HETATM   16  C2  UNL     1      28.746  -0.331  53.185  1.00  0.00     0.026 A 
HETATM   17  O1  UNL     1      27.892  -1.687  53.448  1.00  0.00     0.000 OA
HETATM   18  P1  UNL     1      25.762  -0.572  53.417  1.00  0.00     0.082 P 
HETATM   19  C1  UNL     1      29.276  -1.506  53.414  1.00  0.00     0.008 A 
BRANCH  18  20
HETATM   20  O2  UNL     1      25.625  -0.926  55.102  1.00  0.00    -0.357 OA
HETATM   21  C15 UNL     1      24.349  -1.240  55.519  1.00  0.00     0.208 C 
ENDBRANCH  18  20
ENDBRANCH   1  14
TORSDOF 7
ENDMDL
MODEL 6
REMARK VINA RESULT:      -6.0      2.410      3.765
REMARK  7 active torsions:
REMARK  status: ('A' for Active; 'I' for Inactive)
REMARK    1  A    between atoms: N1_5  and  C4_6 
REMARK    2  A    between atoms: C7_9  and  P1_19 
REMARK    3  A    between atoms: C9_11  and  N2_12 
REMARK    4  A    between atoms: N2_12  and  C11_14 
REMARK    5  A    between atoms: C11_14  and  C12_15 
REMARK    6  A    between atoms: C12_15  and  N3_16 
REMARK    7  A    between atoms: P1_19  and  O2_20 
ROOT
HETATM    1  C4  UNL     1      25.884   0.092  52.617  1.00  0.00     0.062 A 
HETATM    2  C5  UNL     1      26.385   0.922  51.467  1.00  0.00    -0.015 A 
HETATM    3  C6  UNL     1      25.241   0.769  52.054  1.00  0.00     0.072 A 
HETATM    4  C7  UNL     1      24.884  -0.182  53.259  1.00  0.00     0.066 A 
HETATM    5  C8  UNL     1      23.505  -0.219  53.761  1.00  0.00     0.044 A 
HETATM    6  C9  UNL     1      24.415   0.253  52.925  1.00  0.00     0.058 A 
ENDROOT
BRANCH   6   7
HETATM    7  N2  UNL     1      23.002   0.868  52.555  1.00  0.00    -0.404 N 
HETATM    8  C10 UNL     1      22.703   2.318  52.590  1.00  0.00     0.144 C 
BRANCH   7   9
HETATM    9  C11 UNL     1      21.864  -0.021  52.260  1.00  0.00     0.147 C 
BRANCH   9  10
HETATM   10  C12 UNL     1      21.061   0.435  51.060  1.00  0.00     0.290 C 
BRANCH  10  11
HETATM   11  N3  UNL     1      19.671   0.444  51.484  1.00  0.00     0.081 N 
HETATM   12  C13 UNL     1      19.480  -0.176  52.772  1.00  0.00     0.309 C 
HETATM   13  C14 UNL     1      19.083   1.760  51.511  1.00  0.00     0.309 C 
ENDBRANCH  10  11
ENDBRANCH   9  10
ENDBRANCH   7   9
ENDBRANCH   6   7
BRANCH   1  14
HETATM   14  N1  UNL     1      27.304  -0.418  52.713  1.00  0.00    -0.237 NA
HETATM   15  C3  UNL     1      28.135  -0.408  53.816  1.00  0.00     0.107 A 
HETATM   16  C2  UNL     1      29.210  -1.092  53.163  1.00  0.00     0.026 A 
HETATM   17  O1  UNL     1      29.044  -0.513  54.671  1.00  0.00     0.000 OA
HETATM   18  P1  UNL     1      26.865   0.422  54.271  1.00  0.00     0.082 P 
HETATM   19  C1  UNL     1      30.140  -1.147  54.083  1.00  0.00     0.008 A 
BRANCH  18  20
HETATM   20  O2  UNL     1      27.577   1.987  54.439  1.00  0.00    -0.357 OA
HETATM   21  C15 UNL     1      28.510   2.297  53.473  1.00  0.00     0.208 C 
ENDBRANCH  18  20
ENDBRANCH   1  14
TORSDOF 7
ENDMDL
MODEL 7
REMARK VINA RESULT:      -6.0      1.351      2.240
REMARK  7 active torsions:
REMARK  status: ('A' for Active; 'I' for Inactive)
REMARK    1  A    between atoms: N1_5  and  C4_6 
REMARK    2  A    between atoms: C7_9  and  P1_19 
REMARK    3  A    between atoms: C9_11  and  N2_12 
REMARK    4  A    between atoms: N2_12  and  C11_14 
REMARK    5  A    between atoms: C11_14  and  C12_15 
REMARK    6  A    between atoms: C12_15  and  N3_16 
REMARK    7  A    between atoms: P1_19  and  O2_20 
ROOT
HETATM    1  C4  UNL     1      27.158   1.371  52.612  1.00  0.00     0.062 A 
HETATM    2  C5  UNL     1      27.727   2.236  53.704  1.00  0.00    -0.015 A 
HETATM    3  C6  UNL     1      26.731   2.337  52.883  1.00  0.00     0.072 A 
HETATM    4  C7  UNL     1      26.283   1.322  51.764  1.00  0.00     0.066 A 
HETATM    5  C8  UNL     1      25.128   1.647  50.918  1.00  0.00     0.044 A 
HETATM    6  C9  UNL     1      25.958   1.951  51.903  1.00  0.00     0.058 A 
ENDROOT
BRANCH   6   7
HETATM    7  N2  UNL     1      24.957   3.159  51.677  1.00  0.00    -0.404 N 
HETATM    8  C10 UNL     1      25.143   4.194  50.635  1.00  0.00     0.144 C 
BRANCH   7   9
HETATM    9  C11 UNL     1      23.825   3.362  52.599  1.00  0.00     0.147 C 
BRANCH   9  10
HETATM   10  C12 UNL     1      23.387   4.809  52.676  1.00  0.00     0.290 C 
BRANCH  10  11
HETATM   11  N3  UNL     1      21.971   4.821  52.349  1.00  0.00     0.081 N 
HETATM   12  C13 UNL     1      21.675   5.635  51.196  1.00  0.00     0.309 C 
HETATM   13  C14 UNL     1      21.415   3.507  52.143  1.00  0.00     0.309 C 
ENDBRANCH  10  11
ENDBRANCH   9  10
ENDBRANCH   7   9
ENDBRANCH   6   7
BRANCH   1  14
HETATM   14  N1  UNL     1      28.269   0.406  52.961  1.00  0.00    -0.237 NA
HETATM   15  C3  UNL     1      28.178  -0.959  53.145  1.00  0.00     0.107 A 
HETATM   16  C2  UNL     1      29.581  -1.146  53.355  1.00  0.00     0.026 A 
HETATM   17  O1  UNL     1      28.334  -2.186  53.344  1.00  0.00     0.000 OA
HETATM   18  P1  UNL     1      26.675  -0.480  52.994  1.00  0.00     0.082 P 
HETATM   19  C1  UNL     1      29.687  -2.430  53.588  1.00  0.00     0.008 A 
BRANCH  18  20
HETATM   20  O2  UNL     1      26.098  -0.807  54.589  1.00  0.00    -0.357 OA
HETATM   21  C15 UNL     1      24.726  -0.785  54.716  1.00  0.00     0.208 C 
ENDBRANCH  18  20
ENDBRANCH   1  14
TORSDOF 7
ENDMDL
MODEL 8
REMARK VINA RESULT:      -6.0      2.005      2.560
REMARK  7 active torsions:
REMARK  status: ('A' for Active; 'I' for Inactive)
REMARK    1  A    between atoms: N1_5  and  C4_6 
REMARK    2  A    between atoms: C7_9  and  P1_19 
REMARK    3  A    between atoms: C9_11  and  N2_12 
REMARK    4  A    between atoms: N2_12  and  C11_14 
REMARK    5  A    between atoms: C11_14  and  C12_15 
REMARK    6  A    between atoms: C12_15  and  N3_16 
REMARK    7  A    between atoms: P1_19  and  O2_20 
ROOT
HETATM    1  C4  UNL     1      24.749   0.731  53.124  1.00  0.00     0.062 A 
HETATM    2  C5  UNL     1      24.803   2.225  53.295  1.00  0.00    -0.015 A 
HETATM    3  C6  UNL     1      23.854   1.349  53.201  1.00  0.00     0.072 A 
HETATM    4  C7  UNL     1      23.982  -0.209  52.999  1.00  0.00     0.066 A 
HETATM    5  C8  UNL     1      22.765  -1.023  52.892  1.00  0.00     0.044 A 
HETATM    6  C9  UNL     1      23.358   0.150  53.048  1.00  0.00     0.058 A 
ENDROOT
BRANCH   6   7
HETATM    7  N2  UNL     1      21.789   0.366  52.984  1.00  0.00    -0.404 N 
HETATM    8  C10 UNL     1      20.931   0.515  54.181  1.00  0.00     0.144 C 
BRANCH   7   9
HETATM    9  C11 UNL     1      21.089   0.314  51.687  1.00  0.00     0.147 C 
BRANCH   9  10
HETATM   10  C12 UNL     1      21.132   1.633  50.947  1.00  0.00     0.290 C 
BRANCH  10  11
HETATM   11  N3  UNL     1      22.126   1.476  49.898  1.00  0.00     0.081 N 
HETATM   12  C13 UNL     1      21.533   1.270  48.600  1.00  0.00     0.309 C 
HETATM   13  C14 UNL     1      23.056   2.575  49.813  1.00  0.00     0.309 C 
ENDBRANCH  10  11
ENDBRANCH   9  10
ENDBRANCH   7   9
ENDBRANCH   6   7
BRANCH   1  14
HETATM   14  N1  UNL     1      26.260   0.796  53.127  1.00  0.00    -0.237 NA
HETATM   15  C3  UNL     1      27.147  -0.138  53.625  1.00  0.00     0.107 A 
HETATM   16  C2  UNL     1      28.316   0.571  53.205  1.00  0.00     0.026 A 
HETATM   17  O1  UNL     1      28.120  -0.836  53.992  1.00  0.00     0.000 OA
HETATM   18  P1  UNL     1      25.723  -0.665  54.077  1.00  0.00     0.082 P 
HETATM   19  C1  UNL     1      29.299  -0.178  53.637  1.00  0.00     0.008 A 
BRANCH  18  20
HETATM   20  O2  UNL     1      25.864  -0.469  55.788  1.00  0.00    -0.357 OA
HETATM   21  C15 UNL     1      24.846  -1.046  56.516  1.00  0.00     0.208 C 
ENDBRANCH  18  20
ENDBRANCH   1  14
TORSDOF 7
ENDMDL
MODEL 9
REMARK VINA RESULT:      -6.0      1.722      2.369
REMARK  7 active torsions:
REMARK  status: ('A' for Active; 'I' for Inactive)
REMARK    1  A    between atoms: N1_5  and  C4_6 
REMARK    2  A    between atoms: C7_9  and  P1_19 
REMARK    3  A    between atoms: C9_11  and  N2_12 
REMARK    4  A    between atoms: N2_12  and  C11_14 
REMARK    5  A    between atoms: C11_14  and  C12_15 
REMARK    6  A    between atoms: C12_15  and  N3_16 
REMARK    7  A    between atoms: P1_19  and  O2_20 
ROOT
HETATM    1  C4  UNL     1      25.763   0.215  52.542  1.00  0.00     0.062 A 
HETATM    2  C5  UNL     1      26.316   1.046  51.416  1.00  0.00    -0.015 A 
HETATM    3  C6  UNL     1      25.154   0.919  51.974  1.00  0.00     0.072 A 
HETATM    4  C7  UNL     1      24.740  -0.037  53.156  1.00  0.00     0.066 A 
HETATM    5  C8  UNL     1      23.348  -0.041  53.625  1.00  0.00     0.044 A 
HETATM    6  C9  UNL     1      24.292   0.416  52.817  1.00  0.00     0.058 A 
ENDROOT
BRANCH   6   7
HETATM    7  N2  UNL     1      22.907   1.078  52.423  1.00  0.00    -0.404 N 
HETATM    8  C10 UNL     1      21.777   0.327  51.830  1.00  0.00     0.144 C 
BRANCH   7   9
HETATM    9  C11 UNL     1      22.728   2.537  52.534  1.00  0.00     0.147 C 
BRANCH   9  10
HETATM   10  C12 UNL     1      21.937   3.118  51.382  1.00  0.00     0.290 C 
BRANCH  10  11
HETATM   11  N3  UNL     1      22.865   3.950  50.633  1.00  0.00     0.081 N 
HETATM   12  C13 UNL     1      23.942   4.452  51.451  1.00  0.00     0.309 C 
HETATM   13  C14 UNL     1      23.427   3.294  49.479  1.00  0.00     0.309 C 
ENDBRANCH  10  11
ENDBRANCH   9  10
ENDBRANCH   7   9
ENDBRANCH   6   7
BRANCH   1  14
HETATM   14  N1  UNL     1      27.165  -0.337  52.664  1.00  0.00    -0.237 NA
HETATM   15  C3  UNL     1      27.975  -0.351  53.782  1.00  0.00     0.107 A 
HETATM   16  C2  UNL     1      29.040  -1.069  53.150  1.00  0.00     0.026 A 
HETATM   17  O1  UNL     1      28.865  -0.482  54.654  1.00  0.00     0.000 OA
HETATM   18  P1  UNL     1      26.723   0.518  54.213  1.00  0.00     0.082 P 
HETATM   19  C1  UNL     1      29.951  -1.151  54.087  1.00  0.00     0.008 A 
BRANCH  18  20
HETATM   20  O2  UNL     1      27.480   2.060  54.392  1.00  0.00    -0.357 OA
HETATM   21  C15 UNL     1      28.471   2.322  53.471  1.00  0.00     0.208 C 
ENDBRANCH  18  20
ENDBRANCH   1  14
TORSDOF 7
ENDMDL
