MODEL 1
REMARK VINA RESULT:      -8.0      0.000      0.000
REMARK  5 active torsions:
REMARK  status: ('A' for Active; 'I' for Inactive)
REMARK       I    between atoms: C1_2  and  N1_3 
REMARK    1  A    between atoms: C1_2  and  O2_22 
REMARK    2  A    between atoms: N1_3  and  C2_4 
REMARK    3  A    between atoms: C5_7  and  N2_8 
REMARK    4  A    between atoms: N2_8  and  C6_9 
REMARK    5  A    between atoms: O2_22  and  C15_23 
ROOT
HETATM    1  C2  UNL     1      25.010   2.350  53.383  1.00  0.00     0.132 A 
HETATM    2  C3  UNL     1      24.345   3.457  52.925  1.00  0.00     0.068 A 
HETATM    3  C4  UNL     1      23.080   3.469  52.395  1.00  0.00     0.044 A 
HETATM    4  C5  UNL     1      22.423   4.586  51.936  1.00  0.00     0.142 A 
HETATM    5  N3  UNL     1      21.191   4.435  51.443  1.00  0.00    -0.224 NA
HETATM    6  C12 UNL     1      20.635   3.224  51.410  1.00  0.00     0.236 A 
HETATM    7  N4  UNL     1      21.247   2.108  51.849  1.00  0.00    -0.240 NA
HETATM    8  C13 UNL     1      22.501   2.231  52.355  1.00  0.00     0.089 A 
HETATM    9  C14 UNL     1      23.120   1.099  52.799  1.00  0.00     0.151 A 
HETATM   10  N5  UNL     1      24.376   1.146  53.315  1.00  0.00    -0.241 NA
ENDROOT
BRANCH   4  11
HETATM   11  N2  UNL     1      23.062   5.834  52.012  1.00  0.00    -0.340 N 
HETATM   12  H3  UNL     1      23.085   6.390  52.889  1.00  0.00     0.167 HD
BRANCH  11  13
HETATM   13  C6  UNL     1      23.764   6.579  51.026  1.00  0.00     0.035 A 
HETATM   14  C7  UNL     1      23.446   7.870  50.593  1.00  0.00     0.029 A 
HETATM   15  C8  UNL     1      24.182   8.525  49.642  1.00  0.00     0.004 A 
HETATM   16  C9  UNL     1      25.271   7.968  49.051  1.00  0.00     0.019 A 
HETATM   17  C10 UNL     1      25.627   6.682  49.449  1.00  0.00     0.013 A 
HETATM   18 BR1  UNL     1      27.161   5.943  48.594  1.00  0.00    -0.051 Br
HETATM   19  C11 UNL     1      24.873   6.041  50.408  1.00  0.00     0.048 A 
ENDBRANCH  11  13
ENDBRANCH   4  11
BRANCH   1  20
HETATM   20  N1  UNL     1      26.322   2.388  53.922  1.00  0.00    -0.287 N 
HETATM   21  C1  UNL     1      27.578   2.435  53.268  1.00  0.00     0.370 C 
HETATM   22  O1  UNL     1      27.430   2.442  52.021  1.00  0.00    -0.238 OA
HETATM   23  H1  UNL     1      26.156   2.372  54.965  1.00  0.00     0.172 HD
BRANCH  21  24
HETATM   24  O2  UNL     1      28.623   2.459  54.166  1.00  0.00    -0.273 OA
BRANCH  24  25
HETATM   25  C15 UNL     1      29.396   1.343  54.449  1.00  0.00     0.159 C 
HETATM   26  C16 UNL     1      29.438   0.169  53.840  1.00  0.00     0.109 C 
HETATM   27 CL1  UNL     1      30.186  -1.414  53.832  1.00  0.00    -0.095 Cl
ENDBRANCH  24  25
ENDBRANCH  21  24
ENDBRANCH   1  20
TORSDOF 5
ENDMDL
MODEL 2
REMARK VINA RESULT:      -8.0      4.736      6.796
REMARK  5 active torsions:
REMARK  status: ('A' for Active; 'I' for Inactive)
REMARK       I    between atoms: C1_2  and  N1_3 
REMARK    1  A    between atoms: C1_2  and  O2_22 
REMARK    2  A    between atoms: N1_3  and  C2_4 
REMARK    3  A    between atoms: C5_7  and  N2_8 
REMARK    4  A    between atoms: N2_8  and  C6_9 
REMARK    5  A    between atoms: O2_22  and  C15_23 
ROOT
HETATM    1  C2  UNL     1      22.283  -1.085  54.238  1.00  0.00     0.132 A 
HETATM    2  C3  UNL     1      23.170  -0.377  53.469  1.00  0.00     0.068 A 
HETATM    3  C4  UNL     1      24.488  -0.148  53.774  1.00  0.00     0.044 A 
HETATM    4  C5  UNL     1      25.370   0.565  52.996  1.00  0.00     0.142 A 
HETATM    5  N3  UNL     1      26.624   0.705  53.431  1.00  0.00    -0.224 NA
HETATM    6  C12 UNL     1      26.988   0.157  54.590  1.00  0.00     0.236 A 
HETATM    7  N4  UNL     1      26.155  -0.547  55.378  1.00  0.00    -0.240 NA
HETATM    8  C13 UNL     1      24.872  -0.705  54.962  1.00  0.00     0.089 A 
HETATM    9  C14 UNL     1      24.027  -1.418  55.763  1.00  0.00     0.151 A 
HETATM   10  N5  UNL     1      22.730  -1.614  55.411  1.00  0.00    -0.241 NA
ENDROOT
BRANCH   4  11
HETATM   11  N2  UNL     1      24.924   1.106  51.779  1.00  0.00    -0.340 N 
HETATM   12  H3  UNL     1      24.510   0.516  51.031  1.00  0.00     0.167 HD
BRANCH  11  13
HETATM   13  C6  UNL     1      24.919   2.446  51.305  1.00  0.00     0.035 A 
HETATM   14  C7  UNL     1      23.966   3.421  51.615  1.00  0.00     0.029 A 
HETATM   15  C8  UNL     1      24.038   4.697  51.124  1.00  0.00     0.004 A 
HETATM   16  C9  UNL     1      25.038   5.106  50.300  1.00  0.00     0.019 A 
HETATM   17  C10 UNL     1      26.011   4.169  49.962  1.00  0.00     0.013 A 
HETATM   18 BR1  UNL     1      27.394   4.788  48.806  1.00  0.00    -0.051 Br
HETATM   19  C11 UNL     1      25.919   2.890  50.469  1.00  0.00     0.048 A 
ENDBRANCH  11  13
ENDBRANCH   4  11
BRANCH   1  20
HETATM   20  N1  UNL     1      20.926  -1.294  53.882  1.00  0.00    -0.287 N 
HETATM   21  C1  UNL     1      19.901  -0.358  53.595  1.00  0.00     0.370 C 
HETATM   22  O1  UNL     1      20.334   0.817  53.691  1.00  0.00    -0.238 OA
HETATM   23  H1  UNL     1      20.837  -2.346  53.875  1.00  0.00     0.172 HD
BRANCH  21  24
HETATM   24  O2  UNL     1      18.710  -0.980  53.290  1.00  0.00    -0.273 OA
BRANCH  24  25
HETATM   25  C15 UNL     1      18.357  -2.218  53.806  1.00  0.00     0.159 C 
HETATM   26  C16 UNL     1      17.376  -3.031  53.450  1.00  0.00     0.109 C 
HETATM   27 CL1  UNL     1      16.599  -4.566  53.777  1.00  0.00    -0.095 Cl
ENDBRANCH  24  25
ENDBRANCH  21  24
ENDBRANCH   1  20
TORSDOF 5
ENDMDL
MODEL 3
REMARK VINA RESULT:      -8.0      2.700      3.776
REMARK  5 active torsions:
REMARK  status: ('A' for Active; 'I' for Inactive)
REMARK       I    between atoms: C1_2  and  N1_3 
REMARK    1  A    between atoms: C1_2  and  O2_22 
REMARK    2  A    between atoms: N1_3  and  C2_4 
REMARK    3  A    between atoms: C5_7  and  N2_8 
REMARK    4  A    between atoms: N2_8  and  C6_9 
REMARK    5  A    between atoms: O2_22  and  C15_23 
ROOT
HETATM    1  C2  UNL     1      25.297  -0.826  54.169  1.00  0.00     0.132 A 
HETATM    2  C3  UNL     1      24.399  -0.214  53.334  1.00  0.00     0.068 A 
HETATM    3  C4  UNL     1      23.039  -0.173  53.514  1.00  0.00     0.044 A 
HETATM    4  C5  UNL     1      22.146   0.441  52.668  1.00  0.00     0.142 A 
HETATM    5  N3  UNL     1      20.848   0.391  52.978  1.00  0.00    -0.224 NA
HETATM    6  C12 UNL     1      20.455  -0.242  54.083  1.00  0.00     0.236 A 
HETATM    7  N4  UNL     1      21.298  -0.855  54.934  1.00  0.00    -0.240 NA
HETATM    8  C13 UNL     1      22.625  -0.821  54.644  1.00  0.00     0.089 A 
HETATM    9  C14 UNL     1      23.479  -1.444  55.507  1.00  0.00     0.151 A 
HETATM   10  N5  UNL     1      24.818  -1.453  55.279  1.00  0.00    -0.241 NA
ENDROOT
BRANCH   4  11
HETATM   11  N2  UNL     1      22.629   1.102  51.527  1.00  0.00    -0.340 N 
HETATM   12  H3  UNL     1      22.669   0.641  50.598  1.00  0.00     0.167 HD
BRANCH  11  13
HETATM   13  C6  UNL     1      23.130   2.421  51.362  1.00  0.00     0.035 A 
HETATM   14  C7  UNL     1      22.563   3.586  51.888  1.00  0.00     0.029 A 
HETATM   15  C8  UNL     1      23.114   4.823  51.691  1.00  0.00     0.004 A 
HETATM   16  C9  UNL     1      24.250   5.008  50.969  1.00  0.00     0.019 A 
HETATM   17  C10 UNL     1      24.852   3.877  50.423  1.00  0.00     0.013 A 
HETATM   18 BR1  UNL     1      26.443   4.186  49.421  1.00  0.00    -0.051 Br
HETATM   19  C11 UNL     1      24.280   2.642  50.636  1.00  0.00     0.048 A 
ENDBRANCH  11  13
ENDBRANCH   4  11
BRANCH   1  20
HETATM   20  N1  UNL     1      26.698  -0.843  53.940  1.00  0.00    -0.287 N 
HETATM   21  C1  UNL     1      27.463  -1.591  53.011  1.00  0.00     0.370 C 
HETATM   22  O1  UNL     1      26.721  -2.330  52.318  1.00  0.00    -0.238 OA
HETATM   23  H1  UNL     1      27.066  -0.146  54.643  1.00  0.00     0.172 HD
BRANCH  21  24
HETATM   24  O2  UNL     1      28.808  -1.312  53.114  1.00  0.00    -0.273 OA
BRANCH  24  25
HETATM   25  C15 UNL     1      29.320  -0.419  54.044  1.00  0.00     0.159 C 
HETATM   26  C16 UNL     1      29.426   0.898  53.980  1.00  0.00     0.109 C 
HETATM   27 CL1  UNL     1      29.957   2.334  54.829  1.00  0.00    -0.095 Cl
ENDBRANCH  24  25
ENDBRANCH  21  24
ENDBRANCH   1  20
TORSDOF 5
ENDMDL
MODEL 4
REMARK VINA RESULT:      -7.9      2.022      2.586
REMARK  5 active torsions:
REMARK  status: ('A' for Active; 'I' for Inactive)
REMARK       I    between atoms: C1_2  and  N1_3 
REMARK    1  A    between atoms: C1_2  and  O2_22 
REMARK    2  A    between atoms: N1_3  and  C2_4 
REMARK    3  A    between atoms: C5_7  and  N2_8 
REMARK    4  A    between atoms: N2_8  and  C6_9 
REMARK    5  A    between atoms: O2_22  and  C15_23 
ROOT
HETATM    1  C2  UNL     1      24.562   0.205  53.472  1.00  0.00     0.132 A 
HETATM    2  C3  UNL     1      24.393   1.478  52.992  1.00  0.00     0.068 A 
HETATM    3  C4  UNL     1      23.203   2.033  52.598  1.00  0.00     0.044 A 
HETATM    4  C5  UNL     1      23.045   3.311  52.115  1.00  0.00     0.142 A 
HETATM    5  N3  UNL     1      21.818   3.707  51.768  1.00  0.00    -0.224 NA
HETATM    6  C12 UNL     1      20.790   2.867  51.896  1.00  0.00     0.236 A 
HETATM    7  N4  UNL     1      20.906   1.611  52.363  1.00  0.00    -0.240 NA
HETATM    8  C13 UNL     1      22.142   1.180  52.724  1.00  0.00     0.089 A 
HETATM    9  C14 UNL     1      22.258  -0.095  53.196  1.00  0.00     0.151 A 
HETATM   10  N5  UNL     1      23.464  -0.594  53.573  1.00  0.00    -0.241 NA
ENDROOT
BRANCH   4  11
HETATM   11  N2  UNL     1      24.168   4.148  52.017  1.00  0.00    -0.340 N 
HETATM   12  H3  UNL     1      24.487   4.738  52.810  1.00  0.00     0.167 HD
BRANCH  11  13
HETATM   13  C6  UNL     1      25.061   4.380  50.936  1.00  0.00     0.035 A 
HETATM   14  C7  UNL     1      26.010   3.477  50.448  1.00  0.00     0.029 A 
HETATM   15  C8  UNL     1      26.829   3.774  49.392  1.00  0.00     0.004 A 
HETATM   16  C9  UNL     1      26.779   4.967  48.744  1.00  0.00     0.019 A 
HETATM   17  C10 UNL     1      25.849   5.901  49.194  1.00  0.00     0.013 A 
HETATM   18 BR1  UNL     1      25.815   7.558  48.254  1.00  0.00    -0.051 Br
HETATM   19  C11 UNL     1      25.034   5.580  50.259  1.00  0.00     0.048 A 
ENDBRANCH  11  13
ENDBRANCH   4  11
BRANCH   1  20
HETATM   20  N1  UNL     1      25.817  -0.326  53.867  1.00  0.00    -0.287 N 
HETATM   21  C1  UNL     1      26.912  -0.766  53.081  1.00  0.00     0.370 C 
HETATM   22  O1  UNL     1      26.661  -0.635  51.857  1.00  0.00    -0.238 OA
HETATM   23  H1  UNL     1      25.760  -0.325  54.921  1.00  0.00     0.172 HD
BRANCH  21  24
HETATM   24  O2  UNL     1      27.953  -1.218  53.861  1.00  0.00    -0.273 OA
BRANCH  24  25
HETATM   25  C15 UNL     1      28.979  -0.391  54.296  1.00  0.00     0.159 C 
HETATM   26  C16 UNL     1      29.014   0.927  54.397  1.00  0.00     0.109 C 
HETATM   27 CL1  UNL     1      29.998   2.303  54.852  1.00  0.00    -0.095 Cl
ENDBRANCH  24  25
ENDBRANCH  21  24
ENDBRANCH   1  20
TORSDOF 5
ENDMDL
MODEL 5
REMARK VINA RESULT:      -7.8      4.465      6.710
REMARK  5 active torsions:
REMARK  status: ('A' for Active; 'I' for Inactive)
REMARK       I    between atoms: C1_2  and  N1_3 
REMARK    1  A    between atoms: C1_2  and  O2_22 
REMARK    2  A    between atoms: N1_3  and  C2_4 
REMARK    3  A    between atoms: C5_7  and  N2_8 
REMARK    4  A    between atoms: N2_8  and  C6_9 
REMARK    5  A    between atoms: O2_22  and  C15_23 
ROOT
HETATM    1  C2  UNL     1      22.689  -1.003  54.164  1.00  0.00     0.132 A 
HETATM    2  C3  UNL     1      23.593  -0.339  53.376  1.00  0.00     0.068 A 
HETATM    3  C4  UNL     1      24.901  -0.085  53.700  1.00  0.00     0.044 A 
HETATM    4  C5  UNL     1      25.801   0.584  52.902  1.00  0.00     0.142 A 
HETATM    5  N3  UNL     1      27.042   0.757  53.360  1.00  0.00    -0.224 NA
HETATM    6  C12 UNL     1      27.378   0.283  54.560  1.00  0.00     0.236 A 
HETATM    7  N4  UNL     1      26.527  -0.376  55.368  1.00  0.00    -0.240 NA
HETATM    8  C13 UNL     1      25.256  -0.566  54.929  1.00  0.00     0.089 A 
HETATM    9  C14 UNL     1      24.394  -1.233  55.751  1.00  0.00     0.151 A 
HETATM   10  N5  UNL     1      23.107  -1.457  55.378  1.00  0.00    -0.241 NA
ENDROOT
BRANCH   4  11
HETATM   11  N2  UNL     1      25.385   1.046  51.643  1.00  0.00    -0.340 N 
HETATM   12  H3  UNL     1      24.935   0.421  50.947  1.00  0.00     0.167 HD
BRANCH  11  13
HETATM   13  C6  UNL     1      25.459   2.339  51.058  1.00  0.00     0.035 A 
HETATM   14  C7  UNL     1      26.447   2.784  50.175  1.00  0.00     0.029 A 
HETATM   15  C8  UNL     1      26.442   4.046  49.645  1.00  0.00     0.004 A 
HETATM   16  C9  UNL     1      25.478   4.957  49.941  1.00  0.00     0.019 A 
HETATM   17  C10 UNL     1      24.471   4.560  50.818  1.00  0.00     0.013 A 
HETATM   18 BR1  UNL     1      23.141   5.870  51.202  1.00  0.00    -0.051 Br
HETATM   19  C11 UNL     1      24.496   3.285  51.338  1.00  0.00     0.048 A 
ENDBRANCH  11  13
ENDBRANCH   4  11
BRANCH   1  20
HETATM   20  N1  UNL     1      21.342  -1.241  53.786  1.00  0.00    -0.287 N 
HETATM   21  C1  UNL     1      20.187  -0.439  53.964  1.00  0.00     0.370 C 
HETATM   22  O1  UNL     1      20.476   0.631  54.554  1.00  0.00    -0.238 OA
HETATM   23  H1  UNL     1      21.385  -2.188  53.321  1.00  0.00     0.172 HD
BRANCH  21  24
HETATM   24  O2  UNL     1      19.061  -1.042  53.447  1.00  0.00    -0.273 OA
BRANCH  24  25
HETATM   25  C15 UNL     1      18.346  -0.509  52.385  1.00  0.00     0.159 C 
HETATM   26  C16 UNL     1      18.777   0.161  51.330  1.00  0.00     0.109 C 
HETATM   27 CL1  UNL     1      18.296   0.967  49.851  1.00  0.00    -0.095 Cl
ENDBRANCH  24  25
ENDBRANCH  21  24
ENDBRANCH   1  20
TORSDOF 5
ENDMDL
MODEL 6
REMARK VINA RESULT:      -7.6      4.066      6.108
REMARK  5 active torsions:
REMARK  status: ('A' for Active; 'I' for Inactive)
REMARK       I    between atoms: C1_2  and  N1_3 
REMARK    1  A    between atoms: C1_2  and  O2_22 
REMARK    2  A    between atoms: N1_3  and  C2_4 
REMARK    3  A    between atoms: C5_7  and  N2_8 
REMARK    4  A    between atoms: N2_8  and  C6_9 
REMARK    5  A    between atoms: O2_22  and  C15_23 
ROOT
HETATM    1  C2  UNL     1      22.919   0.483  52.314  1.00  0.00     0.132 A 
HETATM    2  C3  UNL     1      23.809   1.328  51.704  1.00  0.00     0.068 A 
HETATM    3  C4  UNL     1      25.126   1.490  52.051  1.00  0.00     0.044 A 
HETATM    4  C5  UNL     1      26.010   2.343  51.433  1.00  0.00     0.142 A 
HETATM    5  N3  UNL     1      27.263   2.391  51.890  1.00  0.00    -0.224 NA
HETATM    6  C12 UNL     1      27.624   1.622  52.917  1.00  0.00     0.236 A 
HETATM    7  N4  UNL     1      26.788   0.776  53.547  1.00  0.00    -0.240 NA
HETATM    8  C13 UNL     1      25.506   0.706  53.105  1.00  0.00     0.089 A 
HETATM    9  C14 UNL     1      24.659  -0.151  53.745  1.00  0.00     0.151 A 
HETATM   10  N5  UNL     1      23.362  -0.271  53.359  1.00  0.00    -0.241 NA
ENDROOT
BRANCH   4  11
HETATM   11  N2  UNL     1      25.568   3.116  50.348  1.00  0.00    -0.340 N 
HETATM   12  H3  UNL     1      24.725   2.863  49.797  1.00  0.00     0.167 HD
BRANCH  11  13
HETATM   13  C6  UNL     1      26.094   4.310  49.783  1.00  0.00     0.035 A 
HETATM   14  C7  UNL     1      27.215   4.399  48.953  1.00  0.00     0.029 A 
HETATM   15  C8  UNL     1      27.653   5.590  48.440  1.00  0.00     0.004 A 
HETATM   16  C9  UNL     1      27.031   6.770  48.701  1.00  0.00     0.019 A 
HETATM   17  C10 UNL     1      25.909   6.732  49.524  1.00  0.00     0.013 A 
HETATM   18 BR1  UNL     1      25.070   8.409  49.861  1.00  0.00    -0.051 Br
HETATM   19  C11 UNL     1      25.485   5.522  50.029  1.00  0.00     0.048 A 
ENDBRANCH  11  13
ENDBRANCH   4  11
BRANCH   1  20
HETATM   20  N1  UNL     1      21.562   0.351  51.920  1.00  0.00    -0.287 N 
HETATM   21  C1  UNL     1      20.380   0.832  52.536  1.00  0.00     0.370 C 
HETATM   22  O1  UNL     1      20.653   1.463  53.588  1.00  0.00    -0.238 OA
HETATM   23  H1  UNL     1      21.623  -0.208  51.027  1.00  0.00     0.172 HD
BRANCH  21  24
HETATM   24  O2  UNL     1      19.253   0.484  51.825  1.00  0.00    -0.273 OA
BRANCH  24  25
HETATM   25  C15 UNL     1      18.323  -0.432  52.294  1.00  0.00     0.159 C 
HETATM   26  C16 UNL     1      18.492  -1.473  53.091  1.00  0.00     0.109 C 
HETATM   27 CL1  UNL     1      17.690  -2.807  53.894  1.00  0.00    -0.095 Cl
ENDBRANCH  24  25
ENDBRANCH  21  24
ENDBRANCH   1  20
TORSDOF 5
ENDMDL
MODEL 7
REMARK VINA RESULT:      -7.6      3.544      6.411
REMARK  5 active torsions:
REMARK  status: ('A' for Active; 'I' for Inactive)
REMARK       I    between atoms: C1_2  and  N1_3 
REMARK    1  A    between atoms: C1_2  and  O2_22 
REMARK    2  A    between atoms: N1_3  and  C2_4 
REMARK    3  A    between atoms: C5_7  and  N2_8 
REMARK    4  A    between atoms: N2_8  and  C6_9 
REMARK    5  A    between atoms: O2_22  and  C15_23 
ROOT
HETATM    1  C2  UNL     1      21.979   2.750  51.374  1.00  0.00     0.132 A 
HETATM    2  C3  UNL     1      22.807   1.768  51.853  1.00  0.00     0.068 A 
HETATM    3  C4  UNL     1      22.496   0.872  52.843  1.00  0.00     0.044 A 
HETATM    4  C5  UNL     1      23.335  -0.109  53.318  1.00  0.00     0.142 A 
HETATM    5  N3  UNL     1      22.887  -0.905  54.292  1.00  0.00    -0.224 NA
HETATM    6  C12 UNL     1      21.656  -0.734  54.773  1.00  0.00     0.236 A 
HETATM    7  N4  UNL     1      20.807   0.213  54.335  1.00  0.00    -0.240 NA
HETATM    8  C13 UNL     1      21.235   1.038  53.345  1.00  0.00     0.089 A 
HETATM    9  C14 UNL     1      20.373   2.000  52.903  1.00  0.00     0.151 A 
HETATM   10  N5  UNL     1      20.735   2.862  51.918  1.00  0.00    -0.241 NA
ENDROOT
BRANCH   4  11
HETATM   11  N2  UNL     1      24.615  -0.242  52.758  1.00  0.00    -0.340 N 
HETATM   12  H3  UNL     1      24.799  -0.853  51.939  1.00  0.00     0.167 HD
BRANCH  11  13
HETATM   13  C6  UNL     1      25.853   0.356  53.119  1.00  0.00     0.035 A 
HETATM   14  C7  UNL     1      26.047   1.699  53.457  1.00  0.00     0.029 A 
HETATM   15  C8  UNL     1      27.275   2.197  53.805  1.00  0.00     0.004 A 
HETATM   16  C9  UNL     1      28.390   1.422  53.845  1.00  0.00     0.019 A 
HETATM   17  C10 UNL     1      28.247   0.077  53.516  1.00  0.00     0.013 A 
HETATM   18 BR1  UNL     1      29.839  -0.969  53.588  1.00  0.00    -0.051 Br
HETATM   19  C11 UNL     1      27.003  -0.402  53.170  1.00  0.00     0.048 A 
ENDBRANCH  11  13
ENDBRANCH   4  11
BRANCH   1  20
HETATM   20  N1  UNL     1      22.347   3.657  50.347  1.00  0.00    -0.287 N 
HETATM   21  C1  UNL     1      22.768   5.007  50.427  1.00  0.00     0.370 C 
HETATM   22  O1  UNL     1      22.797   5.393  51.622  1.00  0.00    -0.238 OA
HETATM   23  H1  UNL     1      22.234   3.084  49.467  1.00  0.00     0.172 HD
BRANCH  21  24
HETATM   24  O2  UNL     1      23.032   5.536  49.183  1.00  0.00    -0.273 OA
BRANCH  24  25
HETATM   25  C15 UNL     1      24.320   5.789  48.733  1.00  0.00     0.159 C 
HETATM   26  C16 UNL     1      25.450   5.162  49.014  1.00  0.00     0.109 C 
HETATM   27 CL1  UNL     1      27.175   5.117  48.716  1.00  0.00    -0.095 Cl
ENDBRANCH  24  25
ENDBRANCH  21  24
ENDBRANCH   1  20
TORSDOF 5
ENDMDL
MODEL 8
REMARK VINA RESULT:      -7.5      3.396      5.587
REMARK  5 active torsions:
REMARK  status: ('A' for Active; 'I' for Inactive)
REMARK       I    between atoms: C1_2  and  N1_3 
REMARK    1  A    between atoms: C1_2  and  O2_22 
REMARK    2  A    between atoms: N1_3  and  C2_4 
REMARK    3  A    between atoms: C5_7  and  N2_8 
REMARK    4  A    between atoms: N2_8  and  C6_9 
REMARK    5  A    between atoms: O2_22  and  C15_23 
ROOT
HETATM    1  C2  UNL     1      25.227   3.172  50.985  1.00  0.00     0.132 A 
HETATM    2  C3  UNL     1      24.138   2.483  50.517  1.00  0.00     0.068 A 
HETATM    3  C4  UNL     1      23.293   2.905  49.523  1.00  0.00     0.044 A 
HETATM    4  C5  UNL     1      22.201   2.207  49.061  1.00  0.00     0.142 A 
HETATM    5  N3  UNL     1      21.470   2.752  48.087  1.00  0.00    -0.224 NA
HETATM    6  C12 UNL     1      21.811   3.942  47.590  1.00  0.00     0.236 A 
HETATM    7  N4  UNL     1      22.870   4.654  48.015  1.00  0.00    -0.240 NA
HETATM    8  C13 UNL     1      23.632   4.124  49.007  1.00  0.00     0.089 A 
HETATM    9  C14 UNL     1      24.706   4.848  49.438  1.00  0.00     0.151 A 
HETATM   10  N5  UNL     1      25.511   4.382  50.428  1.00  0.00    -0.241 NA
ENDROOT
BRANCH   4  11
HETATM   11  N2  UNL     1      21.906   0.953  49.620  1.00  0.00    -0.340 N 
HETATM   12  H3  UNL     1      22.327   0.075  49.260  1.00  0.00     0.167 HD
BRANCH  11  13
HETATM   13  C6  UNL     1      21.054   0.596  50.701  1.00  0.00     0.035 A 
HETATM   14  C7  UNL     1      19.657   0.652  50.697  1.00  0.00     0.029 A 
HETATM   15  C8  UNL     1      18.906   0.280  51.779  1.00  0.00     0.004 A 
HETATM   16  C9  UNL     1      19.463  -0.169  52.933  1.00  0.00     0.019 A 
HETATM   17  C10 UNL     1      20.853  -0.243  52.986  1.00  0.00     0.013 A 
HETATM   18 BR1  UNL     1      21.589  -0.880  54.625  1.00  0.00    -0.051 Br
HETATM   19  C11 UNL     1      21.589   0.137  51.885  1.00  0.00     0.048 A 
ENDBRANCH  11  13
ENDBRANCH   4  11
BRANCH   1  20
HETATM   20  N1  UNL     1      26.073   2.695  52.020  1.00  0.00    -0.287 N 
HETATM   21  C1  UNL     1      25.840   2.582  53.413  1.00  0.00     0.370 C 
HETATM   22  O1  UNL     1      24.686   2.985  53.704  1.00  0.00    -0.238 OA
HETATM   23  H1  UNL     1      26.957   2.429  51.506  1.00  0.00     0.172 HD
BRANCH  21  24
HETATM   24  O2  UNL     1      26.932   2.066  54.075  1.00  0.00    -0.273 OA
BRANCH  24  25
HETATM   25  C15 UNL     1      27.945   1.374  53.427  1.00  0.00     0.159 C 
HETATM   26  C16 UNL     1      28.689   0.369  53.856  1.00  0.00     0.109 C 
HETATM   27 CL1  UNL     1      29.980  -0.737  53.438  1.00  0.00    -0.095 Cl
ENDBRANCH  24  25
ENDBRANCH  21  24
ENDBRANCH   1  20
TORSDOF 5
ENDMDL
MODEL 9
REMARK VINA RESULT:      -7.4      3.638      5.712
REMARK  5 active torsions:
REMARK  status: ('A' for Active; 'I' for Inactive)
REMARK       I    between atoms: C1_2  and  N1_3 
REMARK    1  A    between atoms: C1_2  and  O2_22 
REMARK    2  A    between atoms: N1_3  and  C2_4 
REMARK    3  A    between atoms: C5_7  and  N2_8 
REMARK    4  A    between atoms: N2_8  and  C6_9 
REMARK    5  A    between atoms: O2_22  and  C15_23 
ROOT
HETATM    1  C2  UNL     1      25.366   2.726  51.867  1.00  0.00     0.132 A 
HETATM    2  C3  UNL     1      24.008   2.619  52.019  1.00  0.00     0.068 A 
HETATM    3  C4  UNL     1      23.074   2.838  51.039  1.00  0.00     0.044 A 
HETATM    4  C5  UNL     1      21.713   2.730  51.202  1.00  0.00     0.142 A 
HETATM    5  N3  UNL     1      20.930   2.980  50.150  1.00  0.00    -0.224 NA
HETATM    6  C12 UNL     1      21.478   3.322  48.983  1.00  0.00     0.236 A 
HETATM    7  N4  UNL     1      22.803   3.438  48.785  1.00  0.00    -0.240 NA
HETATM    8  C13 UNL     1      23.625   3.191  49.838  1.00  0.00     0.089 A 
HETATM    9  C14 UNL     1      24.969   3.311  49.636  1.00  0.00     0.151 A 
HETATM   10  N5  UNL     1      25.850   3.081  50.644  1.00  0.00    -0.241 NA
ENDROOT
BRANCH   4  11
HETATM   11  N2  UNL     1      21.203   2.354  52.454  1.00  0.00    -0.340 N 
HETATM   12  H3  UNL     1      20.906   3.052  53.163  1.00  0.00     0.167 HD
BRANCH  11  13
HETATM   13  C6  UNL     1      20.983   1.067  53.018  1.00  0.00     0.035 A 
HETATM   14  C7  UNL     1      21.916   0.319  53.742  1.00  0.00     0.029 A 
HETATM   15  C8  UNL     1      21.623  -0.913  54.263  1.00  0.00     0.004 A 
HETATM   16  C9  UNL     1      20.405  -1.495  54.113  1.00  0.00     0.019 A 
HETATM   17  C10 UNL     1      19.441  -0.788  53.398  1.00  0.00     0.013 A 
HETATM   18 BR1  UNL     1      17.749  -1.645  53.215  1.00  0.00    -0.051 Br
HETATM   19  C11 UNL     1      19.759   0.450  52.884  1.00  0.00     0.048 A 
ENDBRANCH  11  13
ENDBRANCH   4  11
BRANCH   1  20
HETATM   20  N1  UNL     1      26.295   2.490  52.914  1.00  0.00    -0.287 N 
HETATM   21  C1  UNL     1      26.443   1.369  53.769  1.00  0.00     0.370 C 
HETATM   22  O1  UNL     1      25.588   0.489  53.501  1.00  0.00    -0.238 OA
HETATM   23  H1  UNL     1      26.880   3.369  52.921  1.00  0.00     0.172 HD
BRANCH  21  24
HETATM   24  O2  UNL     1      27.479   1.540  54.661  1.00  0.00    -0.273 OA
BRANCH  24  25
HETATM   25  C15 UNL     1      28.603   0.727  54.672  1.00  0.00     0.159 C 
HETATM   26  C16 UNL     1      28.891  -0.324  53.921  1.00  0.00     0.109 C 
HETATM   27 CL1  UNL     1      30.081  -1.565  53.593  1.00  0.00    -0.095 Cl
ENDBRANCH  24  25
ENDBRANCH  21  24
ENDBRANCH   1  20
TORSDOF 5
ENDMDL
