MODEL 1
REMARK VINA RESULT:      -8.9      0.000      0.000
REMARK  4 active torsions:
REMARK  status: ('A' for Active; 'I' for Inactive)
REMARK    1  A    between atoms: C6_6  and  N1_7 
REMARK    2  A    between atoms: C10_13  and  O1_14 
REMARK    3  A    between atoms: O1_14  and  C11_15 
REMARK    4  A    between atoms: C11_15  and  C12_16 
ROOT
HETATM    1  N1  UNL     1      25.190  -0.092  54.371  1.00  0.00    -0.251 N 
HETATM    2  N2  UNL     1      25.225  -0.891  55.542  1.00  0.00    -0.287 N 
HETATM    3  C7  UNL     1      24.051  -1.593  55.987  1.00  0.00     0.224 A 
HETATM    4  N3  UNL     1      22.931  -1.510  55.325  1.00  0.00    -0.240 NA
HETATM    5  C8  UNL     1      22.896  -0.711  54.153  1.00  0.00     0.092 A 
HETATM    6  C9  UNL     1      21.732  -0.586  53.422  1.00  0.00     0.074 A 
HETATM    7  C10 UNL     1      21.599   0.172  52.279  1.00  0.00     0.107 A 
HETATM    8  C16 UNL     1      22.747   0.847  51.862  1.00  0.00     0.138 A 
HETATM    9  C17 UNL     1      23.955   0.762  52.557  1.00  0.00     0.136 A 
HETATM   10  C18 UNL     1      23.966  -0.017  53.672  1.00  0.00     0.122 A 
HETATM   11  O3  UNL     1      25.070   1.432  52.134  1.00  0.00    -0.344 OA
HETATM   12  C19 UNL     1      25.064   2.092  50.892  1.00  0.00     0.202 C 
HETATM   13  C20 UNL     1      23.675   2.668  50.592  1.00  0.00     0.202 C 
HETATM   14  O4  UNL     1      22.710   1.636  50.719  1.00  0.00    -0.344 OA
HETATM   15  H7  UNL     1      26.085  -1.020  56.145  1.00  0.00     0.188 HD
ENDROOT
BRANCH   1  16
HETATM   16  C6  UNL     1      26.437   0.520  54.091  1.00  0.00     0.057 A 
HETATM   17  C5  UNL     1      26.865   1.849  54.024  1.00  0.00     0.031 A 
HETATM   18  C4  UNL     1      28.169   2.134  53.736  1.00  0.00     0.003 A 
HETATM   19  C3  UNL     1      29.121   1.166  53.499  1.00  0.00     0.007 A 
HETATM   20  C2  UNL     1      28.718  -0.150  53.561  1.00  0.00    -0.060 A 
HETATM   21  C1  UNL     1      29.780  -1.155  53.298  1.00  0.00     0.048 C 
HETATM   22  C21 UNL     1      27.390  -0.481  53.853  1.00  0.00     0.038 A 
ENDBRANCH   1  16
BRANCH   7  23
HETATM   23  O1  UNL     1      20.493   0.337  51.520  1.00  0.00    -0.346 OA
BRANCH  23  24
HETATM   24  C11 UNL     1      19.200   0.702  51.812  1.00  0.00     0.207 C 
BRANCH  24  25
HETATM   25  C12 UNL     1      18.136  -0.329  51.636  1.00  0.00     0.145 C 
HETATM   26  C13 UNL     1      18.156  -1.174  52.919  1.00  0.00     0.036 C 
HETATM   27  C14 UNL     1      16.783  -1.799  52.869  1.00  0.00     0.029 C 
HETATM   28  C15 UNL     1      15.988  -0.731  52.155  1.00  0.00     0.168 C 
HETATM   29  O2  UNL     1      16.872   0.270  51.773  1.00  0.00    -0.384 OA
ENDBRANCH  24  25
ENDBRANCH  23  24
ENDBRANCH   7  23
TORSDOF 4
ENDMDL
MODEL 2
REMARK VINA RESULT:      -8.8      1.919      3.395
REMARK  4 active torsions:
REMARK  status: ('A' for Active; 'I' for Inactive)
REMARK    1  A    between atoms: C6_6  and  N1_7 
REMARK    2  A    between atoms: C10_13  and  O1_14 
REMARK    3  A    between atoms: O1_14  and  C11_15 
REMARK    4  A    between atoms: C11_15  and  C12_16 
ROOT
HETATM    1  N1  UNL     1      25.821   1.518  51.729  1.00  0.00    -0.251 N 
HETATM    2  N2  UNL     1      26.330   2.354  50.704  1.00  0.00    -0.287 N 
HETATM    3  C7  UNL     1      25.449   3.185  49.928  1.00  0.00     0.224 A 
HETATM    4  N3  UNL     1      24.165   3.187  50.150  1.00  0.00    -0.240 NA
HETATM    5  C8  UNL     1      23.654   2.350  51.175  1.00  0.00     0.092 A 
HETATM    6  C9  UNL     1      22.301   2.312  51.443  1.00  0.00     0.074 A 
HETATM    7  C10 UNL     1      21.713   1.527  52.411  1.00  0.00     0.107 A 
HETATM    8  C16 UNL     1      22.581   0.727  53.153  1.00  0.00     0.138 A 
HETATM    9  C17 UNL     1      23.961   0.719  52.933  1.00  0.00     0.136 A 
HETATM   10  C18 UNL     1      24.427   1.537  51.950  1.00  0.00     0.122 A 
HETATM   11  O3  UNL     1      24.798  -0.073  53.669  1.00  0.00    -0.344 OA
HETATM   12  C19 UNL     1      24.300  -0.777  54.781  1.00  0.00     0.202 C 
HETATM   13  C20 UNL     1      22.854  -1.225  54.535  1.00  0.00     0.202 C 
HETATM   14  O4  UNL     1      22.081  -0.099  54.152  1.00  0.00    -0.344 OA
HETATM   15  H7  UNL     1      27.356   2.421  50.450  1.00  0.00     0.188 HD
ENDROOT
BRANCH   1  16
HETATM   16  C6  UNL     1      26.836   0.776  52.384  1.00  0.00     0.057 A 
HETATM   17  C5  UNL     1      27.168  -0.581  52.416  1.00  0.00     0.031 A 
HETATM   18  C4  UNL     1      28.241  -1.005  53.147  1.00  0.00     0.003 A 
HETATM   19  C3  UNL     1      29.041  -0.156  53.880  1.00  0.00     0.007 A 
HETATM   20  C2  UNL     1      28.728   1.186  53.860  1.00  0.00    -0.060 A 
HETATM   21  C1  UNL     1      29.621   2.060  54.665  1.00  0.00     0.048 C 
HETATM   22  C21 UNL     1      27.637   1.658  53.121  1.00  0.00     0.038 A 
ENDBRANCH   1  16
BRANCH   7  23
HETATM   23  O1  UNL     1      20.400   1.442  52.722  1.00  0.00    -0.346 OA
BRANCH  23  24
HETATM   24  C11 UNL     1      19.259   1.351  51.961  1.00  0.00     0.207 C 
BRANCH  24  25
HETATM   25  C12 UNL     1      18.582   0.024  51.888  1.00  0.00     0.145 C 
HETATM   26  C13 UNL     1      18.928  -0.694  53.202  1.00  0.00     0.036 C 
HETATM   27  C14 UNL     1      17.832  -1.731  53.255  1.00  0.00     0.029 C 
HETATM   28  C15 UNL     1      16.705  -1.020  52.545  1.00  0.00     0.168 C 
HETATM   29  O2  UNL     1      17.199   0.190  52.072  1.00  0.00    -0.384 OA
ENDBRANCH  24  25
ENDBRANCH  23  24
ENDBRANCH   7  23
TORSDOF 4
ENDMDL
MODEL 3
REMARK VINA RESULT:      -8.8      2.374      3.440
REMARK  4 active torsions:
REMARK  status: ('A' for Active; 'I' for Inactive)
REMARK    1  A    between atoms: C6_6  and  N1_7 
REMARK    2  A    between atoms: C10_13  and  O1_14 
REMARK    3  A    between atoms: O1_14  and  C11_15 
REMARK    4  A    between atoms: C11_15  and  C12_16 
ROOT
HETATM    1  N1  UNL     1      25.522  -0.021  54.084  1.00  0.00    -0.251 N 
HETATM    2  N2  UNL     1      25.181  -0.912  55.132  1.00  0.00    -0.287 N 
HETATM    3  C7  UNL     1      23.817  -1.323  55.333  1.00  0.00     0.224 A 
HETATM    4  N3  UNL     1      22.866  -0.887  54.555  1.00  0.00    -0.240 NA
HETATM    5  C8  UNL     1      23.206   0.005  53.506  1.00  0.00     0.092 A 
HETATM    6  C9  UNL     1      22.235   0.501  52.661  1.00  0.00     0.074 A 
HETATM    7  C10 UNL     1      22.467   1.376  51.622  1.00  0.00     0.107 A 
HETATM    8  C16 UNL     1      23.794   1.765  51.443  1.00  0.00     0.138 A 
HETATM    9  C17 UNL     1      24.825   1.300  52.263  1.00  0.00     0.136 A 
HETATM   10  C18 UNL     1      24.475   0.440  53.256  1.00  0.00     0.122 A 
HETATM   11  O3  UNL     1      26.121   1.695  52.074  1.00  0.00    -0.344 OA
HETATM   12  C19 UNL     1      26.466   2.452  50.940  1.00  0.00     0.202 C 
HETATM   13  C20 UNL     1      25.322   3.398  50.552  1.00  0.00     0.202 C 
HETATM   14  O4  UNL     1      24.127   2.646  50.421  1.00  0.00    -0.344 OA
HETATM   15  H7  UNL     1      25.881  -1.319  55.814  1.00  0.00     0.188 HD
ENDROOT
BRANCH   1  16
HETATM   16  C6  UNL     1      26.908   0.269  54.043  1.00  0.00     0.057 A 
HETATM   17  C5  UNL     1      27.663   1.410  54.331  1.00  0.00     0.031 A 
HETATM   18  C4  UNL     1      29.022   1.380  54.207  1.00  0.00     0.003 A 
HETATM   19  C3  UNL     1      29.721   0.263  53.803  1.00  0.00     0.007 A 
HETATM   20  C2  UNL     1      28.994  -0.871  53.514  1.00  0.00    -0.060 A 
HETATM   21  C1  UNL     1      29.792  -2.047  53.083  1.00  0.00     0.048 C 
HETATM   22  C21 UNL     1      27.599  -0.878  53.630  1.00  0.00     0.038 A 
ENDBRANCH   1  16
BRANCH   7  23
HETATM   23  O1  UNL     1      21.563   1.897  50.762  1.00  0.00    -0.346 OA
BRANCH  23  24
HETATM   24  C11 UNL     1      20.479   2.726  50.928  1.00  0.00     0.207 C 
BRANCH  24  25
HETATM   25  C12 UNL     1      20.674   4.179  50.654  1.00  0.00     0.145 C 
HETATM   26  C13 UNL     1      21.541   4.710  51.806  1.00  0.00     0.036 C 
HETATM   27  C14 UNL     1      22.087   5.975  51.190  1.00  0.00     0.029 C 
HETATM   28  C15 UNL     1      22.143   5.603  49.728  1.00  0.00     0.168 C 
HETATM   29  O2  UNL     1      21.577   4.342  49.590  1.00  0.00    -0.384 OA
ENDBRANCH  24  25
ENDBRANCH  23  24
ENDBRANCH   7  23
TORSDOF 4
ENDMDL
MODEL 4
REMARK VINA RESULT:      -8.7      1.390      1.704
REMARK  4 active torsions:
REMARK  status: ('A' for Active; 'I' for Inactive)
REMARK    1  A    between atoms: C6_6  and  N1_7 
REMARK    2  A    between atoms: C10_13  and  O1_14 
REMARK    3  A    between atoms: O1_14  and  C11_15 
REMARK    4  A    between atoms: C11_15  and  C12_16 
ROOT
HETATM    1  N1  UNL     1      25.493  -0.016  54.031  1.00  0.00    -0.251 N 
HETATM    2  N2  UNL     1      25.153  -0.880  55.102  1.00  0.00    -0.287 N 
HETATM    3  C7  UNL     1      23.790  -1.291  55.310  1.00  0.00     0.224 A 
HETATM    4  N3  UNL     1      22.840  -0.879  54.519  1.00  0.00    -0.240 NA
HETATM    5  C8  UNL     1      23.179  -0.015  53.447  1.00  0.00     0.092 A 
HETATM    6  C9  UNL     1      22.207   0.454  52.587  1.00  0.00     0.074 A 
HETATM    7  C10 UNL     1      22.439   1.301  51.525  1.00  0.00     0.107 A 
HETATM    8  C16 UNL     1      23.765   1.691  51.338  1.00  0.00     0.138 A 
HETATM    9  C17 UNL     1      24.795   1.252  52.173  1.00  0.00     0.136 A 
HETATM   10  C18 UNL     1      24.446   0.417  53.188  1.00  0.00     0.122 A 
HETATM   11  O3  UNL     1      26.090   1.646  51.976  1.00  0.00    -0.344 OA
HETATM   12  C19 UNL     1      26.435   2.374  50.822  1.00  0.00     0.202 C 
HETATM   13  C20 UNL     1      25.289   3.304  50.407  1.00  0.00     0.202 C 
HETATM   14  O4  UNL     1      24.097   2.544  50.293  1.00  0.00    -0.344 OA
HETATM   15  H7  UNL     1      25.853  -1.266  55.796  1.00  0.00     0.188 HD
ENDROOT
BRANCH   1  16
HETATM   16  C6  UNL     1      26.879   0.278  53.985  1.00  0.00     0.057 A 
HETATM   17  C5  UNL     1      27.627   1.432  54.230  1.00  0.00     0.031 A 
HETATM   18  C4  UNL     1      28.987   1.403  54.114  1.00  0.00     0.003 A 
HETATM   19  C3  UNL     1      29.693   0.274  53.759  1.00  0.00     0.007 A 
HETATM   20  C2  UNL     1      28.971  -0.874  53.513  1.00  0.00    -0.060 A 
HETATM   21  C1  UNL     1      29.777  -2.063  53.133  1.00  0.00     0.048 C 
HETATM   22  C21 UNL     1      27.576  -0.882  53.622  1.00  0.00     0.038 A 
ENDBRANCH   1  16
BRANCH   7  23
HETATM   23  O1  UNL     1      21.535   1.795  50.649  1.00  0.00    -0.346 OA
BRANCH  23  24
HETATM   24  C11 UNL     1      20.680   1.206  49.749  1.00  0.00     0.207 C 
BRANCH  24  25
HETATM   25  C12 UNL     1      19.215   1.346  49.995  1.00  0.00     0.145 C 
HETATM   26  C13 UNL     1      18.855   0.248  51.008  1.00  0.00     0.036 C 
HETATM   27  C14 UNL     1      17.555   0.784  51.557  1.00  0.00     0.029 C 
HETATM   28  C15 UNL     1      17.766   2.274  51.438  1.00  0.00     0.168 C 
HETATM   29  O2  UNL     1      18.977   2.480  50.789  1.00  0.00    -0.384 OA
ENDBRANCH  24  25
ENDBRANCH  23  24
ENDBRANCH   7  23
TORSDOF 4
ENDMDL
MODEL 5
REMARK VINA RESULT:      -8.5      3.617      8.143
REMARK  4 active torsions:
REMARK  status: ('A' for Active; 'I' for Inactive)
REMARK    1  A    between atoms: C6_6  and  N1_7 
REMARK    2  A    between atoms: C10_13  and  O1_14 
REMARK    3  A    between atoms: O1_14  and  C11_15 
REMARK    4  A    between atoms: C11_15  and  C12_16 
ROOT
HETATM    1  N1  UNL     1      24.322   4.196  49.615  1.00  0.00    -0.251 N 
HETATM    2  N2  UNL     1      25.329   4.957  48.971  1.00  0.00    -0.287 N 
HETATM    3  C7  UNL     1      26.720   4.643  49.159  1.00  0.00     0.224 A 
HETATM    4  N3  UNL     1      27.085   3.654  49.925  1.00  0.00    -0.240 NA
HETATM    5  C8  UNL     1      26.077   2.892  50.571  1.00  0.00     0.092 A 
HETATM    6  C9  UNL     1      26.413   1.840  51.398  1.00  0.00     0.074 A 
HETATM    7  C10 UNL     1      25.507   1.049  52.072  1.00  0.00     0.107 A 
HETATM    8  C16 UNL     1      24.163   1.368  51.880  1.00  0.00     0.138 A 
HETATM    9  C17 UNL     1      23.757   2.421  51.056  1.00  0.00     0.136 A 
HETATM   10  C18 UNL     1      24.741   3.131  50.441  1.00  0.00     0.122 A 
HETATM   11  O3  UNL     1      22.434   2.720  50.880  1.00  0.00    -0.344 OA
HETATM   12  C19 UNL     1      21.445   1.864  51.399  1.00  0.00     0.202 C 
HETATM   13  C20 UNL     1      21.911   1.237  52.719  1.00  0.00     0.202 C 
HETATM   14  O4  UNL     1      23.176   0.628  52.518  1.00  0.00    -0.344 OA
HETATM   15  H7  UNL     1      25.133   5.777  48.331  1.00  0.00     0.188 HD
ENDROOT
BRANCH   1  16
HETATM   16  C6  UNL     1      23.015   4.652  49.311  1.00  0.00     0.057 A 
HETATM   17  C5  UNL     1      22.108   5.486  49.970  1.00  0.00     0.031 A 
HETATM   18  C4  UNL     1      20.895   5.759  49.405  1.00  0.00     0.003 A 
HETATM   19  C3  UNL     1      20.493   5.248  48.190  1.00  0.00     0.007 A 
HETATM   20  C2  UNL     1      21.374   4.422  47.526  1.00  0.00    -0.060 A 
HETATM   21  C1  UNL     1      20.895   3.897  46.221  1.00  0.00     0.048 C 
HETATM   22  C21 UNL     1      22.627   4.121  48.073  1.00  0.00     0.038 A 
ENDBRANCH   1  16
BRANCH   7  23
HETATM   23  O1  UNL     1      25.769   0.009  52.894  1.00  0.00    -0.346 OA
BRANCH  23  24
HETATM   24  C11 UNL     1      26.066  -0.078  54.234  1.00  0.00     0.207 C 
BRANCH  24  25
HETATM   25  C12 UNL     1      27.500   0.029  54.630  1.00  0.00     0.145 C 
HETATM   26  C13 UNL     1      28.300  -0.612  53.485  1.00  0.00     0.036 C 
HETATM   27  C14 UNL     1      29.664  -0.010  53.720  1.00  0.00     0.029 C 
HETATM   28  C15 UNL     1      29.307   1.327  54.324  1.00  0.00     0.168 C 
HETATM   29  O2  UNL     1      27.929   1.360  54.495  1.00  0.00    -0.384 OA
ENDBRANCH  24  25
ENDBRANCH  23  24
ENDBRANCH   7  23
TORSDOF 4
ENDMDL
MODEL 6
REMARK VINA RESULT:      -8.5      2.898      7.523
REMARK  4 active torsions:
REMARK  status: ('A' for Active; 'I' for Inactive)
REMARK    1  A    between atoms: C6_6  and  N1_7 
REMARK    2  A    between atoms: C10_13  and  O1_14 
REMARK    3  A    between atoms: O1_14  and  C11_15 
REMARK    4  A    between atoms: C11_15  and  C12_16 
ROOT
HETATM    1  N1  UNL     1      21.708   2.138  50.731  1.00  0.00    -0.251 N 
HETATM    2  N2  UNL     1      20.372   1.682  50.864  1.00  0.00    -0.287 N 
HETATM    3  C7  UNL     1      20.052   0.597  51.753  1.00  0.00     0.224 A 
HETATM    4  N3  UNL     1      20.981   0.011  52.454  1.00  0.00    -0.240 NA
HETATM    5  C8  UNL     1      22.318   0.466  52.321  1.00  0.00     0.092 A 
HETATM    6  C9  UNL     1      23.337  -0.127  53.037  1.00  0.00     0.074 A 
HETATM    7  C10 UNL     1      24.664   0.240  52.968  1.00  0.00     0.107 A 
HETATM    8  C16 UNL     1      24.957   1.292  52.100  1.00  0.00     0.138 A 
HETATM    9  C17 UNL     1      23.972   1.935  51.348  1.00  0.00     0.136 A 
HETATM   10  C18 UNL     1      22.697   1.486  51.499  1.00  0.00     0.122 A 
HETATM   11  O3  UNL     1      24.278   2.964  50.501  1.00  0.00    -0.344 OA
HETATM   12  C19 UNL     1      25.576   3.506  50.495  1.00  0.00     0.202 C 
HETATM   13  C20 UNL     1      26.619   2.416  50.770  1.00  0.00     0.202 C 
HETATM   14  O4  UNL     1      26.268   1.733  51.963  1.00  0.00    -0.344 OA
HETATM   15  H7  UNL     1      19.551   2.093  50.338  1.00  0.00     0.188 HD
ENDROOT
BRANCH   1  16
HETATM   16  C6  UNL     1      21.830   3.210  49.812  1.00  0.00     0.057 A 
HETATM   17  C5  UNL     1      22.169   3.286  48.459  1.00  0.00     0.031 A 
HETATM   18  C4  UNL     1      22.188   4.496  47.825  1.00  0.00     0.003 A 
HETATM   19  C3  UNL     1      21.886   5.684  48.453  1.00  0.00     0.007 A 
HETATM   20  C2  UNL     1      21.549   5.629  49.788  1.00  0.00    -0.060 A 
HETATM   21  C1  UNL     1      21.233   6.936  50.420  1.00  0.00     0.048 C 
HETATM   22  C21 UNL     1      21.519   4.408  50.471  1.00  0.00     0.038 A 
ENDBRANCH   1  16
BRANCH   7  23
HETATM   23  O1  UNL     1      25.707  -0.298  53.638  1.00  0.00    -0.346 OA
BRANCH  23  24
HETATM   24  C11 UNL     1      26.249  -0.060  54.878  1.00  0.00     0.207 C 
BRANCH  24  25
HETATM   25  C12 UNL     1      27.727   0.131  54.960  1.00  0.00     0.145 C 
HETATM   26  C13 UNL     1      28.303  -0.512  53.689  1.00  0.00     0.036 C 
HETATM   27  C14 UNL     1      29.650   0.164  53.615  1.00  0.00     0.029 C 
HETATM   28  C15 UNL     1      29.354   1.504  54.245  1.00  0.00     0.168 C 
HETATM   29  O2  UNL     1      28.043   1.476  54.703  1.00  0.00    -0.384 OA
ENDBRANCH  24  25
ENDBRANCH  23  24
ENDBRANCH   7  23
TORSDOF 4
ENDMDL
MODEL 7
REMARK VINA RESULT:      -8.3      2.582      7.449
REMARK  4 active torsions:
REMARK  status: ('A' for Active; 'I' for Inactive)
REMARK    1  A    between atoms: C6_6  and  N1_7 
REMARK    2  A    between atoms: C10_13  and  O1_14 
REMARK    3  A    between atoms: O1_14  and  C11_15 
REMARK    4  A    between atoms: C11_15  and  C12_16 
ROOT
HETATM    1  N1  UNL     1      20.789   1.429  52.170  1.00  0.00    -0.251 N 
HETATM    2  N2  UNL     1      19.621   0.709  52.526  1.00  0.00    -0.287 N 
HETATM    3  C7  UNL     1      19.707  -0.479  53.332  1.00  0.00     0.224 A 
HETATM    4  N3  UNL     1      20.860  -0.920  53.752  1.00  0.00    -0.240 NA
HETATM    5  C8  UNL     1      22.029  -0.200  53.396  1.00  0.00     0.092 A 
HETATM    6  C9  UNL     1      23.273  -0.630  53.810  1.00  0.00     0.074 A 
HETATM    7  C10 UNL     1      24.463  -0.004  53.509  1.00  0.00     0.107 A 
HETATM    8  C16 UNL     1      24.361   1.146  52.725  1.00  0.00     0.138 A 
HETATM    9  C17 UNL     1      23.133   1.634  52.274  1.00  0.00     0.136 A 
HETATM   10  C18 UNL     1      22.026   0.932  52.636  1.00  0.00     0.122 A 
HETATM   11  O3  UNL     1      23.052   2.763  51.505  1.00  0.00    -0.344 OA
HETATM   12  C19 UNL     1      24.199   3.550  51.291  1.00  0.00     0.202 C 
HETATM   13  C20 UNL     1      25.453   2.670  51.216  1.00  0.00     0.202 C 
HETATM   14  O4  UNL     1      25.507   1.846  52.369  1.00  0.00    -0.344 OA
HETATM   15  H7  UNL     1      18.642   0.988  52.233  1.00  0.00     0.188 HD
ENDROOT
BRANCH   1  16
HETATM   16  C6  UNL     1      20.508   2.569  51.376  1.00  0.00     0.057 A 
HETATM   17  C5  UNL     1      20.337   3.926  51.665  1.00  0.00     0.031 A 
HETATM   18  C4  UNL     1      20.081   4.812  50.658  1.00  0.00     0.003 A 
HETATM   19  C3  UNL     1      19.977   4.445  49.334  1.00  0.00     0.007 A 
HETATM   20  C2  UNL     1      20.143   3.111  49.030  1.00  0.00    -0.060 A 
HETATM   21  C1  UNL     1      20.021   2.765  47.590  1.00  0.00     0.048 C 
HETATM   22  C21 UNL     1      20.406   2.173  50.036  1.00  0.00     0.038 A 
ENDBRANCH   1  16
BRANCH   7  23
HETATM   23  O1  UNL     1      25.709  -0.373  53.880  1.00  0.00    -0.346 OA
BRANCH  23  24
HETATM   24  C11 UNL     1      26.404  -0.274  55.062  1.00  0.00     0.207 C 
BRANCH  24  25
HETATM   25  C12 UNL     1      27.825   0.179  54.991  1.00  0.00     0.145 C 
HETATM   26  C13 UNL     1      28.428  -0.528  53.767  1.00  0.00     0.036 C 
HETATM   27  C14 UNL     1      29.623   0.353  53.492  1.00  0.00     0.029 C 
HETATM   28  C15 UNL     1      29.127   1.697  53.970  1.00  0.00     0.168 C 
HETATM   29  O2  UNL     1      27.873   1.508  54.539  1.00  0.00    -0.384 OA
ENDBRANCH  24  25
ENDBRANCH  23  24
ENDBRANCH   7  23
TORSDOF 4
ENDMDL
MODEL 8
REMARK VINA RESULT:      -8.3      2.791      4.845
REMARK  4 active torsions:
REMARK  status: ('A' for Active; 'I' for Inactive)
REMARK    1  A    between atoms: C6_6  and  N1_7 
REMARK    2  A    between atoms: C10_13  and  O1_14 
REMARK    3  A    between atoms: O1_14  and  C11_15 
REMARK    4  A    between atoms: C11_15  and  C12_16 
ROOT
HETATM    1  N1  UNL     1      24.526  -0.246  53.529  1.00  0.00    -0.251 N 
HETATM    2  N2  UNL     1      23.837  -1.049  54.471  1.00  0.00    -0.287 N 
HETATM    3  C7  UNL     1      22.441  -0.830  54.742  1.00  0.00     0.224 A 
HETATM    4  N3  UNL     1      21.781   0.111  54.127  1.00  0.00    -0.240 NA
HETATM    5  C8  UNL     1      22.470   0.916  53.185  1.00  0.00     0.092 A 
HETATM    6  C9  UNL     1      21.817   1.930  52.514  1.00  0.00     0.074 A 
HETATM    7  C10 UNL     1      22.403   2.767  51.589  1.00  0.00     0.107 A 
HETATM    8  C16 UNL     1      23.757   2.541  51.340  1.00  0.00     0.138 A 
HETATM    9  C17 UNL     1      24.476   1.532  51.985  1.00  0.00     0.136 A 
HETATM   10  C18 UNL     1      23.791   0.768  52.877  1.00  0.00     0.122 A 
HETATM   11  O3  UNL     1      25.804   1.326  51.729  1.00  0.00    -0.344 OA
HETATM   12  C19 UNL     1      26.434   2.026  50.684  1.00  0.00     0.202 C 
HETATM   13  C20 UNL     1      25.845   3.435  50.543  1.00  0.00     0.202 C 
HETATM   14  O4  UNL     1      24.435   3.335  50.423  1.00  0.00    -0.344 OA
HETATM   15  H7  UNL     1      24.286  -1.836  55.019  1.00  0.00     0.188 HD
ENDROOT
BRANCH   1  16
HETATM   16  C6  UNL     1      25.890  -0.608  53.396  1.00  0.00     0.057 A 
HETATM   17  C5  UNL     1      26.557  -1.598  52.669  1.00  0.00     0.031 A 
HETATM   18  C4  UNL     1      27.918  -1.695  52.733  1.00  0.00     0.003 A 
HETATM   19  C3  UNL     1      28.701  -0.854  53.494  1.00  0.00     0.007 A 
HETATM   20  C2  UNL     1      28.060   0.128  54.218  1.00  0.00    -0.060 A 
HETATM   21  C1  UNL     1      28.948   1.009  55.022  1.00  0.00     0.048 C 
HETATM   22  C21 UNL     1      26.667   0.258  54.176  1.00  0.00     0.038 A 
ENDBRANCH   1  16
BRANCH   7  23
HETATM   23  O1  UNL     1      21.822   3.775  50.901  1.00  0.00    -0.346 OA
BRANCH  23  24
HETATM   24  C11 UNL     1      21.619   5.106  51.178  1.00  0.00     0.207 C 
BRANCH  24  25
HETATM   25  C12 UNL     1      22.380   6.103  50.370  1.00  0.00     0.145 C 
HETATM   26  C13 UNL     1      21.495   7.357  50.312  1.00  0.00     0.036 C 
HETATM   27  C14 UNL     1      22.517   8.409  49.957  1.00  0.00     0.029 C 
HETATM   28  C15 UNL     1      23.762   7.857  50.608  1.00  0.00     0.168 C 
HETATM   29  O2  UNL     1      23.449   6.608  51.130  1.00  0.00    -0.384 OA
ENDBRANCH  24  25
ENDBRANCH  23  24
ENDBRANCH   7  23
TORSDOF 4
ENDMDL
MODEL 9
REMARK VINA RESULT:      -8.3      2.439      3.906
REMARK  4 active torsions:
REMARK  status: ('A' for Active; 'I' for Inactive)
REMARK    1  A    between atoms: C6_6  and  N1_7 
REMARK    2  A    between atoms: C10_13  and  O1_14 
REMARK    3  A    between atoms: O1_14  and  C11_15 
REMARK    4  A    between atoms: C11_15  and  C12_16 
ROOT
HETATM    1  N1  UNL     1      25.866   1.765  51.367  1.00  0.00    -0.251 N 
HETATM    2  N2  UNL     1      26.589   2.579  50.459  1.00  0.00    -0.287 N 
HETATM    3  C7  UNL     1      25.911   3.550  49.642  1.00  0.00     0.224 A 
HETATM    4  N3  UNL     1      24.619   3.703  49.720  1.00  0.00    -0.240 NA
HETATM    5  C8  UNL     1      23.895   2.889  50.628  1.00  0.00     0.092 A 
HETATM    6  C9  UNL     1      22.525   3.009  50.741  1.00  0.00     0.074 A 
HETATM    7  C10 UNL     1      21.737   2.259  51.588  1.00  0.00     0.107 A 
HETATM    8  C16 UNL     1      22.410   1.322  52.371  1.00  0.00     0.138 A 
HETATM    9  C17 UNL     1      23.795   1.151  52.304  1.00  0.00     0.136 A 
HETATM   10  C18 UNL     1      24.468   1.949  51.432  1.00  0.00     0.122 A 
HETATM   11  O3  UNL     1      24.438   0.225  53.079  1.00  0.00    -0.344 OA
HETATM   12  C19 UNL     1      23.732  -0.463  54.083  1.00  0.00     0.202 C 
HETATM   13  C20 UNL     1      22.282  -0.713  53.650  1.00  0.00     0.202 C 
HETATM   14  O4  UNL     1      21.700   0.518  53.255  1.00  0.00    -0.344 OA
HETATM   15  H7  UNL     1      27.638   2.528  50.325  1.00  0.00     0.188 HD
ENDROOT
BRANCH   1  16
HETATM   16  C6  UNL     1      26.701   0.871  52.083  1.00  0.00     0.057 A 
HETATM   17  C5  UNL     1      26.828  -0.521  52.103  1.00  0.00     0.031 A 
HETATM   18  C4  UNL     1      27.758  -1.111  52.910  1.00  0.00     0.003 A 
HETATM   19  C3  UNL     1      28.606  -0.401  53.732  1.00  0.00     0.007 A 
HETATM   20  C2  UNL     1      28.495   0.972  53.726  1.00  0.00    -0.060 A 
HETATM   21  C1  UNL     1      29.431   1.691  54.629  1.00  0.00     0.048 C 
HETATM   22  C21 UNL     1      27.554   1.612  52.912  1.00  0.00     0.038 A 
ENDBRANCH   1  16
BRANCH   7  23
HETATM   23  O1  UNL     1      20.396   2.326  51.745  1.00  0.00    -0.346 OA
BRANCH  23  24
HETATM   24  C11 UNL     1      19.527   3.368  51.962  1.00  0.00     0.207 C 
BRANCH  24  25
HETATM   25  C12 UNL     1      18.196   3.308  51.290  1.00  0.00     0.145 C 
HETATM   26  C13 UNL     1      17.746   1.842  51.384  1.00  0.00     0.036 C 
HETATM   27  C14 UNL     1      16.259   1.987  51.170  1.00  0.00     0.029 C 
HETATM   28  C15 UNL     1      15.999   3.354  51.756  1.00  0.00     0.168 C 
HETATM   29  O2  UNL     1      17.225   3.901  52.115  1.00  0.00    -0.384 OA
ENDBRANCH  24  25
ENDBRANCH  23  24
ENDBRANCH   7  23
TORSDOF 4
ENDMDL
