MODEL 1
REMARK VINA RESULT:      -7.6      0.000      0.000
REMARK  4 active torsions:
REMARK  status: ('A' for Active; 'I' for Inactive)
REMARK    1  A    between atoms: C6_7  and  N2_8 
REMARK    2  A    between atoms: N2_8  and  C7_9 
REMARK    3  A    between atoms: C9_12  and  O1_13 
REMARK    4  A    between atoms: O1_13  and  C10_14 
ROOT
HETATM    1  C7  UNL     1      25.057   2.843  52.269  1.00  0.00     0.150 A 
HETATM    2  C8  UNL     1      23.742   3.500  52.628  1.00  0.00     0.121 A 
HETATM    3  N3  UNL     1      22.682   2.867  52.193  1.00  0.00    -0.239 NA
HETATM    4  C9  UNL     1      23.154   1.703  51.488  1.00  0.00     0.167 A 
HETATM    5  C16 UNL     1      24.479   1.666  51.516  1.00  0.00     0.062 A 
ENDROOT
BRANCH   1   6
HETATM    6  N2  UNL     1      25.848   2.462  53.379  1.00  0.00    -0.376 N 
HETATM    7  H7  UNL     1      25.489   3.097  54.154  1.00  0.00     0.160 HD
BRANCH   6   8
HETATM    8  C6  UNL     1      26.874   1.602  53.798  1.00  0.00     0.053 A 
HETATM    9  C2  UNL     1      26.659   0.344  54.316  1.00  0.00     0.056 A 
HETATM   10  C1  UNL     1      25.316  -0.220  54.463  1.00  0.00     0.072 C 
HETATM   11  N1  UNL     1      27.700  -0.404  54.697  1.00  0.00    -0.264 NA
HETATM   12  C3  UNL     1      28.954   0.011  54.599  1.00  0.00     0.117 A 
HETATM   13  C4  UNL     1      29.250   1.248  54.094  1.00  0.00     0.022 A 
HETATM   14  C5  UNL     1      28.192   2.028  53.699  1.00  0.00     0.033 A 
ENDBRANCH   6   8
ENDBRANCH   1   6
BRANCH   4  15
HETATM   15  O1  UNL     1      22.105   0.956  50.984  1.00  0.00    -0.291 OA
BRANCH  15  16
HETATM   16  C10 UNL     1      21.157   0.346  51.800  1.00  0.00     0.099 A 
HETATM   17  C11 UNL     1      21.501  -0.261  52.980  1.00  0.00     0.039 A 
HETATM   18  C12 UNL     1      20.570  -0.875  53.810  1.00  0.00     0.003 A 
HETATM   19  C13 UNL     1      19.238  -0.861  53.404  1.00  0.00     0.002 A 
HETATM   20  C14 UNL     1      18.867  -0.254  52.215  1.00  0.00     0.026 A 
HETATM   21  C15 UNL     1      19.823   0.352  51.408  1.00  0.00     0.068 A 
HETATM   22 CL1  UNL     1      19.333   1.109  49.919  1.00  0.00    -0.081 Cl
ENDBRANCH  15  16
ENDBRANCH   4  15
TORSDOF 4
ENDMDL
MODEL 2
REMARK VINA RESULT:      -7.5      4.381      7.126
REMARK  4 active torsions:
REMARK  status: ('A' for Active; 'I' for Inactive)
REMARK    1  A    between atoms: C6_7  and  N2_8 
REMARK    2  A    between atoms: N2_8  and  C7_9 
REMARK    3  A    between atoms: C9_12  and  O1_13 
REMARK    4  A    between atoms: O1_13  and  C10_14 
ROOT
HETATM    1  C7  UNL     1      25.410   3.136  49.896  1.00  0.00     0.150 A 
HETATM    2  C8  UNL     1      24.181   2.681  50.653  1.00  0.00     0.121 A 
HETATM    3  N3  UNL     1      24.433   2.089  51.793  1.00  0.00    -0.239 NA
HETATM    4  C9  UNL     1      25.865   2.074  51.944  1.00  0.00     0.167 A 
HETATM    5  C16 UNL     1      26.435   2.653  50.897  1.00  0.00     0.062 A 
ENDROOT
BRANCH   1   6
HETATM    6  N2  UNL     1      25.473   4.529  49.658  1.00  0.00    -0.376 N 
HETATM    7  H7  UNL     1      24.471   4.843  49.824  1.00  0.00     0.160 HD
BRANCH   6   8
HETATM    8  C6  UNL     1      26.332   5.580  49.302  1.00  0.00     0.053 A 
HETATM    9  C2  UNL     1      26.122   6.896  49.648  1.00  0.00     0.056 A 
HETATM   10  C1  UNL     1      24.969   7.318  50.444  1.00  0.00     0.072 C 
HETATM   11  N1  UNL     1      26.992   7.833  49.257  1.00  0.00    -0.264 NA
HETATM   12  C3  UNL     1      28.070   7.554  48.539  1.00  0.00     0.117 A 
HETATM   13  C4  UNL     1      28.350   6.270  48.156  1.00  0.00     0.022 A 
HETATM   14  C5  UNL     1      27.466   5.297  48.549  1.00  0.00     0.033 A 
ENDBRANCH   6   8
ENDBRANCH   1   6
BRANCH   4  15
HETATM   15  O1  UNL     1      26.243   1.466  53.128  1.00  0.00    -0.291 OA
BRANCH  15  16
HETATM   16  C10 UNL     1      27.249   0.505  53.191  1.00  0.00     0.099 A 
HETATM   17  C11 UNL     1      26.996  -0.822  52.963  1.00  0.00     0.039 A 
HETATM   18  C12 UNL     1      27.984  -1.798  53.020  1.00  0.00     0.003 A 
HETATM   19  C13 UNL     1      29.279  -1.384  53.325  1.00  0.00     0.002 A 
HETATM   20  C14 UNL     1      29.558  -0.048  53.560  1.00  0.00     0.026 A 
HETATM   21  C15 UNL     1      28.545   0.902  53.494  1.00  0.00     0.068 A 
HETATM   22 CL1  UNL     1      28.920   2.576  53.793  1.00  0.00    -0.081 Cl
ENDBRANCH  15  16
ENDBRANCH   4  15
TORSDOF 4
ENDMDL
MODEL 3
REMARK VINA RESULT:      -7.4      1.810      2.499
REMARK  4 active torsions:
REMARK  status: ('A' for Active; 'I' for Inactive)
REMARK    1  A    between atoms: C6_7  and  N2_8 
REMARK    2  A    between atoms: N2_8  and  C7_9 
REMARK    3  A    between atoms: C9_12  and  O1_13 
REMARK    4  A    between atoms: O1_13  and  C10_14 
ROOT
HETATM    1  C7  UNL     1      25.181   1.265  52.012  1.00  0.00     0.150 A 
HETATM    2  C8  UNL     1      24.946   2.757  51.910  1.00  0.00     0.121 A 
HETATM    3  N3  UNL     1      23.715   3.130  52.156  1.00  0.00    -0.239 NA
HETATM    4  C9  UNL     1      22.970   1.934  52.454  1.00  0.00     0.167 A 
HETATM    5  C16 UNL     1      23.766   0.877  52.381  1.00  0.00     0.062 A 
ENDROOT
BRANCH   1   6
HETATM    6  N2  UNL     1      26.137   0.884  52.984  1.00  0.00    -0.376 N 
HETATM    7  H7  UNL     1      25.675   1.176  53.897  1.00  0.00     0.160 HD
BRANCH   6   8
HETATM    8  C6  UNL     1      27.398   0.296  53.163  1.00  0.00     0.053 A 
HETATM    9  C2  UNL     1      28.543   1.005  53.451  1.00  0.00     0.056 A 
HETATM   10  C1  UNL     1      28.540   2.460  53.614  1.00  0.00     0.072 C 
HETATM   11  N1  UNL     1      29.705   0.359  53.597  1.00  0.00    -0.264 NA
HETATM   12  C3  UNL     1      29.813  -0.956  53.475  1.00  0.00     0.117 A 
HETATM   13  C4  UNL     1      28.722  -1.730  53.190  1.00  0.00     0.022 A 
HETATM   14  C5  UNL     1      27.522  -1.082  53.037  1.00  0.00     0.033 A 
ENDBRANCH   6   8
ENDBRANCH   1   6
BRANCH   4  15
HETATM   15  O1  UNL     1      21.645   2.218  52.731  1.00  0.00    -0.291 OA
BRANCH  15  16
HETATM   16  C10 UNL     1      20.605   1.359  52.389  1.00  0.00     0.099 A 
HETATM   17  C11 UNL     1      19.941   1.467  51.195  1.00  0.00     0.039 A 
HETATM   18  C12 UNL     1      18.901   0.620  50.833  1.00  0.00     0.003 A 
HETATM   19  C13 UNL     1      18.534  -0.373  51.738  1.00  0.00     0.002 A 
HETATM   20  C14 UNL     1      19.191  -0.501  52.952  1.00  0.00     0.026 A 
HETATM   21  C15 UNL     1      20.229   0.363  53.282  1.00  0.00     0.068 A 
HETATM   22 CL1  UNL     1      21.039   0.182  54.812  1.00  0.00    -0.081 Cl
ENDBRANCH  15  16
ENDBRANCH   4  15
TORSDOF 4
ENDMDL
MODEL 4
REMARK VINA RESULT:      -7.3      3.253      5.550
REMARK  4 active torsions:
REMARK  status: ('A' for Active; 'I' for Inactive)
REMARK    1  A    between atoms: C6_7  and  N2_8 
REMARK    2  A    between atoms: N2_8  and  C7_9 
REMARK    3  A    between atoms: C9_12  and  O1_13 
REMARK    4  A    between atoms: O1_13  and  C10_14 
ROOT
HETATM    1  C7  UNL     1      24.330   2.553  53.055  1.00  0.00     0.150 A 
HETATM    2  C8  UNL     1      24.034   1.514  51.996  1.00  0.00     0.121 A 
HETATM    3  N3  UNL     1      24.052   1.969  50.768  1.00  0.00    -0.239 NA
HETATM    4  C9  UNL     1      24.364   3.373  50.851  1.00  0.00     0.167 A 
HETATM    5  C16 UNL     1      24.524   3.725  52.118  1.00  0.00     0.062 A 
ENDROOT
BRANCH   1   6
HETATM    6  N2  UNL     1      25.468   2.278  53.850  1.00  0.00    -0.376 N 
HETATM    7  H7  UNL     1      25.338   2.929  54.681  1.00  0.00     0.160 HD
BRANCH   6   8
HETATM    8  C6  UNL     1      26.633   1.502  53.929  1.00  0.00     0.053 A 
HETATM    9  C2  UNL     1      26.657   0.191  54.350  1.00  0.00     0.056 A 
HETATM   10  C1  UNL     1      25.442  -0.525  54.744  1.00  0.00     0.072 C 
HETATM   11  N1  UNL     1      27.819  -0.469  54.401  1.00  0.00    -0.264 NA
HETATM   12  C3  UNL     1      28.973   0.085  54.060  1.00  0.00     0.117 A 
HETATM   13  C4  UNL     1      29.033   1.383  53.632  1.00  0.00     0.022 A 
HETATM   14  C5  UNL     1      27.849   2.074  53.574  1.00  0.00     0.033 A 
ENDBRANCH   6   8
ENDBRANCH   1   6
BRANCH   4  15
HETATM   15  O1  UNL     1      24.409   3.956  49.598  1.00  0.00    -0.291 OA
BRANCH  15  16
HETATM   16  C10 UNL     1      25.486   4.725  49.165  1.00  0.00     0.099 A 
HETATM   17  C11 UNL     1      26.759   4.219  49.109  1.00  0.00     0.039 A 
HETATM   18  C12 UNL     1      27.848   4.969  48.680  1.00  0.00     0.003 A 
HETATM   19  C13 UNL     1      27.611   6.287  48.298  1.00  0.00     0.002 A 
HETATM   20  C14 UNL     1      26.333   6.820  48.348  1.00  0.00     0.026 A 
HETATM   21  C15 UNL     1      25.266   6.042  48.781  1.00  0.00     0.068 A 
HETATM   22 CL1  UNL     1      23.669   6.733  48.834  1.00  0.00    -0.081 Cl
ENDBRANCH  15  16
ENDBRANCH   4  15
TORSDOF 4
ENDMDL
MODEL 5
REMARK VINA RESULT:      -7.3      3.082      7.124
REMARK  4 active torsions:
REMARK  status: ('A' for Active; 'I' for Inactive)
REMARK    1  A    between atoms: C6_7  and  N2_8 
REMARK    2  A    between atoms: N2_8  and  C7_9 
REMARK    3  A    between atoms: C9_12  and  O1_13 
REMARK    4  A    between atoms: O1_13  and  C10_14 
ROOT
HETATM    1  C7  UNL     1      22.625   1.981  52.010  1.00  0.00     0.150 A 
HETATM    2  C8  UNL     1      23.532   2.261  50.832  1.00  0.00     0.121 A 
HETATM    3  N3  UNL     1      24.807   2.295  51.124  1.00  0.00    -0.239 NA
HETATM    4  C9  UNL     1      24.915   2.040  52.538  1.00  0.00     0.167 A 
HETATM    5  C16 UNL     1      23.710   1.860  53.057  1.00  0.00     0.062 A 
ENDROOT
BRANCH   1   6
HETATM    6  N2  UNL     1      21.838   0.811  51.883  1.00  0.00    -0.376 N 
HETATM    7  H7  UNL     1      22.468   0.162  51.323  1.00  0.00     0.160 HD
BRANCH   6   8
HETATM    8  C6  UNL     1      20.601   0.237  52.211  1.00  0.00     0.053 A 
HETATM    9  C2  UNL     1      20.362  -0.465  53.372  1.00  0.00     0.056 A 
HETATM   10  C1  UNL     1      21.395  -0.663  54.390  1.00  0.00     0.072 C 
HETATM   11  N1  UNL     1      19.151  -0.985  53.596  1.00  0.00    -0.264 NA
HETATM   12  C3  UNL     1      18.147  -0.857  52.741  1.00  0.00     0.117 A 
HETATM   13  C4  UNL     1      18.304  -0.175  51.566  1.00  0.00     0.022 A 
HETATM   14  C5  UNL     1      19.542   0.366  51.321  1.00  0.00     0.033 A 
ENDBRANCH   6   8
ENDBRANCH   1   6
BRANCH   4  15
HETATM   15  O1  UNL     1      26.234   2.053  52.955  1.00  0.00    -0.291 OA
BRANCH  15  16
HETATM   16  C10 UNL     1      27.009   0.899  53.033  1.00  0.00     0.099 A 
HETATM   17  C11 UNL     1      26.498  -0.336  52.732  1.00  0.00     0.039 A 
HETATM   18  C12 UNL     1      27.253  -1.501  52.803  1.00  0.00     0.003 A 
HETATM   19  C13 UNL     1      28.584  -1.382  53.198  1.00  0.00     0.002 A 
HETATM   20  C14 UNL     1      29.121  -0.143  53.508  1.00  0.00     0.026 A 
HETATM   21  C15 UNL     1      28.338   1.002  53.427  1.00  0.00     0.068 A 
HETATM   22 CL1  UNL     1      29.036   2.548  53.820  1.00  0.00    -0.081 Cl
ENDBRANCH  15  16
ENDBRANCH   4  15
TORSDOF 4
ENDMDL
MODEL 6
REMARK VINA RESULT:      -7.0      3.164      5.208
REMARK  4 active torsions:
REMARK  status: ('A' for Active; 'I' for Inactive)
REMARK    1  A    between atoms: C6_7  and  N2_8 
REMARK    2  A    between atoms: N2_8  and  C7_9 
REMARK    3  A    between atoms: C9_12  and  O1_13 
REMARK    4  A    between atoms: O1_13  and  C10_14 
ROOT
HETATM    1  C7  UNL     1      24.640   1.214  53.224  1.00  0.00     0.150 A 
HETATM    2  C8  UNL     1      23.481   0.880  52.310  1.00  0.00     0.121 A 
HETATM    3  N3  UNL     1      23.435   1.589  51.210  1.00  0.00    -0.239 NA
HETATM    4  C9  UNL     1      24.560   2.487  51.249  1.00  0.00     0.167 A 
HETATM    5  C16 UNL     1      25.250   2.298  52.365  1.00  0.00     0.062 A 
ENDROOT
BRANCH   1   6
HETATM    6  N2  UNL     1      25.522   0.136  53.476  1.00  0.00    -0.376 N 
HETATM    7  H7  UNL     1      24.860  -0.687  53.598  1.00  0.00     0.160 HD
BRANCH   6   8
HETATM    8  C6  UNL     1      26.873  -0.213  53.612  1.00  0.00     0.053 A 
HETATM    9  C2  UNL     1      27.449  -1.311  53.012  1.00  0.00     0.056 A 
HETATM   10  C1  UNL     1      26.688  -2.217  52.150  1.00  0.00     0.072 C 
HETATM   11  N1  UNL     1      28.746  -1.571  53.207  1.00  0.00    -0.264 NA
HETATM   12  C3  UNL     1      29.523  -0.810  53.963  1.00  0.00     0.117 A 
HETATM   13  C4  UNL     1      29.027   0.298  54.593  1.00  0.00     0.022 A 
HETATM   14  C5  UNL     1      27.696   0.579  54.404  1.00  0.00     0.033 A 
ENDBRANCH   6   8
ENDBRANCH   1   6
BRANCH   4  15
HETATM   15  O1  UNL     1      24.607   3.289  50.123  1.00  0.00    -0.291 OA
BRANCH  15  16
HETATM   16  C10 UNL     1      24.684   4.677  50.192  1.00  0.00     0.099 A 
HETATM   17  C11 UNL     1      23.691   5.429  50.764  1.00  0.00     0.039 A 
HETATM   18  C12 UNL     1      23.748   6.815  50.844  1.00  0.00     0.003 A 
HETATM   19  C13 UNL     1      24.871   7.445  50.313  1.00  0.00     0.002 A 
HETATM   20  C14 UNL     1      25.886   6.706  49.728  1.00  0.00     0.026 A 
HETATM   21  C15 UNL     1      25.799   5.320  49.666  1.00  0.00     0.068 A 
HETATM   22 CL1  UNL     1      27.087   4.412  48.928  1.00  0.00    -0.081 Cl
ENDBRANCH  15  16
ENDBRANCH   4  15
TORSDOF 4
ENDMDL
MODEL 7
REMARK VINA RESULT:      -6.9      3.574      6.072
REMARK  4 active torsions:
REMARK  status: ('A' for Active; 'I' for Inactive)
REMARK    1  A    between atoms: C6_7  and  N2_8 
REMARK    2  A    between atoms: N2_8  and  C7_9 
REMARK    3  A    between atoms: C9_12  and  O1_13 
REMARK    4  A    between atoms: O1_13  and  C10_14 
ROOT
HETATM    1  C7  UNL     1      23.107   4.252  50.405  1.00  0.00     0.150 A 
HETATM    2  C8  UNL     1      23.359   5.050  51.666  1.00  0.00     0.121 A 
HETATM    3  N3  UNL     1      23.733   4.333  52.696  1.00  0.00    -0.239 NA
HETATM    4  C9  UNL     1      23.781   2.964  52.253  1.00  0.00     0.167 A 
HETATM    5  C16 UNL     1      23.435   2.891  50.976  1.00  0.00     0.062 A 
ENDROOT
BRANCH   1   6
HETATM    6  N2  UNL     1      23.926   4.611  49.308  1.00  0.00    -0.376 N 
HETATM    7  H7  UNL     1      23.452   4.122  48.490  1.00  0.00     0.160 HD
BRANCH   6   8
HETATM    8  C6  UNL     1      25.068   5.336  48.935  1.00  0.00     0.053 A 
HETATM    9  C2  UNL     1      26.354   4.857  49.049  1.00  0.00     0.056 A 
HETATM   10  C1  UNL     1      26.645   3.518  49.565  1.00  0.00     0.072 C 
HETATM   11  N1  UNL     1      27.383   5.623  48.676  1.00  0.00    -0.264 NA
HETATM   12  C3  UNL     1      27.227   6.846  48.191  1.00  0.00     0.117 A 
HETATM   13  C4  UNL     1      25.982   7.394  48.046  1.00  0.00     0.022 A 
HETATM   14  C5  UNL     1      24.914   6.619  48.425  1.00  0.00     0.033 A 
ENDBRANCH   6   8
ENDBRANCH   1   6
BRANCH   4  15
HETATM   15  O1  UNL     1      24.169   2.115  53.273  1.00  0.00    -0.291 OA
BRANCH  15  16
HETATM   16  C10 UNL     1      25.228   1.220  53.144  1.00  0.00     0.099 A 
HETATM   17  C11 UNL     1      26.522   1.647  52.997  1.00  0.00     0.039 A 
HETATM   18  C12 UNL     1      27.593   0.772  52.867  1.00  0.00     0.003 A 
HETATM   19  C13 UNL     1      27.316  -0.593  52.888  1.00  0.00     0.002 A 
HETATM   20  C14 UNL     1      26.015  -1.048  53.034  1.00  0.00     0.026 A 
HETATM   21  C15 UNL     1      24.966  -0.145  53.163  1.00  0.00     0.068 A 
HETATM   22 CL1  UNL     1      23.341  -0.740  53.345  1.00  0.00    -0.081 Cl
ENDBRANCH  15  16
ENDBRANCH   4  15
TORSDOF 4
ENDMDL
MODEL 8
REMARK VINA RESULT:      -6.9      3.646      6.532
REMARK  4 active torsions:
REMARK  status: ('A' for Active; 'I' for Inactive)
REMARK    1  A    between atoms: C6_7  and  N2_8 
REMARK    2  A    between atoms: N2_8  and  C7_9 
REMARK    3  A    between atoms: C9_12  and  O1_13 
REMARK    4  A    between atoms: O1_13  and  C10_14 
ROOT
HETATM    1  C7  UNL     1      21.631   3.401  52.085  1.00  0.00     0.150 A 
HETATM    2  C8  UNL     1      21.353   3.911  50.688  1.00  0.00     0.121 A 
HETATM    3  N3  UNL     1      22.221   4.788  50.247  1.00  0.00    -0.239 NA
HETATM    4  C9  UNL     1      23.191   4.974  51.296  1.00  0.00     0.167 A 
HETATM    5  C16 UNL     1      22.884   4.210  52.334  1.00  0.00     0.062 A 
ENDROOT
BRANCH   1   6
HETATM    6  N2  UNL     1      21.840   2.004  52.172  1.00  0.00    -0.376 N 
HETATM    7  H7  UNL     1      21.659   1.676  51.176  1.00  0.00     0.160 HD
BRANCH   6   8
HETATM    8  C6  UNL     1      22.179   0.962  53.047  1.00  0.00     0.053 A 
HETATM    9  C2  UNL     1      23.442   0.422  53.148  1.00  0.00     0.056 A 
HETATM   10  C1  UNL     1      24.565   0.910  52.346  1.00  0.00     0.072 C 
HETATM   11  N1  UNL     1      23.671  -0.577  54.006  1.00  0.00    -0.264 NA
HETATM   12  C3  UNL     1      22.724  -1.086  54.782  1.00  0.00     0.117 A 
HETATM   13  C4  UNL     1      21.445  -0.605  54.741  1.00  0.00     0.022 A 
HETATM   14  C5  UNL     1      21.193   0.422  53.864  1.00  0.00     0.033 A 
ENDBRANCH   6   8
ENDBRANCH   1   6
BRANCH   4  15
HETATM   15  O1  UNL     1      24.162   5.888  50.930  1.00  0.00    -0.291 OA
BRANCH  15  16
HETATM   16  C10 UNL     1      25.273   5.539  50.167  1.00  0.00     0.099 A 
HETATM   17  C11 UNL     1      25.736   4.251  50.112  1.00  0.00     0.039 A 
HETATM   18  C12 UNL     1      26.842   3.880  49.356  1.00  0.00     0.003 A 
HETATM   19  C13 UNL     1      27.492   4.879  48.633  1.00  0.00     0.002 A 
HETATM   20  C14 UNL     1      27.041   6.188  48.675  1.00  0.00     0.026 A 
HETATM   21  C15 UNL     1      25.931   6.525  49.441  1.00  0.00     0.068 A 
HETATM   22 CL1  UNL     1      25.383   8.177  49.476  1.00  0.00    -0.081 Cl
ENDBRANCH  15  16
ENDBRANCH   4  15
TORSDOF 4
ENDMDL
MODEL 9
REMARK VINA RESULT:      -6.9      2.523      3.685
REMARK  4 active torsions:
REMARK  status: ('A' for Active; 'I' for Inactive)
REMARK    1  A    between atoms: C6_7  and  N2_8 
REMARK    2  A    between atoms: N2_8  and  C7_9 
REMARK    3  A    between atoms: C9_12  and  O1_13 
REMARK    4  A    between atoms: O1_13  and  C10_14 
ROOT
HETATM    1  C7  UNL     1      22.301  -0.856  52.819  1.00  0.00     0.150 A 
HETATM    2  C8  UNL     1      21.527  -0.022  51.821  1.00  0.00     0.121 A 
HETATM    3  N3  UNL     1      20.254   0.112  52.097  1.00  0.00    -0.239 NA
HETATM    4  C9  UNL     1      20.015  -0.615  53.317  1.00  0.00     0.167 A 
HETATM    5  C16 UNL     1      21.143  -1.166  53.742  1.00  0.00     0.062 A 
ENDROOT
BRANCH   1   6
HETATM    6  N2  UNL     1      23.361  -0.173  53.462  1.00  0.00    -0.376 N 
HETATM    7  H7  UNL     1      22.851   0.487  54.122  1.00  0.00     0.160 HD
BRANCH   6   8
HETATM    8  C6  UNL     1      24.757  -0.063  53.536  1.00  0.00     0.053 A 
HETATM    9  C2  UNL     1      25.505  -0.466  54.620  1.00  0.00     0.056 A 
HETATM   10  C1  UNL     1      24.895  -1.071  55.805  1.00  0.00     0.072 C 
HETATM   11  N1  UNL     1      26.833  -0.313  54.604  1.00  0.00    -0.264 NA
HETATM   12  C3  UNL     1      27.481   0.217  53.578  1.00  0.00     0.117 A 
HETATM   13  C4  UNL     1      26.810   0.642  52.464  1.00  0.00     0.022 A 
HETATM   14  C5  UNL     1      25.446   0.493  52.464  1.00  0.00     0.033 A 
ENDBRANCH   6   8
ENDBRANCH   1   6
BRANCH   4  15
HETATM   15  O1  UNL     1      18.689  -0.537  53.701  1.00  0.00    -0.291 OA
BRANCH  15  16
HETATM   16  C10 UNL     1      17.755  -1.519  53.382  1.00  0.00     0.099 A 
HETATM   17  C11 UNL     1      17.885  -2.811  53.822  1.00  0.00     0.039 A 
HETATM   18  C12 UNL     1      16.965  -3.807  53.516  1.00  0.00     0.003 A 
HETATM   19  C13 UNL     1      15.873  -3.453  52.727  1.00  0.00     0.002 A 
HETATM   20  C14 UNL     1      15.722  -2.154  52.270  1.00  0.00     0.026 A 
HETATM   21  C15 UNL     1      16.661  -1.182  52.595  1.00  0.00     0.068 A 
HETATM   22 CL1  UNL     1      16.448   0.444  52.009  1.00  0.00    -0.081 Cl
ENDBRANCH  15  16
ENDBRANCH   4  15
TORSDOF 4
ENDMDL
