MODEL 1
REMARK VINA RESULT:      -8.1      0.000      0.000
REMARK  4 active torsions:
REMARK  status: ('A' for Active; 'I' for Inactive)
REMARK    1  A    between atoms: C7_7  and  C8_8 
REMARK    2  A    between atoms: C8_8  and  O1_9 
REMARK    3  A    between atoms: O1_9  and  C9_10 
REMARK    4  A    between atoms: N1_13  and  C12_14 
ROOT
HETATM    1  C9  UNL     1      23.702  -0.457  53.590  1.00  0.00     0.046 C 
HETATM    2  C10 UNL     1      22.853  -0.953  54.495  1.00  0.00     0.025 C 
HETATM    3  C11 UNL     1      21.372  -0.790  54.550  1.00  0.00     0.152 C 
HETATM    4  N1  UNL     1      20.926   0.031  53.428  1.00  0.00    -0.379 N 
HETATM    5  C17 UNL     1      21.867   1.077  53.083  1.00  0.00     0.129 C 
HETATM    6  C18 UNL     1      23.087   0.366  52.493  1.00  0.00     0.084 C 
ENDROOT
BRANCH   1   7
HETATM    7  O1  UNL     1      25.065  -0.589  53.513  1.00  0.00    -0.351 OA
BRANCH   7   8
HETATM    8  C8  UNL     1      25.917   0.143  52.654  1.00  0.00     0.214 C 
BRANCH   8   9
HETATM    9  C7  UNL     1      27.316  -0.242  52.988  1.00  0.00    -0.028 A 
HETATM   10  C2  UNL     1      28.228   0.715  53.371  1.00  0.00    -0.054 A 
HETATM   11  C1  UNL     1      27.782   2.137  53.445  1.00  0.00     0.049 C 
HETATM   12  C3  UNL     1      29.535   0.325  53.679  1.00  0.00     0.007 A 
HETATM   13  C4  UNL     1      29.873  -1.021  53.587  1.00  0.00     0.001 A 
HETATM   14  C5  UNL     1      28.963  -1.991  53.203  1.00  0.00     0.001 A 
HETATM   15  C6  UNL     1      27.658  -1.585  52.899  1.00  0.00     0.010 A 
ENDBRANCH   8   9
ENDBRANCH   7   8
ENDBRANCH   1   7
BRANCH   4  16
HETATM   16  C12 UNL     1      19.715  -0.116  52.700  1.00  0.00     0.025 A 
HETATM   17  C13 UNL     1      19.479   0.496  51.555  1.00  0.00     0.028 A 
HETATM   18  C14 UNL     1      18.244   0.359  50.792  1.00  0.00     0.019 A 
HETATM   19  C15 UNL     1      17.269  -0.421  51.242  1.00  0.00     0.083 A 
HETATM   20  N2  UNL     1      17.496  -1.092  52.470  1.00  0.00    -0.393 N 
HETATM   21  C16 UNL     1      18.679  -1.010  53.278  1.00  0.00     0.175 A 
HETATM   22  H16 UNL     1      16.775  -1.732  52.900  1.00  0.00     0.159 HD
ENDBRANCH   4  16
TORSDOF 4
ENDMDL
MODEL 2
REMARK VINA RESULT:      -7.8      2.619      8.165
REMARK  4 active torsions:
REMARK  status: ('A' for Active; 'I' for Inactive)
REMARK    1  A    between atoms: C7_7  and  C8_8 
REMARK    2  A    between atoms: C8_8  and  O1_9 
REMARK    3  A    between atoms: O1_9  and  C9_10 
REMARK    4  A    between atoms: N1_13  and  C12_14 
ROOT
HETATM    1  C9  UNL     1      23.717   1.051  51.965  1.00  0.00     0.046 C 
HETATM    2  C10 UNL     1      24.804   1.726  51.580  1.00  0.00     0.025 C 
HETATM    3  C11 UNL     1      26.216   1.512  52.011  1.00  0.00     0.152 C 
HETATM    4  N1  UNL     1      26.277   0.409  52.966  1.00  0.00    -0.379 N 
HETATM    5  C17 UNL     1      25.123   0.353  53.839  1.00  0.00     0.129 C 
HETATM    6  C18 UNL     1      23.945  -0.059  52.952  1.00  0.00     0.084 C 
ENDROOT
BRANCH   1   7
HETATM    7  O1  UNL     1      22.409   1.224  51.589  1.00  0.00    -0.351 OA
BRANCH   7   8
HETATM    8  C8  UNL     1      21.389   1.793  52.387  1.00  0.00     0.214 C 
BRANCH   8   9
HETATM    9  C7  UNL     1      20.212   0.886  52.310  1.00  0.00    -0.028 A 
HETATM   10  C2  UNL     1      19.927   0.027  53.347  1.00  0.00    -0.054 A 
HETATM   11  C1  UNL     1      20.820   0.030  54.542  1.00  0.00     0.049 C 
HETATM   12  C3  UNL     1      18.814  -0.815  53.248  1.00  0.00     0.007 A 
HETATM   13  C4  UNL     1      18.029  -0.757  52.101  1.00  0.00     0.001 A 
HETATM   14  C5  UNL     1      18.308   0.103  51.053  1.00  0.00     0.001 A 
HETATM   15  C6  UNL     1      19.425   0.940  51.168  1.00  0.00     0.010 A 
ENDBRANCH   8   9
ENDBRANCH   7   8
ENDBRANCH   1   7
BRANCH   4  16
HETATM   16  C12 UNL     1      27.320  -0.548  53.089  1.00  0.00     0.025 A 
HETATM   17  C13 UNL     1      28.546  -0.239  53.468  1.00  0.00     0.028 A 
HETATM   18  C14 UNL     1      29.630  -1.205  53.600  1.00  0.00     0.019 A 
HETATM   19  C15 UNL     1      29.414  -2.486  53.332  1.00  0.00     0.083 A 
HETATM   20  N2  UNL     1      28.106  -2.847  52.922  1.00  0.00    -0.393 N 
HETATM   21  C16 UNL     1      26.988  -1.960  52.767  1.00  0.00     0.175 A 
HETATM   22  H16 UNL     1      27.845  -3.843  52.690  1.00  0.00     0.159 HD
ENDBRANCH   4  16
TORSDOF 4
ENDMDL
MODEL 3
REMARK VINA RESULT:      -7.6      2.910      8.299
REMARK  4 active torsions:
REMARK  status: ('A' for Active; 'I' for Inactive)
REMARK    1  A    between atoms: C7_7  and  C8_8 
REMARK    2  A    between atoms: C8_8  and  O1_9 
REMARK    3  A    between atoms: O1_9  and  C9_10 
REMARK    4  A    between atoms: N1_13  and  C12_14 
ROOT
HETATM    1  C9  UNL     1      23.649   2.007  51.703  1.00  0.00     0.046 C 
HETATM    2  C10 UNL     1      24.626   2.459  50.911  1.00  0.00     0.025 C 
HETATM    3  C11 UNL     1      26.088   2.514  51.198  1.00  0.00     0.152 C 
HETATM    4  N1  UNL     1      26.347   1.982  52.534  1.00  0.00    -0.379 N 
HETATM    5  C17 UNL     1      25.300   2.302  53.482  1.00  0.00     0.129 C 
HETATM    6  C18 UNL     1      24.078   1.489  53.048  1.00  0.00     0.084 C 
ENDROOT
BRANCH   1   7
HETATM    7  O1  UNL     1      22.299   1.945  51.469  1.00  0.00    -0.351 OA
BRANCH   7   8
HETATM    8  C8  UNL     1      21.639   0.955  50.704  1.00  0.00     0.214 C 
BRANCH   8   9
HETATM    9  C7  UNL     1      20.614   0.330  51.584  1.00  0.00    -0.028 A 
HETATM   10  C2  UNL     1      19.281   0.377  51.241  1.00  0.00    -0.054 A 
HETATM   11  C1  UNL     1      18.895   1.064  49.975  1.00  0.00     0.049 C 
HETATM   12  C3  UNL     1      18.340  -0.218  52.087  1.00  0.00     0.007 A 
HETATM   13  C4  UNL     1      18.780  -0.840  53.250  1.00  0.00     0.001 A 
HETATM   14  C5  UNL     1      20.118  -0.893  53.603  1.00  0.00     0.001 A 
HETATM   15  C6  UNL     1      21.049  -0.293  52.746  1.00  0.00     0.010 A 
ENDBRANCH   8   9
ENDBRANCH   7   8
ENDBRANCH   1   7
BRANCH   4  16
HETATM   16  C12 UNL     1      27.479   1.225  52.939  1.00  0.00     0.025 A 
HETATM   17  C13 UNL     1      27.531  -0.092  52.873  1.00  0.00     0.028 A 
HETATM   18  C14 UNL     1      28.681  -0.888  53.283  1.00  0.00     0.019 A 
HETATM   19  C15 UNL     1      29.766  -0.290  53.759  1.00  0.00     0.083 A 
HETATM   20  N2  UNL     1      29.738   1.124  53.842  1.00  0.00    -0.393 N 
HETATM   21  C16 UNL     1      28.649   1.977  53.460  1.00  0.00     0.175 A 
HETATM   22  H16 UNL     1      30.557   1.681  54.207  1.00  0.00     0.159 HD
ENDBRANCH   4  16
TORSDOF 4
ENDMDL
MODEL 4
REMARK VINA RESULT:      -7.6      3.365      7.942
REMARK  4 active torsions:
REMARK  status: ('A' for Active; 'I' for Inactive)
REMARK    1  A    between atoms: C7_7  and  C8_8 
REMARK    2  A    between atoms: C8_8  and  O1_9 
REMARK    3  A    between atoms: O1_9  and  C9_10 
REMARK    4  A    between atoms: N1_13  and  C12_14 
ROOT
HETATM    1  C9  UNL     1      24.005   1.992  52.683  1.00  0.00     0.046 C 
HETATM    2  C10 UNL     1      23.936   0.752  53.176  1.00  0.00     0.025 C 
HETATM    3  C11 UNL     1      25.008  -0.285  53.203  1.00  0.00     0.152 C 
HETATM    4  N1  UNL     1      26.221   0.246  52.587  1.00  0.00    -0.379 N 
HETATM    5  C17 UNL     1      25.948   1.133  51.474  1.00  0.00     0.129 C 
HETATM    6  C18 UNL     1      25.325   2.391  52.083  1.00  0.00     0.084 C 
ENDROOT
BRANCH   1   7
HETATM    7  O1  UNL     1      23.040   2.967  52.642  1.00  0.00    -0.351 OA
BRANCH   7   8
HETATM    8  C8  UNL     1      21.747   2.823  52.087  1.00  0.00     0.214 C 
BRANCH   8   9
HETATM    9  C7  UNL     1      21.920   2.512  50.642  1.00  0.00    -0.028 A 
HETATM   10  C2  UNL     1      21.463   1.320  50.127  1.00  0.00    -0.054 A 
HETATM   11  C1  UNL     1      20.792   0.357  51.047  1.00  0.00     0.049 C 
HETATM   12  C3  UNL     1      21.640   1.054  48.766  1.00  0.00     0.007 A 
HETATM   13  C4  UNL     1      22.275   2.004  47.973  1.00  0.00     0.001 A 
HETATM   14  C5  UNL     1      22.738   3.206  48.481  1.00  0.00     0.001 A 
HETATM   15  C6  UNL     1      22.553   3.458  49.846  1.00  0.00     0.010 A 
ENDBRANCH   8   9
ENDBRANCH   7   8
ENDBRANCH   1   7
BRANCH   4  16
HETATM   16  C12 UNL     1      27.559  -0.029  52.977  1.00  0.00     0.025 A 
HETATM   17  C13 UNL     1      28.054  -1.250  53.058  1.00  0.00     0.028 A 
HETATM   18  C14 UNL     1      29.423  -1.554  53.456  1.00  0.00     0.019 A 
HETATM   19  C15 UNL     1      30.258  -0.571  53.766  1.00  0.00     0.083 A 
HETATM   20  N2  UNL     1      29.753   0.751  53.689  1.00  0.00    -0.393 N 
HETATM   21  C16 UNL     1      28.423   1.133  53.307  1.00  0.00     0.175 A 
HETATM   22  H16 UNL     1      30.348   1.593  53.917  1.00  0.00     0.159 HD
ENDBRANCH   4  16
TORSDOF 4
ENDMDL
MODEL 5
REMARK VINA RESULT:      -7.6      1.162      2.071
REMARK  4 active torsions:
REMARK  status: ('A' for Active; 'I' for Inactive)
REMARK    1  A    between atoms: C7_7  and  C8_8 
REMARK    2  A    between atoms: C8_8  and  O1_9 
REMARK    3  A    between atoms: O1_9  and  C9_10 
REMARK    4  A    between atoms: N1_13  and  C12_14 
ROOT
HETATM    1  C9  UNL     1      23.204   0.274  53.270  1.00  0.00     0.046 C 
HETATM    2  C10 UNL     1      22.434  -0.683  53.797  1.00  0.00     0.025 C 
HETATM    3  C11 UNL     1      20.957  -0.844  53.674  1.00  0.00     0.152 C 
HETATM    4  N1  UNL     1      20.411   0.237  52.858  1.00  0.00    -0.379 N 
HETATM    5  C17 UNL     1      21.098   1.497  53.057  1.00  0.00     0.129 C 
HETATM    6  C18 UNL     1      22.492   1.315  52.452  1.00  0.00     0.084 C 
ENDROOT
BRANCH   1   7
HETATM    7  O1  UNL     1      24.561   0.449  53.366  1.00  0.00    -0.351 OA
BRANCH   7   8
HETATM    8  C8  UNL     1      25.449   0.621  52.279  1.00  0.00     0.214 C 
BRANCH   8   9
HETATM    9  C7  UNL     1      26.829   0.649  52.838  1.00  0.00    -0.028 A 
HETATM   10  C2  UNL     1      27.539  -0.519  52.994  1.00  0.00    -0.054 A 
HETATM   11  C1  UNL     1      26.897  -1.804  52.591  1.00  0.00     0.049 C 
HETATM   12  C3  UNL     1      28.833  -0.463  53.522  1.00  0.00     0.007 A 
HETATM   13  C4  UNL     1      29.362   0.774  53.874  1.00  0.00     0.001 A 
HETATM   14  C5  UNL     1      28.655   1.955  53.720  1.00  0.00     0.001 A 
HETATM   15  C6  UNL     1      27.361   1.882  53.189  1.00  0.00     0.010 A 
ENDBRANCH   8   9
ENDBRANCH   7   8
ENDBRANCH   1   7
BRANCH   4  16
HETATM   16  C12 UNL     1      19.327   0.144  51.945  1.00  0.00     0.025 A 
HETATM   17  C13 UNL     1      18.197  -0.480  52.222  1.00  0.00     0.028 A 
HETATM   18  C14 UNL     1      17.073  -0.587  51.300  1.00  0.00     0.019 A 
HETATM   19  C15 UNL     1      17.149  -0.037  50.095  1.00  0.00     0.083 A 
HETATM   20  N2  UNL     1      18.350   0.640  49.770  1.00  0.00    -0.393 N 
HETATM   21  C16 UNL     1      19.499   0.789  50.618  1.00  0.00     0.175 A 
HETATM   22  H16 UNL     1      18.496   1.107  48.834  1.00  0.00     0.159 HD
ENDBRANCH   4  16
TORSDOF 4
ENDMDL
MODEL 6
REMARK VINA RESULT:      -7.6      3.426      7.585
REMARK  4 active torsions:
REMARK  status: ('A' for Active; 'I' for Inactive)
REMARK    1  A    between atoms: C7_7  and  C8_8 
REMARK    2  A    between atoms: C8_8  and  O1_9 
REMARK    3  A    between atoms: O1_9  and  C9_10 
REMARK    4  A    between atoms: N1_13  and  C12_14 
ROOT
HETATM    1  C9  UNL     1      24.629   2.105  52.950  1.00  0.00     0.046 C 
HETATM    2  C10 UNL     1      24.168   0.886  53.243  1.00  0.00     0.025 C 
HETATM    3  C11 UNL     1      24.872  -0.421  53.101  1.00  0.00     0.152 C 
HETATM    4  N1  UNL     1      26.214  -0.200  52.568  1.00  0.00    -0.379 N 
HETATM    5  C17 UNL     1      26.270   0.885  51.610  1.00  0.00     0.129 C 
HETATM    6  C18 UNL     1      26.032   2.167  52.412  1.00  0.00     0.084 C 
ENDROOT
BRANCH   1   7
HETATM    7  O1  UNL     1      24.007   3.322  53.068  1.00  0.00    -0.351 OA
BRANCH   7   8
HETATM    8  C8  UNL     1      23.747   4.222  52.008  1.00  0.00     0.214 C 
BRANCH   8   9
HETATM    9  C7  UNL     1      23.026   3.461  50.952  1.00  0.00    -0.028 A 
HETATM   10  C2  UNL     1      23.582   3.311  49.701  1.00  0.00    -0.054 A 
HETATM   11  C1  UNL     1      24.915   3.925  49.435  1.00  0.00     0.049 C 
HETATM   12  C3  UNL     1      22.883   2.591  48.727  1.00  0.00     0.007 A 
HETATM   13  C4  UNL     1      21.644   2.048  49.054  1.00  0.00     0.001 A 
HETATM   14  C5  UNL     1      21.077   2.193  50.309  1.00  0.00     0.001 A 
HETATM   15  C6  UNL     1      21.790   2.916  51.273  1.00  0.00     0.010 A 
ENDBRANCH   8   9
ENDBRANCH   7   8
ENDBRANCH   1   7
BRANCH   4  16
HETATM   16  C12 UNL     1      27.388  -0.926  52.902  1.00  0.00     0.025 A 
HETATM   17  C13 UNL     1      28.491  -0.356  53.350  1.00  0.00     0.028 A 
HETATM   18  C14 UNL     1      29.706  -1.083  53.698  1.00  0.00     0.019 A 
HETATM   19  C15 UNL     1      29.748  -2.403  53.572  1.00  0.00     0.083 A 
HETATM   20  N2  UNL     1      28.578  -3.043  53.093  1.00  0.00    -0.393 N 
HETATM   21  C16 UNL     1      27.346  -2.401  52.729  1.00  0.00     0.175 A 
HETATM   22  H16 UNL     1      28.524  -4.089  52.963  1.00  0.00     0.159 HD
ENDBRANCH   4  16
TORSDOF 4
ENDMDL
MODEL 7
REMARK VINA RESULT:      -7.5      4.552      6.238
REMARK  4 active torsions:
REMARK  status: ('A' for Active; 'I' for Inactive)
REMARK    1  A    between atoms: C7_7  and  C8_8 
REMARK    2  A    between atoms: C8_8  and  O1_9 
REMARK    3  A    between atoms: O1_9  and  C9_10 
REMARK    4  A    between atoms: N1_13  and  C12_14 
ROOT
HETATM    1  C9  UNL     1      25.629   1.954  51.527  1.00  0.00     0.046 C 
HETATM    2  C10 UNL     1      26.556   2.414  50.682  1.00  0.00     0.025 C 
HETATM    3  C11 UNL     1      26.515   3.661  49.865  1.00  0.00     0.152 C 
HETATM    4  N1  UNL     1      25.261   4.368  50.111  1.00  0.00    -0.379 N 
HETATM    5  C17 UNL     1      24.140   3.474  50.323  1.00  0.00     0.129 C 
HETATM    6  C18 UNL     1      24.394   2.798  51.673  1.00  0.00     0.084 C 
ENDROOT
BRANCH   1   7
HETATM    7  O1  UNL     1      25.637   0.813  52.289  1.00  0.00    -0.351 OA
BRANCH   7   8
HETATM    8  C8  UNL     1      26.153   0.701  53.602  1.00  0.00     0.214 C 
BRANCH   8   9
HETATM    9  C7  UNL     1      27.489   0.055  53.496  1.00  0.00    -0.028 A 
HETATM   10  C2  UNL     1      28.637   0.803  53.630  1.00  0.00    -0.054 A 
HETATM   11  C1  UNL     1      28.507   2.268  53.884  1.00  0.00     0.049 C 
HETATM   12  C3  UNL     1      29.879   0.170  53.526  1.00  0.00     0.007 A 
HETATM   13  C4  UNL     1      29.916  -1.200  53.288  1.00  0.00     0.001 A 
HETATM   14  C5  UNL     1      28.768  -1.962  53.152  1.00  0.00     0.001 A 
HETATM   15  C6  UNL     1      27.531  -1.313  53.260  1.00  0.00     0.010 A 
ENDBRANCH   8   9
ENDBRANCH   7   8
ENDBRANCH   1   7
BRANCH   4  16
HETATM   16  C12 UNL     1      25.077   5.776  50.152  1.00  0.00     0.025 A 
HETATM   17  C13 UNL     1      25.633   6.605  49.290  1.00  0.00     0.028 A 
HETATM   18  C14 UNL     1      25.458   8.052  49.315  1.00  0.00     0.019 A 
HETATM   19  C15 UNL     1      24.698   8.612  50.248  1.00  0.00     0.083 A 
HETATM   20  N2  UNL     1      24.088   7.746  51.188  1.00  0.00    -0.393 N 
HETATM   21  C16 UNL     1      24.211   6.316  51.232  1.00  0.00     0.175 A 
HETATM   22  H16 UNL     1      23.468   8.105  51.963  1.00  0.00     0.159 HD
ENDBRANCH   4  16
TORSDOF 4
ENDMDL
MODEL 8
REMARK VINA RESULT:      -7.5      4.161      7.535
REMARK  4 active torsions:
REMARK  status: ('A' for Active; 'I' for Inactive)
REMARK    1  A    between atoms: C7_7  and  C8_8 
REMARK    2  A    between atoms: C8_8  and  O1_9 
REMARK    3  A    between atoms: O1_9  and  C9_10 
REMARK    4  A    between atoms: N1_13  and  C12_14 
ROOT
HETATM    1  C9  UNL     1      24.186   2.348  52.366  1.00  0.00     0.046 C 
HETATM    2  C10 UNL     1      25.125   2.760  53.222  1.00  0.00     0.025 C 
HETATM    3  C11 UNL     1      26.132   1.933  53.947  1.00  0.00     0.152 C 
HETATM    4  N1  UNL     1      25.961   0.527  53.592  1.00  0.00    -0.379 N 
HETATM    5  C17 UNL     1      24.575   0.160  53.386  1.00  0.00     0.129 C 
HETATM    6  C18 UNL     1      24.139   0.868  52.101  1.00  0.00     0.084 C 
ENDROOT
BRANCH   1   7
HETATM    7  O1  UNL     1      23.247   3.081  51.686  1.00  0.00    -0.351 OA
BRANCH   7   8
HETATM    8  C8  UNL     1      23.336   3.485  50.333  1.00  0.00     0.214 C 
BRANCH   8   9
HETATM    9  C7  UNL     1      23.987   4.823  50.315  1.00  0.00    -0.028 A 
HETATM   10  C2  UNL     1      25.287   4.959  49.882  1.00  0.00    -0.054 A 
HETATM   11  C1  UNL     1      26.020   3.740  49.433  1.00  0.00     0.049 C 
HETATM   12  C3  UNL     1      25.873   6.228  49.876  1.00  0.00     0.007 A 
HETATM   13  C4  UNL     1      25.123   7.316  50.310  1.00  0.00     0.001 A 
HETATM   14  C5  UNL     1      23.815   7.190  50.746  1.00  0.00     0.001 A 
HETATM   15  C6  UNL     1      23.242   5.913  50.745  1.00  0.00     0.010 A 
ENDBRANCH   8   9
ENDBRANCH   7   8
ENDBRANCH   1   7
BRANCH   4  16
HETATM   16  C12 UNL     1      26.991  -0.440  53.444  1.00  0.00     0.025 A 
HETATM   17  C13 UNL     1      28.256  -0.203  53.737  1.00  0.00     0.028 A 
HETATM   18  C14 UNL     1      29.328  -1.180  53.593  1.00  0.00     0.019 A 
HETATM   19  C15 UNL     1      29.058  -2.398  53.140  1.00  0.00     0.083 A 
HETATM   20  N2  UNL     1      27.708  -2.681  52.817  1.00  0.00    -0.393 N 
HETATM   21  C16 UNL     1      26.598  -1.777  52.930  1.00  0.00     0.175 A 
HETATM   22  H16 UNL     1      27.404  -3.624  52.451  1.00  0.00     0.159 HD
ENDBRANCH   4  16
TORSDOF 4
ENDMDL
MODEL 9
REMARK VINA RESULT:      -7.4      4.297      5.491
REMARK  4 active torsions:
REMARK  status: ('A' for Active; 'I' for Inactive)
REMARK    1  A    between atoms: C7_7  and  C8_8 
REMARK    2  A    between atoms: C8_8  and  O1_9 
REMARK    3  A    between atoms: O1_9  and  C9_10 
REMARK    4  A    between atoms: N1_13  and  C12_14 
ROOT
HETATM    1  C9  UNL     1      26.441   2.605  51.353  1.00  0.00     0.046 C 
HETATM    2  C10 UNL     1      26.412   3.084  50.106  1.00  0.00     0.025 C 
HETATM    3  C11 UNL     1      25.308   3.830  49.435  1.00  0.00     0.152 C 
HETATM    4  N1  UNL     1      24.188   3.985  50.359  1.00  0.00    -0.379 N 
HETATM    5  C17 UNL     1      24.011   2.841  51.230  1.00  0.00     0.129 C 
HETATM    6  C18 UNL     1      25.209   2.848  52.181  1.00  0.00     0.084 C 
ENDROOT
BRANCH   1   7
HETATM    7  O1  UNL     1      27.438   1.917  51.997  1.00  0.00    -0.351 OA
BRANCH   7   8
HETATM    8  C8  UNL     1      27.367   1.400  53.312  1.00  0.00     0.214 C 
BRANCH   8   9
HETATM    9  C7  UNL     1      28.003   0.055  53.291  1.00  0.00    -0.028 A 
HETATM   10  C2  UNL     1      27.263  -1.060  52.968  1.00  0.00    -0.054 A 
HETATM   11  C1  UNL     1      25.818  -0.886  52.639  1.00  0.00     0.049 C 
HETATM   12  C3  UNL     1      27.887  -2.311  52.956  1.00  0.00     0.007 A 
HETATM   13  C4  UNL     1      29.238  -2.391  53.273  1.00  0.00     0.001 A 
HETATM   14  C5  UNL     1      29.991  -1.276  53.600  1.00  0.00     0.001 A 
HETATM   15  C6  UNL     1      29.353  -0.029  53.606  1.00  0.00     0.010 A 
ENDBRANCH   8   9
ENDBRANCH   7   8
ENDBRANCH   1   7
BRANCH   4  16
HETATM   16  C12 UNL     1      23.318   5.104  50.454  1.00  0.00     0.025 A 
HETATM   17  C13 UNL     1      22.133   5.153  49.876  1.00  0.00     0.028 A 
HETATM   18  C14 UNL     1      21.226   6.292  49.962  1.00  0.00     0.019 A 
HETATM   19  C15 UNL     1      21.576   7.367  50.655  1.00  0.00     0.083 A 
HETATM   20  N2  UNL     1      22.843   7.343  51.288  1.00  0.00    -0.393 N 
HETATM   21  C16 UNL     1      23.791   6.265  51.251  1.00  0.00     0.175 A 
HETATM   22  H16 UNL     1      23.201   8.155  51.860  1.00  0.00     0.159 HD
ENDBRANCH   4  16
TORSDOF 4
ENDMDL
