MODEL 1
REMARK VINA RESULT:      -7.7      0.000      0.000
REMARK  5 active torsions:
REMARK  status: ('A' for Active; 'I' for Inactive)
REMARK    1  A    between atoms: C2_2  and  N1_3 
REMARK    2  A    between atoms: C2_2  and  C13_18 
REMARK    3  A    between atoms: N1_3  and  C3_4 
REMARK    4  A    between atoms: C5_9  and  N4_10 
REMARK    5  A    between atoms: N4_10  and  C6_11 
ROOT
HETATM    1  C3  UNL     1      23.596   3.609  50.789  1.00  0.00     0.237 A 
HETATM    2  S1  UNL     1      23.350   4.925  49.587  1.00  0.00     0.005 SA
HETATM    3  N2  UNL     1      21.807   5.671  49.880  1.00  0.00    -0.207 NA
HETATM    4  C4  UNL     1      21.039   5.283  50.817  1.00  0.00     0.243 A 
HETATM    5  N3  UNL     1      21.320   4.226  51.725  1.00  0.00    -0.225 NA
HETATM    6  C5  UNL     1      22.415   3.548  51.672  1.00  0.00     0.136 A 
ENDROOT
BRANCH   1   7
HETATM    7  N1  UNL     1      24.812   3.809  51.558  1.00  0.00    -0.369 N 
HETATM    8  H3  UNL     1      25.216   4.452  52.262  1.00  0.00     0.161 HD
BRANCH   7   9
HETATM    9  C2  UNL     1      25.824   2.838  51.314  1.00  0.00     0.030 C 
HETATM   10  C1  UNL     1      26.446   3.000  50.167  1.00  0.00     0.043 C 
BRANCH   9  11
HETATM   11  C13 UNL     1      26.191   1.743  52.203  1.00  0.00    -0.011 A 
HETATM   12  C14 UNL     1      26.107   2.014  53.552  1.00  0.00     0.013 A 
HETATM   13  C15 UNL     1      26.459   0.967  54.397  1.00  0.00     0.001 A 
HETATM   14  C16 UNL     1      26.865  -0.264  53.923  1.00  0.00     0.000 A 
HETATM   15  C17 UNL     1      26.940  -0.505  52.567  1.00  0.00     0.001 A 
HETATM   16  C18 UNL     1      26.594   0.526  51.712  1.00  0.00     0.013 A 
ENDBRANCH   9  11
ENDBRANCH   7   9
ENDBRANCH   1   7
BRANCH   6  17
HETATM   17  N4  UNL     1      22.491   2.541  52.671  1.00  0.00    -0.368 N 
HETATM   18  H6  UNL     1      22.994   2.694  53.588  1.00  0.00     0.161 HD
BRANCH  17  19
HETATM   19  C6  UNL     1      21.871   1.219  52.485  1.00  0.00     0.109 C 
HETATM   20  C7  UNL     1      22.915   0.213  52.684  1.00  0.00    -0.005 C 
HETATM   21  C8  UNL     1      23.293  -0.759  53.538  1.00  0.00    -0.025 C 
HETATM   22  C9  UNL     1      22.482  -1.050  54.761  1.00  0.00     0.053 C 
HETATM   23  C10 UNL     1      21.060  -1.288  54.310  1.00  0.00    -0.027 C 
HETATM   24  C11 UNL     1      20.354  -0.339  53.706  1.00  0.00    -0.028 C 
HETATM   25  C12 UNL     1      20.644   1.068  53.315  1.00  0.00     0.056 C 
ENDBRANCH  17  19
ENDBRANCH   6  17
TORSDOF 5
ENDMDL
MODEL 2
REMARK VINA RESULT:      -7.6      1.716      2.457
REMARK  5 active torsions:
REMARK  status: ('A' for Active; 'I' for Inactive)
REMARK    1  A    between atoms: C2_2  and  N1_3 
REMARK    2  A    between atoms: C2_2  and  C13_18 
REMARK    3  A    between atoms: N1_3  and  C3_4 
REMARK    4  A    between atoms: C5_9  and  N4_10 
REMARK    5  A    between atoms: N4_10  and  C6_11 
ROOT
HETATM    1  C3  UNL     1      25.641   2.295  51.787  1.00  0.00     0.237 A 
HETATM    2  S1  UNL     1      26.612   3.140  50.530  1.00  0.00     0.005 SA
HETATM    3  N2  UNL     1      25.609   4.329  49.752  1.00  0.00    -0.207 NA
HETATM    4  C4  UNL     1      24.393   4.502  50.082  1.00  0.00     0.243 A 
HETATM    5  N3  UNL     1      23.705   3.781  51.096  1.00  0.00    -0.225 NA
HETATM    6  C5  UNL     1      24.276   2.856  51.789  1.00  0.00     0.136 A 
ENDROOT
BRANCH   1   7
HETATM    7  N1  UNL     1      26.253   2.406  53.100  1.00  0.00    -0.369 N 
HETATM    8  H3  UNL     1      26.085   2.840  54.025  1.00  0.00     0.161 HD
BRANCH   7   9
HETATM    9  C2  UNL     1      27.492   1.719  53.228  1.00  0.00     0.030 C 
HETATM   10  C1  UNL     1      28.508   2.507  53.503  1.00  0.00     0.043 C 
BRANCH   9  11
HETATM   11  C13 UNL     1      27.692   0.282  53.085  1.00  0.00    -0.011 A 
HETATM   12  C14 UNL     1      28.922  -0.193  53.482  1.00  0.00     0.013 A 
HETATM   13  C15 UNL     1      29.110  -1.564  53.344  1.00  0.00     0.001 A 
HETATM   14  C16 UNL     1      28.132  -2.399  52.841  1.00  0.00     0.000 A 
HETATM   15  C17 UNL     1      26.909  -1.894  52.451  1.00  0.00     0.001 A 
HETATM   16  C18 UNL     1      26.706  -0.532  52.582  1.00  0.00     0.013 A 
ENDBRANCH   9  11
ENDBRANCH   7   9
ENDBRANCH   1   7
BRANCH   6  17
HETATM   17  N4  UNL     1      23.409   2.266  52.746  1.00  0.00    -0.368 N 
HETATM   18  H6  UNL     1      23.326   2.634  53.733  1.00  0.00     0.161 HD
BRANCH  17  19
HETATM   19  C6  UNL     1      22.572   1.101  52.416  1.00  0.00     0.109 C 
HETATM   20  C7  UNL     1      23.163  -0.064  53.076  1.00  0.00    -0.005 C 
HETATM   21  C8  UNL     1      22.929  -0.943  54.070  1.00  0.00    -0.025 C 
HETATM   22  C9  UNL     1      21.681  -0.846  54.889  1.00  0.00     0.053 C 
HETATM   23  C10 UNL     1      20.514  -0.834  53.930  1.00  0.00    -0.027 C 
HETATM   24  C11 UNL     1      20.358   0.136  53.036  1.00  0.00    -0.028 C 
HETATM   25  C12 UNL     1      21.134   1.361  52.701  1.00  0.00     0.056 C 
ENDBRANCH  17  19
ENDBRANCH   6  17
TORSDOF 5
ENDMDL
MODEL 3
REMARK VINA RESULT:      -7.4      2.654      5.652
REMARK  5 active torsions:
REMARK  status: ('A' for Active; 'I' for Inactive)
REMARK    1  A    between atoms: C2_2  and  N1_3 
REMARK    2  A    between atoms: C2_2  and  C13_18 
REMARK    3  A    between atoms: N1_3  and  C3_4 
REMARK    4  A    between atoms: C5_9  and  N4_10 
REMARK    5  A    between atoms: N4_10  and  C6_11 
ROOT
HETATM    1  C3  UNL     1      24.637   3.173  50.754  1.00  0.00     0.237 A 
HETATM    2  S1  UNL     1      23.000   3.264  50.014  1.00  0.00     0.005 SA
HETATM    3  N2  UNL     1      21.813   2.894  51.231  1.00  0.00    -0.207 NA
HETATM    4  C4  UNL     1      22.142   2.614  52.427  1.00  0.00     0.243 A 
HETATM    5  N3  UNL     1      23.473   2.566  52.924  1.00  0.00    -0.225 NA
HETATM    6  C5  UNL     1      24.495   2.810  52.178  1.00  0.00     0.136 A 
ENDROOT
BRANCH   1   7
HETATM    7  N1  UNL     1      25.361   4.424  50.605  1.00  0.00    -0.369 N 
HETATM    8  H3  UNL     1      25.426   5.365  51.032  1.00  0.00     0.161 HD
BRANCH   7   9
HETATM    9  C2  UNL     1      26.309   4.428  49.544  1.00  0.00     0.030 C 
HETATM   10  C1  UNL     1      26.789   3.237  49.259  1.00  0.00     0.043 C 
BRANCH   9  11
HETATM   11  C13 UNL     1      26.753   5.598  48.797  1.00  0.00    -0.011 A 
HETATM   12  C14 UNL     1      28.082   5.610  48.438  1.00  0.00     0.013 A 
HETATM   13  C15 UNL     1      28.503   6.728  47.725  1.00  0.00     0.001 A 
HETATM   14  C16 UNL     1      27.649   7.761  47.397  1.00  0.00     0.000 A 
HETATM   15  C17 UNL     1      26.321   7.722  47.771  1.00  0.00     0.001 A 
HETATM   16  C18 UNL     1      25.886   6.616  48.480  1.00  0.00     0.013 A 
ENDBRANCH   9  11
ENDBRANCH   7   9
ENDBRANCH   1   7
BRANCH   6  17
HETATM   17  N4  UNL     1      25.727   2.708  52.875  1.00  0.00    -0.368 N 
HETATM   18  H6  UNL     1      25.935   3.279  53.740  1.00  0.00     0.161 HD
BRANCH  17  19
HETATM   19  C6  UNL     1      26.794   1.796  52.429  1.00  0.00     0.109 C 
HETATM   20  C7  UNL     1      28.031   2.211  53.092  1.00  0.00    -0.005 C 
HETATM   21  C8  UNL     1      28.912   1.806  54.028  1.00  0.00    -0.025 C 
HETATM   22  C9  UNL     1      28.716   0.505  54.740  1.00  0.00     0.053 C 
HETATM   23  C10 UNL     1      28.561  -0.565  53.685  1.00  0.00    -0.027 C 
HETATM   24  C11 UNL     1      27.554  -0.547  52.819  1.00  0.00    -0.028 C 
HETATM   25  C12 UNL     1      26.402   0.370  52.600  1.00  0.00     0.056 C 
ENDBRANCH  17  19
ENDBRANCH   6  17
TORSDOF 5
ENDMDL
MODEL 4
REMARK VINA RESULT:      -7.3      2.749      4.958
REMARK  5 active torsions:
REMARK  status: ('A' for Active; 'I' for Inactive)
REMARK    1  A    between atoms: C2_2  and  N1_3 
REMARK    2  A    between atoms: C2_2  and  C13_18 
REMARK    3  A    between atoms: N1_3  and  C3_4 
REMARK    4  A    between atoms: C5_9  and  N4_10 
REMARK    5  A    between atoms: N4_10  and  C6_11 
ROOT
HETATM    1  C3  UNL     1      26.733   1.648  52.984  1.00  0.00     0.237 A 
HETATM    2  S1  UNL     1      28.321   2.355  53.449  1.00  0.00     0.005 SA
HETATM    3  N2  UNL     1      29.144   1.242  54.502  1.00  0.00    -0.207 NA
HETATM    4  C4  UNL     1      28.629   0.128  54.837  1.00  0.00     0.243 A 
HETATM    5  N3  UNL     1      27.359  -0.350  54.416  1.00  0.00    -0.225 NA
HETATM    6  C5  UNL     1      26.593   0.329  53.632  1.00  0.00     0.136 A 
ENDROOT
BRANCH   1   7
HETATM    7  N1  UNL     1      26.600   1.536  51.541  1.00  0.00    -0.369 N 
HETATM    8  H3  UNL     1      26.847   0.898  50.764  1.00  0.00     0.161 HD
BRANCH   7   9
HETATM    9  C2  UNL     1      25.918   2.624  50.931  1.00  0.00     0.030 C 
HETATM   10  C1  UNL     1      26.693   3.387  50.191  1.00  0.00     0.043 C 
BRANCH   9  11
HETATM   11  C13 UNL     1      24.498   2.927  51.064  1.00  0.00    -0.011 A 
HETATM   12  C14 UNL     1      24.151   3.693  52.156  1.00  0.00     0.013 A 
HETATM   13  C15 UNL     1      22.796   3.980  52.281  1.00  0.00     0.001 A 
HETATM   14  C16 UNL     1      21.857   3.531  51.374  1.00  0.00     0.000 A 
HETATM   15  C17 UNL     1      22.235   2.766  50.291  1.00  0.00     0.001 A 
HETATM   16  C18 UNL     1      23.579   2.471  50.151  1.00  0.00     0.013 A 
ENDBRANCH   9  11
ENDBRANCH   7   9
ENDBRANCH   1   7
BRANCH   6  17
HETATM   17  N4  UNL     1      25.373  -0.334  53.339  1.00  0.00    -0.368 N 
HETATM   18  H6  UNL     1      25.288  -1.038  52.555  1.00  0.00     0.161 HD
BRANCH  17  19
HETATM   19  C6  UNL     1      24.148  -0.076  54.113  1.00  0.00     0.109 C 
HETATM   20  C7  UNL     1      23.116   0.358  53.169  1.00  0.00    -0.005 C 
HETATM   21  C8  UNL     1      21.955  -0.047  52.618  1.00  0.00    -0.025 C 
HETATM   22  C9  UNL     1      21.366  -1.373  52.980  1.00  0.00     0.053 C 
HETATM   23  C10 UNL     1      21.263  -1.422  54.487  1.00  0.00    -0.027 C 
HETATM   24  C11 UNL     1      22.340  -1.355  55.261  1.00  0.00    -0.028 C 
HETATM   25  C12 UNL     1      23.798  -1.230  54.986  1.00  0.00     0.056 C 
ENDBRANCH  17  19
ENDBRANCH   6  17
TORSDOF 5
ENDMDL
MODEL 5
REMARK VINA RESULT:      -7.3      1.665      5.080
REMARK  5 active torsions:
REMARK  status: ('A' for Active; 'I' for Inactive)
REMARK    1  A    between atoms: C2_2  and  N1_3 
REMARK    2  A    between atoms: C2_2  and  C13_18 
REMARK    3  A    between atoms: N1_3  and  C3_4 
REMARK    4  A    between atoms: C5_9  and  N4_10 
REMARK    5  A    between atoms: N4_10  and  C6_11 
ROOT
HETATM    1  C3  UNL     1      24.670   3.011  51.420  1.00  0.00     0.237 A 
HETATM    2  S1  UNL     1      24.183   4.625  50.792  1.00  0.00     0.005 SA
HETATM    3  N2  UNL     1      25.435   5.218  49.740  1.00  0.00    -0.207 NA
HETATM    4  C4  UNL     1      26.492   4.549  49.510  1.00  0.00     0.243 A 
HETATM    5  N3  UNL     1      26.792   3.272  50.055  1.00  0.00    -0.225 NA
HETATM    6  C5  UNL     1      25.990   2.662  50.859  1.00  0.00     0.136 A 
ENDROOT
BRANCH   1   7
HETATM    7  N1  UNL     1      23.682   1.994  51.101  1.00  0.00    -0.369 N 
HETATM    8  H3  UNL     1      23.467   1.291  50.372  1.00  0.00     0.161 HD
BRANCH   7   9
HETATM    9  C2  UNL     1      22.642   1.867  52.063  1.00  0.00     0.030 C 
HETATM   10  C1  UNL     1      21.730   2.812  51.984  1.00  0.00     0.043 C 
BRANCH   9  11
HETATM   11  C13 UNL     1      22.530   0.818  53.069  1.00  0.00    -0.011 A 
HETATM   12  C14 UNL     1      21.271   0.625  53.594  1.00  0.00     0.013 A 
HETATM   13  C15 UNL     1      21.167  -0.377  54.553  1.00  0.00     0.001 A 
HETATM   14  C16 UNL     1      22.251  -1.130  54.957  1.00  0.00     0.000 A 
HETATM   15  C17 UNL     1      23.500  -0.914  54.414  1.00  0.00     0.001 A 
HETATM   16  C18 UNL     1      23.621   0.079  53.458  1.00  0.00     0.013 A 
ENDBRANCH   9  11
ENDBRANCH   7   9
ENDBRANCH   1   7
BRANCH   6  17
HETATM   17  N4  UNL     1      26.483   1.400  51.283  1.00  0.00    -0.368 N 
HETATM   18  H6  UNL     1      26.605   0.589  50.617  1.00  0.00     0.161 HD
BRANCH  17  19
HETATM   19  C6  UNL     1      26.856   1.148  52.685  1.00  0.00     0.109 C 
HETATM   20  C7  UNL     1      26.942  -0.303  52.862  1.00  0.00    -0.005 C 
HETATM   21  C8  UNL     1      27.837  -1.286  53.083  1.00  0.00    -0.025 C 
HETATM   22  C9  UNL     1      29.292  -0.968  53.224  1.00  0.00     0.053 C 
HETATM   23  C10 UNL     1      29.418   0.090  54.295  1.00  0.00    -0.027 C 
HETATM   24  C11 UNL     1      28.866   1.290  54.155  1.00  0.00    -0.028 C 
HETATM   25  C12 UNL     1      28.058   1.932  53.083  1.00  0.00     0.056 C 
ENDBRANCH  17  19
ENDBRANCH   6  17
TORSDOF 5
ENDMDL
MODEL 6
REMARK VINA RESULT:      -7.2      2.710      4.934
REMARK  5 active torsions:
REMARK  status: ('A' for Active; 'I' for Inactive)
REMARK    1  A    between atoms: C2_2  and  N1_3 
REMARK    2  A    between atoms: C2_2  and  C13_18 
REMARK    3  A    between atoms: N1_3  and  C3_4 
REMARK    4  A    between atoms: C5_9  and  N4_10 
REMARK    5  A    between atoms: N4_10  and  C6_11 
ROOT
HETATM    1  C3  UNL     1      24.372   4.517  50.304  1.00  0.00     0.237 A 
HETATM    2  S1  UNL     1      23.133   5.581  49.549  1.00  0.00     0.005 SA
HETATM    3  N2  UNL     1      21.782   5.726  50.635  1.00  0.00    -0.207 NA
HETATM    4  C4  UNL     1      21.759   5.137  51.762  1.00  0.00     0.243 A 
HETATM    5  N3  UNL     1      22.793   4.309  52.278  1.00  0.00    -0.225 NA
HETATM    6  C5  UNL     1      23.879   4.077  51.624  1.00  0.00     0.136 A 
ENDROOT
BRANCH   1   7
HETATM    7  N1  UNL     1      25.654   5.191  50.424  1.00  0.00    -0.369 N 
HETATM    8  H3  UNL     1      26.148   5.863  51.038  1.00  0.00     0.161 HD
BRANCH   7   9
HETATM    9  C2  UNL     1      26.583   4.868  49.397  1.00  0.00     0.030 C 
HETATM   10  C1  UNL     1      26.749   3.575  49.222  1.00  0.00     0.043 C 
BRANCH   9  11
HETATM   11  C13 UNL     1      27.317   5.822  48.575  1.00  0.00    -0.011 A 
HETATM   12  C14 UNL     1      26.587   6.893  48.107  1.00  0.00     0.013 A 
HETATM   13  C15 UNL     1      27.290   7.802  47.323  1.00  0.00     0.001 A 
HETATM   14  C16 UNL     1      28.629   7.647  47.030  1.00  0.00     0.000 A 
HETATM   15  C17 UNL     1      29.334   6.564  47.513  1.00  0.00     0.001 A 
HETATM   16  C18 UNL     1      28.650   5.650  48.294  1.00  0.00     0.013 A 
ENDBRANCH   9  11
ENDBRANCH   7   9
ENDBRANCH   1   7
BRANCH   6  17
HETATM   17  N4  UNL     1      24.776   3.226  52.322  1.00  0.00    -0.368 N 
HETATM   18  H6  UNL     1      25.452   3.594  53.047  1.00  0.00     0.161 HD
BRANCH  17  19
HETATM   19  C6  UNL     1      24.815   1.776  52.075  1.00  0.00     0.109 C 
HETATM   20  C7  UNL     1      26.222   1.391  51.942  1.00  0.00    -0.005 C 
HETATM   21  C8  UNL     1      27.188   0.696  52.574  1.00  0.00    -0.025 C 
HETATM   22  C9  UNL     1      26.904   0.012  53.873  1.00  0.00     0.053 C 
HETATM   23  C10 UNL     1      25.694  -0.868  53.662  1.00  0.00    -0.027 C 
HETATM   24  C11 UNL     1      24.512  -0.358  53.331  1.00  0.00    -0.028 C 
HETATM   25  C12 UNL     1      24.021   1.025  53.087  1.00  0.00     0.056 C 
ENDBRANCH  17  19
ENDBRANCH   6  17
TORSDOF 5
ENDMDL
MODEL 7
REMARK VINA RESULT:      -7.2      1.442      4.789
REMARK  5 active torsions:
REMARK  status: ('A' for Active; 'I' for Inactive)
REMARK    1  A    between atoms: C2_2  and  N1_3 
REMARK    2  A    between atoms: C2_2  and  C13_18 
REMARK    3  A    between atoms: N1_3  and  C3_4 
REMARK    4  A    between atoms: C5_9  and  N4_10 
REMARK    5  A    between atoms: N4_10  and  C6_11 
ROOT
HETATM    1  C3  UNL     1      23.655   3.557  51.149  1.00  0.00     0.237 A 
HETATM    2  S1  UNL     1      23.103   4.544  49.749  1.00  0.00     0.005 SA
HETATM    3  N2  UNL     1      24.497   5.075  48.854  1.00  0.00    -0.207 NA
HETATM    4  C4  UNL     1      25.680   4.768  49.206  1.00  0.00     0.243 A 
HETATM    5  N3  UNL     1      26.021   3.977  50.336  1.00  0.00    -0.225 NA
HETATM    6  C5  UNL     1      25.129   3.488  51.128  1.00  0.00     0.136 A 
ENDROOT
BRANCH   1   7
HETATM    7  N1  UNL     1      23.070   2.227  51.129  1.00  0.00    -0.369 N 
HETATM    8  H3  UNL     1      23.107   1.347  50.586  1.00  0.00     0.161 HD
BRANCH   7   9
HETATM    9  C2  UNL     1      22.130   1.987  52.169  1.00  0.00     0.030 C 
HETATM   10  C1  UNL     1      21.253   2.955  52.323  1.00  0.00     0.043 C 
BRANCH   9  11
HETATM   11  C13 UNL     1      22.079   0.805  53.020  1.00  0.00    -0.011 A 
HETATM   12  C14 UNL     1      20.820   0.319  53.295  1.00  0.00     0.013 A 
HETATM   13  C15 UNL     1      20.776  -0.809  54.108  1.00  0.00     0.001 A 
HETATM   14  C16 UNL     1      21.914  -1.406  54.610  1.00  0.00     0.000 A 
HETATM   15  C17 UNL     1      23.162  -0.896  54.318  1.00  0.00     0.001 A 
HETATM   16  C18 UNL     1      23.225   0.226  53.510  1.00  0.00     0.013 A 
ENDBRANCH   9  11
ENDBRANCH   7   9
ENDBRANCH   1   7
BRANCH   6  17
HETATM   17  N4  UNL     1      25.688   2.730  52.191  1.00  0.00    -0.368 N 
HETATM   18  H6  UNL     1      25.354   2.828  53.189  1.00  0.00     0.161 HD
BRANCH  17  19
HETATM   19  C6  UNL     1      26.770   1.759  51.962  1.00  0.00     0.109 C 
HETATM   20  C7  UNL     1      27.880   2.123  52.843  1.00  0.00    -0.005 C 
HETATM   21  C8  UNL     1      28.547   1.692  53.932  1.00  0.00    -0.025 C 
HETATM   22  C9  UNL     1      28.154   0.415  54.605  1.00  0.00     0.053 C 
HETATM   23  C10 UNL     1      28.144  -0.665  53.548  1.00  0.00    -0.027 C 
HETATM   24  C11 UNL     1      27.320  -0.612  52.507  1.00  0.00    -0.028 C 
HETATM   25  C12 UNL     1      26.279   0.357  52.068  1.00  0.00     0.056 C 
ENDBRANCH  17  19
ENDBRANCH   6  17
TORSDOF 5
ENDMDL
MODEL 8
REMARK VINA RESULT:      -7.0      2.606      5.077
REMARK  5 active torsions:
REMARK  status: ('A' for Active; 'I' for Inactive)
REMARK    1  A    between atoms: C2_2  and  N1_3 
REMARK    2  A    between atoms: C2_2  and  C13_18 
REMARK    3  A    between atoms: N1_3  and  C3_4 
REMARK    4  A    between atoms: C5_9  and  N4_10 
REMARK    5  A    between atoms: N4_10  and  C6_11 
ROOT
HETATM    1  C3  UNL     1      25.945   1.938  52.573  1.00  0.00     0.237 A 
HETATM    2  S1  UNL     1      27.620   2.245  53.154  1.00  0.00     0.005 SA
HETATM    3  N2  UNL     1      28.159   0.866  54.066  1.00  0.00    -0.207 NA
HETATM    4  C4  UNL     1      27.419  -0.153  54.244  1.00  0.00     0.243 A 
HETATM    5  N3  UNL     1      26.098  -0.308  53.742  1.00  0.00    -0.225 NA
HETATM    6  C5  UNL     1      25.518   0.604  53.041  1.00  0.00     0.136 A 
ENDROOT
BRANCH   1   7
HETATM    7  N1  UNL     1      25.855   2.036  51.126  1.00  0.00    -0.369 N 
HETATM    8  H3  UNL     1      26.089   1.498  50.273  1.00  0.00     0.161 HD
BRANCH   7   9
HETATM    9  C2  UNL     1      25.259   3.240  50.657  1.00  0.00     0.030 C 
HETATM   10  C1  UNL     1      23.980   3.343  50.945  1.00  0.00     0.043 C 
BRANCH   9  11
HETATM   11  C13 UNL     1      25.938   4.301  49.925  1.00  0.00    -0.011 A 
HETATM   12  C14 UNL     1      27.080   3.928  49.251  1.00  0.00     0.013 A 
HETATM   13  C15 UNL     1      27.725   4.943  48.553  1.00  0.00     0.001 A 
HETATM   14  C16 UNL     1      27.256   6.241  48.532  1.00  0.00     0.000 A 
HETATM   15  C17 UNL     1      26.109   6.586  49.217  1.00  0.00     0.001 A 
HETATM   16  C18 UNL     1      25.455   5.587  49.917  1.00  0.00     0.013 A 
ENDBRANCH   9  11
ENDBRANCH   7   9
ENDBRANCH   1   7
BRANCH   6  17
HETATM   17  N4  UNL     1      24.204   0.245  52.642  1.00  0.00    -0.368 N 
HETATM   18  H6  UNL     1      23.972  -0.032  51.648  1.00  0.00     0.161 HD
BRANCH  17  19
HETATM   19  C6  UNL     1      23.082   0.237  53.595  1.00  0.00     0.109 C 
HETATM   20  C7  UNL     1      22.110   1.232  53.137  1.00  0.00    -0.005 C 
HETATM   21  C8  UNL     1      20.872   1.334  52.615  1.00  0.00    -0.025 C 
HETATM   22  C9  UNL     1      20.062   0.106  52.343  1.00  0.00     0.053 C 
HETATM   23  C10 UNL     1      20.014  -0.693  53.625  1.00  0.00    -0.027 C 
HETATM   24  C11 UNL     1      21.117  -1.183  54.180  1.00  0.00    -0.028 C 
HETATM   25  C12 UNL     1      22.559  -1.139  53.815  1.00  0.00     0.056 C 
ENDBRANCH  17  19
ENDBRANCH   6  17
TORSDOF 5
ENDMDL
MODEL 9
REMARK VINA RESULT:      -6.9      1.852      2.915
REMARK  5 active torsions:
REMARK  status: ('A' for Active; 'I' for Inactive)
REMARK    1  A    between atoms: C2_2  and  N1_3 
REMARK    2  A    between atoms: C2_2  and  C13_18 
REMARK    3  A    between atoms: N1_3  and  C3_4 
REMARK    4  A    between atoms: C5_9  and  N4_10 
REMARK    5  A    between atoms: N4_10  and  C6_11 
ROOT
HETATM    1  C3  UNL     1      25.213   2.049  51.867  1.00  0.00     0.237 A 
HETATM    2  S1  UNL     1      26.509   2.815  50.882  1.00  0.00     0.005 SA
HETATM    3  N2  UNL     1      25.868   4.243  50.124  1.00  0.00    -0.207 NA
HETATM    4  C4  UNL     1      24.663   4.611  50.295  1.00  0.00     0.243 A 
HETATM    5  N3  UNL     1      23.703   3.937  51.098  1.00  0.00    -0.225 NA
HETATM    6  C5  UNL     1      23.983   2.857  51.743  1.00  0.00     0.136 A 
ENDROOT
BRANCH   1   7
HETATM    7  N1  UNL     1      25.609   1.913  53.259  1.00  0.00    -0.369 N 
HETATM    8  H3  UNL     1      25.684   2.473  54.126  1.00  0.00     0.161 HD
BRANCH   7   9
HETATM    9  C2  UNL     1      26.048   0.608  53.616  1.00  0.00     0.030 C 
HETATM   10  C1  UNL     1      25.078  -0.183  54.023  1.00  0.00     0.043 C 
BRANCH   9  11
HETATM   11  C13 UNL     1      27.420   0.121  53.561  1.00  0.00    -0.011 A 
HETATM   12  C14 UNL     1      27.575  -1.191  53.171  1.00  0.00     0.013 A 
HETATM   13  C15 UNL     1      28.886  -1.651  53.119  1.00  0.00     0.001 A 
HETATM   14  C16 UNL     1      29.965  -0.852  53.438  1.00  0.00     0.000 A 
HETATM   15  C17 UNL     1      29.780   0.458  53.826  1.00  0.00     0.001 A 
HETATM   16  C18 UNL     1      28.481   0.933  53.882  1.00  0.00     0.013 A 
ENDBRANCH   9  11
ENDBRANCH   7   9
ENDBRANCH   1   7
BRANCH   6  17
HETATM   17  N4  UNL     1      22.882   2.351  52.482  1.00  0.00    -0.368 N 
HETATM   18  H6  UNL     1      22.756   2.548  53.513  1.00  0.00     0.161 HD
BRANCH  17  19
HETATM   19  C6  UNL     1      21.846   1.517  51.850  1.00  0.00     0.109 C 
HETATM   20  C7  UNL     1      22.096   0.131  52.248  1.00  0.00    -0.005 C 
HETATM   21  C8  UNL     1      21.576  -0.861  52.998  1.00  0.00    -0.025 C 
HETATM   22  C9  UNL     1      20.306  -0.649  53.758  1.00  0.00     0.053 C 
HETATM   23  C10 UNL     1      19.271  -0.154  52.774  1.00  0.00    -0.027 C 
HETATM   24  C11 UNL     1      19.422   0.995  52.125  1.00  0.00    -0.028 C 
HETATM   25  C12 UNL     1      20.479   2.043  52.122  1.00  0.00     0.056 C 
ENDBRANCH  17  19
ENDBRANCH   6  17
TORSDOF 5
ENDMDL
