MODEL 1
REMARK VINA RESULT:      -7.4      0.000      0.000
REMARK  8 active torsions:
REMARK  status: ('A' for Active; 'I' for Inactive)
REMARK    1  A    between atoms: C2_2  and  C3_3 
REMARK    2  A    between atoms: C2_2  and  C9_10 
REMARK    3  A    between atoms: C3_3  and  N1_4 
REMARK    4  A    between atoms: C9_10  and  C10_12 
REMARK    5  A    between atoms: C13_16  and  C14_17 
REMARK    6  A    between atoms: C14_17  and  O2_18 
REMARK    7  A    between atoms: O2_18  and  C15_19 
REMARK    8  A    between atoms: C15_19  and  C16_20 
ROOT
HETATM    1  C10 UNL     1      21.109   0.778  50.718  1.00  0.00     0.021 A 
HETATM    2  C11 UNL     1      19.783   0.723  50.634  1.00  0.00     0.060 A 
HETATM    3  S1  UNL     1      18.679   0.122  51.897  1.00  0.00    -0.136 SA
HETATM    4  C12 UNL     1      19.687  -0.431  53.270  1.00  0.00     0.115 A 
HETATM    5  C13 UNL     1      21.115  -0.219  53.008  1.00  0.00    -0.046 A 
HETATM    6  C22 UNL     1      21.641   0.283  51.941  1.00  0.00     0.021 A 
ENDROOT
BRANCH   1   7
HETATM    7  C9  UNL     1      21.653   1.313  49.521  1.00  0.00     0.189 C 
HETATM    8  O1  UNL     1      21.601   0.658  48.454  1.00  0.00    -0.287 OA
BRANCH   7   9
HETATM    9  C2  UNL     1      22.314   2.497  49.118  1.00  0.00     0.011 C 
HETATM   10  C1  UNL     1      22.533   2.433  47.795  1.00  0.00     0.025 C 
BRANCH   9  11
HETATM   11  C3  UNL     1      22.856   3.794  49.482  1.00  0.00     0.314 C 
BRANCH  11  12
HETATM   12  N1  UNL     1      24.098   3.787  50.228  1.00  0.00     0.092 N 
HETATM   13  C4  UNL     1      23.979   4.649  51.408  1.00  0.00     0.272 C 
HETATM   14  C5  UNL     1      23.271   4.014  52.553  1.00  0.00     0.030 C 
HETATM   15  C6  UNL     1      24.104   2.837  53.020  1.00  0.00     0.003 C 
HETATM   16  C7  UNL     1      25.193   2.533  52.025  1.00  0.00     0.030 C 
HETATM   17  C8  UNL     1      24.532   2.465  50.646  1.00  0.00     0.272 C 
ENDBRANCH  11  12
ENDBRANCH   9  11
ENDBRANCH   7   9
ENDBRANCH   1   7
BRANCH   5  18
HETATM   18  C14 UNL     1      21.963  -0.675  54.173  1.00  0.00     0.203 C 
BRANCH  18  19
HETATM   19  O2  UNL     1      23.248  -0.801  53.713  1.00  0.00    -0.382 OA
BRANCH  19  20
HETATM   20  C15 UNL     1      24.129  -0.881  54.752  1.00  0.00     0.206 C 
BRANCH  20  21
HETATM   21  C16 UNL     1      25.486  -0.510  54.314  1.00  0.00    -0.035 A 
HETATM   22  C17 UNL     1      26.420   0.197  55.006  1.00  0.00     0.009 A 
HETATM   23  C18 UNL     1      27.630   0.464  54.420  1.00  0.00     0.001 A 
HETATM   24  C19 UNL     1      27.971   0.060  53.158  1.00  0.00     0.000 A 
HETATM   25  C20 UNL     1      27.044  -0.676  52.394  1.00  0.00     0.001 A 
HETATM   26  C21 UNL     1      25.839  -0.921  53.029  1.00  0.00     0.009 A 
ENDBRANCH  20  21
ENDBRANCH  19  20
ENDBRANCH  18  19
ENDBRANCH   5  18
TORSDOF 8
ENDMDL
MODEL 2
REMARK VINA RESULT:      -7.4      6.694      8.519
REMARK  8 active torsions:
REMARK  status: ('A' for Active; 'I' for Inactive)
REMARK    1  A    between atoms: C2_2  and  C3_3 
REMARK    2  A    between atoms: C2_2  and  C9_10 
REMARK    3  A    between atoms: C3_3  and  N1_4 
REMARK    4  A    between atoms: C9_10  and  C10_12 
REMARK    5  A    between atoms: C13_16  and  C14_17 
REMARK    6  A    between atoms: C14_17  and  O2_18 
REMARK    7  A    between atoms: O2_18  and  C15_19 
REMARK    8  A    between atoms: C15_19  and  C16_20 
ROOT
HETATM    1  C10 UNL     1      28.454   6.299  48.194  1.00  0.00     0.021 A 
HETATM    2  C11 UNL     1      27.607   7.310  48.367  1.00  0.00     0.060 A 
HETATM    3  S1  UNL     1      25.979   7.200  49.084  1.00  0.00    -0.136 SA
HETATM    4  C12 UNL     1      25.686   5.479  49.483  1.00  0.00     0.115 A 
HETATM    5  C13 UNL     1      26.846   4.645  49.149  1.00  0.00    -0.046 A 
HETATM    6  C22 UNL     1      27.957   5.037  48.622  1.00  0.00     0.021 A 
ENDROOT
BRANCH   1   7
HETATM    7  C9  UNL     1      29.654   6.765  47.593  1.00  0.00     0.189 C 
HETATM    8  O1  UNL     1      29.615   7.404  46.516  1.00  0.00    -0.287 OA
BRANCH   7   9
HETATM    9  C2  UNL     1      31.040   6.720  47.870  1.00  0.00     0.011 C 
HETATM   10  C1  UNL     1      31.252   7.279  49.071  1.00  0.00     0.025 C 
BRANCH   9  11
HETATM   11  C3  UNL     1      32.370   6.315  47.452  1.00  0.00     0.314 C 
BRANCH  11  12
HETATM   12  N1  UNL     1      32.908   5.123  48.076  1.00  0.00     0.092 N 
HETATM   13  C4  UNL     1      32.335   3.928  47.450  1.00  0.00     0.272 C 
HETATM   14  C5  UNL     1      32.974   3.556  46.158  1.00  0.00     0.030 C 
HETATM   15  C6  UNL     1      34.417   3.188  46.441  1.00  0.00     0.003 C 
HETATM   16  C7  UNL     1      34.796   3.581  47.845  1.00  0.00     0.030 C 
HETATM   17  C8  UNL     1      34.357   5.035  48.036  1.00  0.00     0.272 C 
ENDBRANCH  11  12
ENDBRANCH   9  11
ENDBRANCH   7   9
ENDBRANCH   1   7
BRANCH   5  18
HETATM   18  C14 UNL     1      26.601   3.194  49.498  1.00  0.00     0.203 C 
BRANCH  18  19
HETATM   19  O2  UNL     1      26.951   3.029  50.813  1.00  0.00    -0.382 OA
BRANCH  19  20
HETATM   20  C15 UNL     1      26.123   2.134  51.426  1.00  0.00     0.206 C 
BRANCH  20  21
HETATM   21  C16 UNL     1      26.902   1.118  52.153  1.00  0.00    -0.035 A 
HETATM   22  C17 UNL     1      26.704  -0.229  52.170  1.00  0.00     0.009 A 
HETATM   23  C18 UNL     1      27.527  -1.019  52.930  1.00  0.00     0.001 A 
HETATM   24  C19 UNL     1      28.557  -0.537  53.691  1.00  0.00     0.000 A 
HETATM   25  C20 UNL     1      28.809   0.849  53.714  1.00  0.00     0.001 A 
HETATM   26  C21 UNL     1      27.954   1.604  52.930  1.00  0.00     0.009 A 
ENDBRANCH  20  21
ENDBRANCH  19  20
ENDBRANCH  18  19
ENDBRANCH   5  18
TORSDOF 8
ENDMDL
MODEL 3
REMARK VINA RESULT:      -7.2      1.865      5.296
REMARK  8 active torsions:
REMARK  status: ('A' for Active; 'I' for Inactive)
REMARK    1  A    between atoms: C2_2  and  C3_3 
REMARK    2  A    between atoms: C2_2  and  C9_10 
REMARK    3  A    between atoms: C3_3  and  N1_4 
REMARK    4  A    between atoms: C9_10  and  C10_12 
REMARK    5  A    between atoms: C13_16  and  C14_17 
REMARK    6  A    between atoms: C14_17  and  O2_18 
REMARK    7  A    between atoms: O2_18  and  C15_19 
REMARK    8  A    between atoms: C15_19  and  C16_20 
ROOT
HETATM    1  C10 UNL     1      21.150  -0.307  52.898  1.00  0.00     0.021 A 
HETATM    2  C11 UNL     1      19.840  -0.482  53.044  1.00  0.00     0.060 A 
HETATM    3  S1  UNL     1      18.578   0.058  51.907  1.00  0.00    -0.136 SA
HETATM    4  C12 UNL     1      19.399   0.913  50.565  1.00  0.00     0.115 A 
HETATM    5  C13 UNL     1      20.857   0.913  50.739  1.00  0.00    -0.046 A 
HETATM    6  C22 UNL     1      21.521   0.396  51.718  1.00  0.00     0.021 A 
ENDROOT
BRANCH   1   7
HETATM    7  C9  UNL     1      21.844  -0.869  54.002  1.00  0.00     0.189 C 
HETATM    8  O1  UNL     1      21.228  -1.544  54.859  1.00  0.00    -0.287 OA
BRANCH   7   9
HETATM    9  C2  UNL     1      23.172  -0.902  54.487  1.00  0.00     0.011 C 
HETATM   10  C1  UNL     1      23.196  -1.632  55.613  1.00  0.00     0.025 C 
BRANCH   9  11
HETATM   11  C3  UNL     1      24.562  -0.519  54.309  1.00  0.00     0.314 C 
BRANCH  11  12
HETATM   12  N1  UNL     1      24.929  -0.013  53.003  1.00  0.00     0.092 N 
HETATM   13  C4  UNL     1      24.766   1.444  52.966  1.00  0.00     0.272 C 
HETATM   14  C5  UNL     1      25.890   2.195  53.589  1.00  0.00     0.030 C 
HETATM   15  C6  UNL     1      27.139   1.927  52.771  1.00  0.00     0.003 C 
HETATM   16  C7  UNL     1      26.901   0.801  51.800  1.00  0.00     0.030 C 
HETATM   17  C8  UNL     1      26.281  -0.352  52.594  1.00  0.00     0.272 C 
ENDBRANCH  11  12
ENDBRANCH   9  11
ENDBRANCH   7   9
ENDBRANCH   1   7
BRANCH   5  18
HETATM   18  C14 UNL     1      21.549   1.624  49.599  1.00  0.00     0.203 C 
BRANCH  18  19
HETATM   19  O2  UNL     1      22.335   2.603  50.149  1.00  0.00    -0.382 OA
BRANCH  19  20
HETATM   20  C15 UNL     1      22.572   3.599  49.247  1.00  0.00     0.206 C 
BRANCH  20  21
HETATM   21  C16 UNL     1      24.001   3.954  49.227  1.00  0.00    -0.035 A 
HETATM   22  C17 UNL     1      25.060   3.164  49.554  1.00  0.00     0.009 A 
HETATM   23  C18 UNL     1      26.328   3.682  49.494  1.00  0.00     0.001 A 
HETATM   24  C19 UNL     1      26.609   4.968  49.119  1.00  0.00     0.000 A 
HETATM   25  C20 UNL     1      25.553   5.832  48.770  1.00  0.00     0.001 A 
HETATM   26  C21 UNL     1      24.294   5.263  48.845  1.00  0.00     0.009 A 
ENDBRANCH  20  21
ENDBRANCH  19  20
ENDBRANCH  18  19
ENDBRANCH   5  18
TORSDOF 8
ENDMDL
MODEL 4
REMARK VINA RESULT:      -7.0      2.136      3.193
REMARK  8 active torsions:
REMARK  status: ('A' for Active; 'I' for Inactive)
REMARK    1  A    between atoms: C2_2  and  C3_3 
REMARK    2  A    between atoms: C2_2  and  C9_10 
REMARK    3  A    between atoms: C3_3  and  N1_4 
REMARK    4  A    between atoms: C9_10  and  C10_12 
REMARK    5  A    between atoms: C13_16  and  C14_17 
REMARK    6  A    between atoms: C14_17  and  O2_18 
REMARK    7  A    between atoms: O2_18  and  C15_19 
REMARK    8  A    between atoms: C15_19  and  C16_20 
ROOT
HETATM    1  C10 UNL     1      22.434   1.714  52.656  1.00  0.00     0.021 A 
HETATM    2  C11 UNL     1      21.220   1.346  53.057  1.00  0.00     0.060 A 
HETATM    3  S1  UNL     1      20.830  -0.098  54.025  1.00  0.00    -0.136 SA
HETATM    4  C12 UNL     1      22.363  -0.978  54.315  1.00  0.00     0.115 A 
HETATM    5  C13 UNL     1      23.506  -0.276  53.719  1.00  0.00    -0.046 A 
HETATM    6  C22 UNL     1      23.475   0.827  53.049  1.00  0.00     0.021 A 
ENDROOT
BRANCH   1   7
HETATM    7  C9  UNL     1      22.357   2.916  51.906  1.00  0.00     0.189 C 
HETATM    8  O1  UNL     1      21.393   3.118  51.132  1.00  0.00    -0.287 OA
BRANCH   7   9
HETATM    9  C2  UNL     1      23.128   4.091  51.744  1.00  0.00     0.011 C 
HETATM   10  C1  UNL     1      23.467   4.549  52.959  1.00  0.00     0.025 C 
BRANCH   9  11
HETATM   11  C3  UNL     1      23.758   5.041  50.844  1.00  0.00     0.314 C 
BRANCH  11  12
HETATM   12  N1  UNL     1      24.554   4.482  49.770  1.00  0.00     0.092 N 
HETATM   13  C4  UNL     1      24.555   5.392  48.621  1.00  0.00     0.272 C 
HETATM   14  C5  UNL     1      25.504   6.531  48.751  1.00  0.00     0.030 C 
HETATM   15  C6  UNL     1      26.910   5.963  48.793  1.00  0.00     0.003 C 
HETATM   16  C7  UNL     1      26.869   4.468  48.971  1.00  0.00     0.030 C 
HETATM   17  C8  UNL     1      25.926   4.183  50.143  1.00  0.00     0.272 C 
ENDBRANCH  11  12
ENDBRANCH   9  11
ENDBRANCH   7   9
ENDBRANCH   1   7
BRANCH   5  18
HETATM   18  C14 UNL     1      24.801  -1.013  53.975  1.00  0.00     0.203 C 
BRANCH  18  19
HETATM   19  O2  UNL     1      25.517  -0.991  52.807  1.00  0.00    -0.382 OA
BRANCH  19  20
HETATM   20  C15 UNL     1      26.828  -1.294  53.036  1.00  0.00     0.206 C 
BRANCH  20  21
HETATM   21  C16 UNL     1      27.599  -0.076  53.339  1.00  0.00    -0.035 A 
HETATM   22  C17 UNL     1      28.625   0.062  54.222  1.00  0.00     0.009 A 
HETATM   23  C18 UNL     1      29.211   1.291  54.384  1.00  0.00     0.001 A 
HETATM   24  C19 UNL     1      28.826   2.414  53.704  1.00  0.00     0.000 A 
HETATM   25  C20 UNL     1      27.768   2.332  52.777  1.00  0.00     0.001 A 
HETATM   26  C21 UNL     1      27.211   1.072  52.648  1.00  0.00     0.009 A 
ENDBRANCH  20  21
ENDBRANCH  19  20
ENDBRANCH  18  19
ENDBRANCH   5  18
TORSDOF 8
ENDMDL
MODEL 5
REMARK VINA RESULT:      -7.0      2.833      5.901
REMARK  8 active torsions:
REMARK  status: ('A' for Active; 'I' for Inactive)
REMARK    1  A    between atoms: C2_2  and  C3_3 
REMARK    2  A    between atoms: C2_2  and  C9_10 
REMARK    3  A    between atoms: C3_3  and  N1_4 
REMARK    4  A    between atoms: C9_10  and  C10_12 
REMARK    5  A    between atoms: C13_16  and  C14_17 
REMARK    6  A    between atoms: C14_17  and  O2_18 
REMARK    7  A    between atoms: O2_18  and  C15_19 
REMARK    8  A    between atoms: C15_19  and  C16_20 
ROOT
HETATM    1  C10 UNL     1      21.724   1.617  52.689  1.00  0.00     0.021 A 
HETATM    2  C11 UNL     1      20.466   1.922  52.379  1.00  0.00     0.060 A 
HETATM    3  S1  UNL     1      19.915   3.430  51.606  1.00  0.00    -0.136 SA
HETATM    4  C12 UNL     1      21.356   4.466  51.368  1.00  0.00     0.115 A 
HETATM    5  C13 UNL     1      22.579   3.802  51.833  1.00  0.00    -0.046 A 
HETATM    6  C22 UNL     1      22.670   2.630  52.367  1.00  0.00     0.021 A 
ENDROOT
BRANCH   1   7
HETATM    7  C9  UNL     1      21.780   0.333  53.292  1.00  0.00     0.189 C 
HETATM    8  O1  UNL     1      20.772  -0.410  53.293  1.00  0.00    -0.287 OA
BRANCH   7   9
HETATM    9  C2  UNL     1      22.738  -0.453  53.975  1.00  0.00     0.011 C 
HETATM   10  C1  UNL     1      22.089  -1.327  54.760  1.00  0.00     0.025 C 
BRANCH   9  11
HETATM   11  C3  UNL     1      24.136  -0.773  54.204  1.00  0.00     0.314 C 
BRANCH  11  12
HETATM   12  N1  UNL     1      25.089  -0.211  53.268  1.00  0.00     0.092 N 
HETATM   13  C4  UNL     1      25.737   0.964  53.859  1.00  0.00     0.272 C 
HETATM   14  C5  UNL     1      26.839   0.635  54.804  1.00  0.00     0.030 C 
HETATM   15  C6  UNL     1      27.936  -0.056  54.019  1.00  0.00     0.003 C 
HETATM   16  C7  UNL     1      27.447  -0.428  52.644  1.00  0.00     0.030 C 
HETATM   17  C8  UNL     1      26.107  -1.147  52.825  1.00  0.00     0.272 C 
ENDBRANCH  11  12
ENDBRANCH   9  11
ENDBRANCH   7   9
ENDBRANCH   1   7
BRANCH   5  18
HETATM   18  C14 UNL     1      23.796   4.673  51.620  1.00  0.00     0.203 C 
BRANCH  18  19
HETATM   19  O2  UNL     1      23.978   4.790  50.267  1.00  0.00    -0.382 OA
BRANCH  19  20
HETATM   20  C15 UNL     1      24.999   3.989  49.844  1.00  0.00     0.206 C 
BRANCH  20  21
HETATM   21  C16 UNL     1      26.083   4.793  49.256  1.00  0.00    -0.035 A 
HETATM   22  C17 UNL     1      27.337   4.383  48.920  1.00  0.00     0.009 A 
HETATM   23  C18 UNL     1      28.223   5.290  48.399  1.00  0.00     0.001 A 
HETATM   24  C19 UNL     1      27.927   6.610  48.188  1.00  0.00     0.000 A 
HETATM   25  C20 UNL     1      26.646   7.092  48.518  1.00  0.00     0.001 A 
HETATM   26  C21 UNL     1      25.788   6.139  49.038  1.00  0.00     0.009 A 
ENDBRANCH  20  21
ENDBRANCH  19  20
ENDBRANCH  18  19
ENDBRANCH   5  18
TORSDOF 8
ENDMDL
MODEL 6
REMARK VINA RESULT:      -6.9      1.814      5.649
REMARK  8 active torsions:
REMARK  status: ('A' for Active; 'I' for Inactive)
REMARK    1  A    between atoms: C2_2  and  C3_3 
REMARK    2  A    between atoms: C2_2  and  C9_10 
REMARK    3  A    between atoms: C3_3  and  N1_4 
REMARK    4  A    between atoms: C9_10  and  C10_12 
REMARK    5  A    between atoms: C13_16  and  C14_17 
REMARK    6  A    between atoms: C14_17  and  O2_18 
REMARK    7  A    between atoms: O2_18  and  C15_19 
REMARK    8  A    between atoms: C15_19  and  C16_20 
ROOT
HETATM    1  C10 UNL     1      22.301   0.428  52.415  1.00  0.00     0.021 A 
HETATM    2  C11 UNL     1      21.422  -0.047  53.294  1.00  0.00     0.060 A 
HETATM    3  S1  UNL     1      19.670  -0.234  53.025  1.00  0.00    -0.136 SA
HETATM    4  C12 UNL     1      19.314   0.373  51.379  1.00  0.00     0.115 A 
HETATM    5  C13 UNL     1      20.533   0.823  50.696  1.00  0.00    -0.046 A 
HETATM    6  C22 UNL     1      21.733   0.822  51.172  1.00  0.00     0.021 A 
ENDROOT
BRANCH   1   7
HETATM    7  C9  UNL     1      23.603   0.431  52.980  1.00  0.00     0.189 C 
HETATM    8  O1  UNL     1      23.926  -0.431  53.830  1.00  0.00    -0.287 OA
BRANCH   7   9
HETATM    9  C2  UNL     1      24.784   1.201  52.864  1.00  0.00     0.011 C 
HETATM   10  C1  UNL     1      24.484   2.482  53.126  1.00  0.00     0.025 C 
BRANCH   9  11
HETATM   11  C3  UNL     1      26.213   1.240  52.610  1.00  0.00     0.314 C 
BRANCH  11  12
HETATM   12  N1  UNL     1      27.072   1.349  53.772  1.00  0.00     0.092 N 
HETATM   13  C4  UNL     1      27.421   0.013  54.264  1.00  0.00     0.272 C 
HETATM   14  C5  UNL     1      28.514  -0.648  53.501  1.00  0.00     0.030 C 
HETATM   15  C6  UNL     1      29.775   0.172  53.689  1.00  0.00     0.003 C 
HETATM   16  C7  UNL     1      29.452   1.496  54.330  1.00  0.00     0.030 C 
HETATM   17  C8  UNL     1      28.291   2.105  53.539  1.00  0.00     0.272 C 
ENDBRANCH  11  12
ENDBRANCH   9  11
ENDBRANCH   7   9
ENDBRANCH   1   7
BRANCH   5  18
HETATM   18  C14 UNL     1      20.231   1.324  49.303  1.00  0.00     0.203 C 
BRANCH  18  19
HETATM   19  O2  UNL     1      20.587   2.647  49.262  1.00  0.00    -0.382 OA
BRANCH  19  20
HETATM   20  C15 UNL     1      21.353   2.910  48.164  1.00  0.00     0.206 C 
BRANCH  20  21
HETATM   21  C16 UNL     1      22.643   3.501  48.558  1.00  0.00    -0.035 A 
HETATM   22  C17 UNL     1      23.668   2.897  49.220  1.00  0.00     0.009 A 
HETATM   23  C18 UNL     1      24.792   3.622  49.520  1.00  0.00     0.001 A 
HETATM   24  C19 UNL     1      24.959   4.940  49.193  1.00  0.00     0.000 A 
HETATM   25  C20 UNL     1      23.932   5.617  48.507  1.00  0.00     0.001 A 
HETATM   26  C21 UNL     1      22.820   4.844  48.226  1.00  0.00     0.009 A 
ENDBRANCH  20  21
ENDBRANCH  19  20
ENDBRANCH  18  19
ENDBRANCH   5  18
TORSDOF 8
ENDMDL
MODEL 7
REMARK VINA RESULT:      -6.8      3.376      6.638
REMARK  8 active torsions:
REMARK  status: ('A' for Active; 'I' for Inactive)
REMARK    1  A    between atoms: C2_2  and  C3_3 
REMARK    2  A    between atoms: C2_2  and  C9_10 
REMARK    3  A    between atoms: C3_3  and  N1_4 
REMARK    4  A    between atoms: C9_10  and  C10_12 
REMARK    5  A    between atoms: C13_16  and  C14_17 
REMARK    6  A    between atoms: C14_17  and  O2_18 
REMARK    7  A    between atoms: O2_18  and  C15_19 
REMARK    8  A    between atoms: C15_19  and  C16_20 
ROOT
HETATM    1  C10 UNL     1      24.395   0.067  53.619  1.00  0.00     0.021 A 
HETATM    2  C11 UNL     1      25.454  -0.700  53.861  1.00  0.00     0.060 A 
HETATM    3  S1  UNL     1      27.124  -0.375  53.329  1.00  0.00    -0.136 SA
HETATM    4  C12 UNL     1      27.097   1.142  52.379  1.00  0.00     0.115 A 
HETATM    5  C13 UNL     1      25.748   1.715  52.319  1.00  0.00    -0.046 A 
HETATM    6  C22 UNL     1      24.675   1.229  52.848  1.00  0.00     0.021 A 
ENDROOT
BRANCH   1   7
HETATM    7  C9  UNL     1      23.232  -0.509  54.196  1.00  0.00     0.189 C 
HETATM    8  O1  UNL     1      23.336  -1.415  55.055  1.00  0.00    -0.287 OA
BRANCH   7   9
HETATM    9  C2  UNL     1      21.831  -0.357  54.083  1.00  0.00     0.011 C 
HETATM   10  C1  UNL     1      21.245  -1.495  54.486  1.00  0.00     0.025 C 
BRANCH   9  11
HETATM   11  C3  UNL     1      20.705   0.495  53.745  1.00  0.00     0.314 C 
BRANCH  11  12
HETATM   12  N1  UNL     1      20.797   1.222  52.495  1.00  0.00     0.092 N 
HETATM   13  C4  UNL     1      20.375   0.364  51.384  1.00  0.00     0.272 C 
HETATM   14  C5  UNL     1      18.899   0.258  51.229  1.00  0.00     0.030 C 
HETATM   15  C6  UNL     1      18.368   1.634  50.876  1.00  0.00     0.003 C 
HETATM   16  C7  UNL     1      19.435   2.677  51.073  1.00  0.00     0.030 C 
HETATM   17  C8  UNL     1      20.028   2.454  52.467  1.00  0.00     0.272 C 
ENDBRANCH  11  12
ENDBRANCH   9  11
ENDBRANCH   7   9
ENDBRANCH   1   7
BRANCH   5  18
HETATM   18  C14 UNL     1      25.729   3.002  51.527  1.00  0.00     0.203 C 
BRANCH  18  19
HETATM   19  O2  UNL     1      26.868   3.025  50.764  1.00  0.00    -0.382 OA
BRANCH  19  20
HETATM   20  C15 UNL     1      26.564   3.176  49.442  1.00  0.00     0.206 C 
BRANCH  20  21
HETATM   21  C16 UNL     1      26.782   4.568  49.013  1.00  0.00    -0.035 A 
HETATM   22  C17 UNL     1      25.869   5.575  48.958  1.00  0.00     0.009 A 
HETATM   23  C18 UNL     1      26.259   6.810  48.507  1.00  0.00     0.001 A 
HETATM   24  C19 UNL     1      27.531   7.106  48.100  1.00  0.00     0.000 A 
HETATM   25  C20 UNL     1      28.519   6.103  48.134  1.00  0.00     0.001 A 
HETATM   26  C21 UNL     1      28.078   4.876  48.597  1.00  0.00     0.009 A 
ENDBRANCH  20  21
ENDBRANCH  19  20
ENDBRANCH  18  19
ENDBRANCH   5  18
TORSDOF 8
ENDMDL
MODEL 8
REMARK VINA RESULT:      -6.7      3.230      6.803
REMARK  8 active torsions:
REMARK  status: ('A' for Active; 'I' for Inactive)
REMARK    1  A    between atoms: C2_2  and  C3_3 
REMARK    2  A    between atoms: C2_2  and  C9_10 
REMARK    3  A    between atoms: C3_3  and  N1_4 
REMARK    4  A    between atoms: C9_10  and  C10_12 
REMARK    5  A    between atoms: C13_16  and  C14_17 
REMARK    6  A    between atoms: C14_17  and  O2_18 
REMARK    7  A    between atoms: O2_18  and  C15_19 
REMARK    8  A    between atoms: C15_19  and  C16_20 
ROOT
HETATM    1  C10 UNL     1      22.783   0.923  52.707  1.00  0.00     0.021 A 
HETATM    2  C11 UNL     1      23.256   0.159  53.688  1.00  0.00     0.060 A 
HETATM    3  S1  UNL     1      22.356  -1.118  54.547  1.00  0.00    -0.136 SA
HETATM    4  C12 UNL     1      20.696  -1.146  53.876  1.00  0.00     0.115 A 
HETATM    5  C13 UNL     1      20.533  -0.156  52.804  1.00  0.00    -0.046 A 
HETATM    6  C22 UNL     1      21.426   0.667  52.366  1.00  0.00     0.021 A 
ENDROOT
BRANCH   1   7
HETATM    7  C9  UNL     1      23.784   1.828  52.267  1.00  0.00     0.189 C 
HETATM    8  O1  UNL     1      23.554   3.059  52.235  1.00  0.00    -0.287 OA
BRANCH   7   9
HETATM    9  C2  UNL     1      25.116   1.755  51.795  1.00  0.00     0.011 C 
HETATM   10  C1  UNL     1      25.264   2.644  50.800  1.00  0.00     0.025 C 
BRANCH   9  11
HETATM   11  C3  UNL     1      26.437   1.164  51.912  1.00  0.00     0.314 C 
BRANCH  11  12
HETATM   12  N1  UNL     1      27.045   1.197  53.226  1.00  0.00     0.092 N 
HETATM   13  C4  UNL     1      27.125  -0.160  53.776  1.00  0.00     0.272 C 
HETATM   14  C5  UNL     1      28.267  -0.958  53.252  1.00  0.00     0.030 C 
HETATM   15  C6  UNL     1      29.550  -0.285  53.700  1.00  0.00     0.003 C 
HETATM   16  C7  UNL     1      29.259   1.080  54.265  1.00  0.00     0.030 C 
HETATM   17  C8  UNL     1      28.365   1.802  53.254  1.00  0.00     0.272 C 
ENDBRANCH  11  12
ENDBRANCH   9  11
ENDBRANCH   7   9
ENDBRANCH   1   7
BRANCH   5  18
HETATM   18  C14 UNL     1      19.135  -0.190  52.231  1.00  0.00     0.203 C 
BRANCH  18  19
HETATM   19  O2  UNL     1      18.313  -0.709  53.198  1.00  0.00    -0.382 OA
BRANCH  19  20
HETATM   20  C15 UNL     1      17.068  -0.952  52.696  1.00  0.00     0.206 C 
BRANCH  20  21
HETATM   21  C16 UNL     1      16.685  -2.358  52.909  1.00  0.00    -0.035 A 
HETATM   22  C17 UNL     1      17.384  -3.319  53.573  1.00  0.00     0.009 A 
HETATM   23  C18 UNL     1      16.872  -4.589  53.649  1.00  0.00     0.001 A 
HETATM   24  C19 UNL     1      15.680  -4.965  53.091  1.00  0.00     0.000 A 
HETATM   25  C20 UNL     1      14.914  -4.012  52.391  1.00  0.00     0.001 A 
HETATM   26  C21 UNL     1      15.471  -2.747  52.343  1.00  0.00     0.009 A 
ENDBRANCH  20  21
ENDBRANCH  19  20
ENDBRANCH  18  19
ENDBRANCH   5  18
TORSDOF 8
ENDMDL
MODEL 9
REMARK VINA RESULT:      -6.6      2.329      4.942
REMARK  8 active torsions:
REMARK  status: ('A' for Active; 'I' for Inactive)
REMARK    1  A    between atoms: C2_2  and  C3_3 
REMARK    2  A    between atoms: C2_2  and  C9_10 
REMARK    3  A    between atoms: C3_3  and  N1_4 
REMARK    4  A    between atoms: C9_10  and  C10_12 
REMARK    5  A    between atoms: C13_16  and  C14_17 
REMARK    6  A    between atoms: C14_17  and  O2_18 
REMARK    7  A    between atoms: O2_18  and  C15_19 
REMARK    8  A    between atoms: C15_19  and  C16_20 
ROOT
HETATM    1  C10 UNL     1      23.370   3.971  49.587  1.00  0.00     0.021 A 
HETATM    2  C11 UNL     1      22.777   5.070  49.128  1.00  0.00     0.060 A 
HETATM    3  S1  UNL     1      21.120   5.172  48.480  1.00  0.00    -0.136 SA
HETATM    4  C12 UNL     1      20.428   3.521  48.519  1.00  0.00     0.115 A 
HETATM    5  C13 UNL     1      21.374   2.554  49.090  1.00  0.00    -0.046 A 
HETATM    6  C22 UNL     1      22.570   2.797  49.512  1.00  0.00     0.021 A 
ENDROOT
BRANCH   1   7
HETATM    7  C9  UNL     1      24.688   4.272  50.021  1.00  0.00     0.189 C 
HETATM    8  O1  UNL     1      24.956   5.402  50.491  1.00  0.00    -0.287 OA
BRANCH   7   9
HETATM    9  C2  UNL     1      25.935   3.610  50.091  1.00  0.00     0.011 C 
HETATM   10  C1  UNL     1      26.802   4.249  49.289  1.00  0.00     0.025 C 
BRANCH   9  11
HETATM   11  C3  UNL     1      26.737   2.544  50.665  1.00  0.00     0.314 C 
BRANCH  11  12
HETATM   12  N1  UNL     1      26.493   2.231  52.059  1.00  0.00     0.092 N 
HETATM   13  C4  UNL     1      25.760   0.966  52.167  1.00  0.00     0.272 C 
HETATM   14  C5  UNL     1      26.618  -0.243  52.032  1.00  0.00     0.030 C 
HETATM   15  C6  UNL     1      27.588  -0.259  53.197  1.00  0.00     0.003 C 
HETATM   16  C7  UNL     1      27.557   1.058  53.926  1.00  0.00     0.030 C 
HETATM   17  C8  UNL     1      27.695   2.158  52.870  1.00  0.00     0.272 C 
ENDBRANCH  11  12
ENDBRANCH   9  11
ENDBRANCH   7   9
ENDBRANCH   1   7
BRANCH   5  18
HETATM   18  C14 UNL     1      20.783   1.164  49.134  1.00  0.00     0.203 C 
BRANCH  18  19
HETATM   19  O2  UNL     1      21.271   0.552  50.259  1.00  0.00    -0.382 OA
BRANCH  19  20
HETATM   20  C15 UNL     1      20.314   0.488  51.229  1.00  0.00     0.206 C 
BRANCH  20  21
HETATM   21  C16 UNL     1      20.904   0.085  52.517  1.00  0.00    -0.035 A 
HETATM   22  C17 UNL     1      20.351   0.190  53.756  1.00  0.00     0.009 A 
HETATM   23  C18 UNL     1      21.068  -0.223  54.849  1.00  0.00     0.001 A 
HETATM   24  C19 UNL     1      22.331  -0.745  54.779  1.00  0.00     0.000 A 
HETATM   25  C20 UNL     1      22.955  -0.878  53.523  1.00  0.00     0.001 A 
HETATM   26  C21 UNL     1      22.191  -0.450  52.452  1.00  0.00     0.009 A 
ENDBRANCH  20  21
ENDBRANCH  19  20
ENDBRANCH  18  19
ENDBRANCH   5  18
TORSDOF 8
ENDMDL
