MODEL 1
REMARK VINA RESULT:      -9.2      0.000      0.000
REMARK  0 active torsions:
REMARK  status: ('A' for Active; 'I' for Inactive)
ROOT
HETATM    1  C1  UNL     1      18.809  -0.077  51.524  1.00  0.00     0.045 C 
HETATM    2  C2  UNL     1      20.206   0.287  51.867  1.00  0.00    -0.065 A 
HETATM    3  C3  UNL     1      20.546   0.007  53.090  1.00  0.00     0.006 A 
HETATM    4  C4  UNL     1      21.939   0.381  53.402  1.00  0.00     0.031 A 
HETATM    5  C5  UNL     1      22.810   0.956  52.559  1.00  0.00     0.048 A 
HETATM    6  C6  UNL     1      24.139   1.259  53.019  1.00  0.00     0.066 C 
HETATM    7  C7  UNL     1      24.869   2.327  53.319  1.00  0.00     0.079 C 
HETATM    8 CL1  UNL     1      26.508   2.107  53.858  1.00  0.00    -0.071 Cl
HETATM    9  N1  UNL     1      23.965   3.395  53.060  1.00  0.00    -0.259 NA
HETATM   10  C8  UNL     1      23.935   3.797  51.866  1.00  0.00     0.310 C 
HETATM   11  N2  UNL     1      24.057   4.100  50.450  1.00  0.00    -0.333 N 
HETATM   12  C9  UNL     1      25.054   5.041  50.764  1.00  0.00     0.246 C 
HETATM   13  N3  UNL     1      25.581   5.804  49.706  1.00  0.00    -0.398 N 
HETATM   14  C10 UNL     1      26.387   5.091  48.810  1.00  0.00     0.145 C 
HETATM   15  C11 UNL     1      25.913   7.145  49.896  1.00  0.00     0.145 C 
HETATM   16  C12 UNL     1      24.813   8.124  50.049  1.00  0.00    -0.006 C 
HETATM   17  C13 UNL     1      23.490   8.368  50.079  1.00  0.00     0.051 C 
HETATM   18  C14 UNL     1      22.776   7.119  49.873  1.00  0.00     0.381 A 
HETATM   19  O1  UNL     1      21.608   7.550  49.858  1.00  0.00    -0.139 OA
HETATM   20  N4  UNL     1      21.590   6.328  49.693  1.00  0.00     0.122 N 
HETATM   21  C15 UNL     1      20.182   6.240  49.553  1.00  0.00     0.324 C 
HETATM   22  C16 UNL     1      21.927   4.886  49.605  1.00  0.00     0.172 C 
HETATM   23  C17 UNL     1      21.783   3.853  50.441  1.00  0.00     0.067 C 
HETATM   24  C18 UNL     1      23.064   3.185  49.979  1.00  0.00     0.145 C 
HETATM   25  C19 UNL     1      22.871   3.124  48.496  1.00  0.00     0.029 C 
HETATM   26  C20 UNL     1      22.606   4.439  48.362  1.00  0.00     0.040 C 
HETATM   27  N5  UNL     1      23.270   1.874  50.420  1.00  0.00    -0.201 NA
HETATM   28  N6  UNL     1      22.358   1.254  51.220  1.00  0.00    -0.306 N 
HETATM   29  C21 UNL     1      21.023   0.897  50.785  1.00  0.00     0.177 A 
HETATM   30  H23 UNL     1      23.573   1.232  49.652  1.00  0.00     0.150 HD
ENDROOT
TORSDOF 0
ENDMDL
MODEL 2
REMARK VINA RESULT:      -8.7      2.878      4.574
REMARK  0 active torsions:
REMARK  status: ('A' for Active; 'I' for Inactive)
ROOT
HETATM    1  C1  UNL     1      19.311  -0.703  53.333  1.00  0.00     0.045 C 
HETATM    2  C2  UNL     1      19.322   0.321  52.258  1.00  0.00    -0.065 A 
HETATM    3  C3  UNL     1      18.634  -0.003  51.204  1.00  0.00     0.006 A 
HETATM    4  C4  UNL     1      18.666   1.033  50.154  1.00  0.00     0.031 A 
HETATM    5  C5  UNL     1      19.319   2.203  50.218  1.00  0.00     0.048 A 
HETATM    6  C6  UNL     1      19.249   3.109  49.103  1.00  0.00     0.066 C 
HETATM    7  C7  UNL     1      20.043   3.571  48.144  1.00  0.00     0.079 C 
HETATM    8 CL1  UNL     1      19.408   4.712  46.995  1.00  0.00    -0.071 Cl
HETATM    9  N1  UNL     1      21.272   2.909  48.423  1.00  0.00    -0.259 NA
HETATM   10  C8  UNL     1      22.015   3.484  49.263  1.00  0.00     0.310 C 
HETATM   11  N2  UNL     1      22.706   4.304  50.243  1.00  0.00    -0.333 N 
HETATM   12  C9  UNL     1      23.334   4.989  49.188  1.00  0.00     0.246 C 
HETATM   13  N3  UNL     1      24.284   5.970  49.526  1.00  0.00    -0.398 N 
HETATM   14  C10 UNL     1      23.753   7.130  50.105  1.00  0.00     0.145 C 
HETATM   15  C11 UNL     1      25.433   6.141  48.754  1.00  0.00     0.145 C 
HETATM   16  C12 UNL     1      26.485   5.101  48.826  1.00  0.00    -0.006 C 
HETATM   17  C13 UNL     1      26.920   3.943  49.355  1.00  0.00     0.051 C 
HETATM   18  C14 UNL     1      25.925   3.451  50.293  1.00  0.00     0.381 A 
HETATM   19  O1  UNL     1      26.524   2.446  50.719  1.00  0.00    -0.139 OA
HETATM   20  N4  UNL     1      25.428   2.532  51.280  1.00  0.00     0.122 N 
HETATM   21  C15 UNL     1      25.617   1.392  52.100  1.00  0.00     0.324 C 
HETATM   22  C16 UNL     1      24.045   2.887  51.682  1.00  0.00     0.172 C 
HETATM   23  C17 UNL     1      22.846   2.353  51.430  1.00  0.00     0.067 C 
HETATM   24  C18 UNL     1      22.150   3.700  51.415  1.00  0.00     0.145 C 
HETATM   25  C19 UNL     1      22.571   4.289  52.725  1.00  0.00     0.029 C 
HETATM   26  C20 UNL     1      23.890   4.110  52.510  1.00  0.00     0.040 C 
HETATM   27  N5  UNL     1      20.752   3.673  51.408  1.00  0.00    -0.201 NA
HETATM   28  N6  UNL     1      20.076   2.490  51.414  1.00  0.00    -0.306 N 
HETATM   29  C21 UNL     1      20.088   1.565  52.530  1.00  0.00     0.177 A 
HETATM   30  H23 UNL     1      20.330   4.333  52.102  1.00  0.00     0.150 HD
ENDROOT
TORSDOF 0
ENDMDL
MODEL 3
REMARK VINA RESULT:      -8.1      3.580      5.773
REMARK  0 active torsions:
REMARK  status: ('A' for Active; 'I' for Inactive)
ROOT
HETATM    1  C1  UNL     1      25.534   0.877  52.901  1.00  0.00     0.045 C 
HETATM    2  C2  UNL     1      24.080   0.610  53.037  1.00  0.00    -0.065 A 
HETATM    3  C3  UNL     1      23.788  -0.622  53.328  1.00  0.00     0.006 A 
HETATM    4  C4  UNL     1      22.338  -0.856  53.456  1.00  0.00     0.031 A 
HETATM    5  C5  UNL     1      21.372   0.061  53.297  1.00  0.00     0.048 A 
HETATM    6  C6  UNL     1      19.997  -0.329  53.458  1.00  0.00     0.066 C 
HETATM    7  C7  UNL     1      18.918  -0.507  52.704  1.00  0.00     0.079 C 
HETATM    8 CL1  UNL     1      17.435  -1.016  53.455  1.00  0.00    -0.071 Cl
HETATM    9  N1  UNL     1      19.399  -0.179  51.405  1.00  0.00    -0.259 NA
HETATM   10  C8  UNL     1      19.357   1.046  51.110  1.00  0.00     0.310 C 
HETATM   11  N2  UNL     1      19.221   2.487  50.978  1.00  0.00    -0.333 N 
HETATM   12  C9  UNL     1      17.938   2.291  50.437  1.00  0.00     0.246 C 
HETATM   13  N3  UNL     1      17.240   3.430  49.996  1.00  0.00    -0.398 N 
HETATM   14  C10 UNL     1      16.796   4.280  51.016  1.00  0.00     0.145 C 
HETATM   15  C11 UNL     1      16.443   3.375  48.853  1.00  0.00     0.145 C 
HETATM   16  C12 UNL     1      17.113   3.280  47.536  1.00  0.00    -0.006 C 
HETATM   17  C13 UNL     1      18.259   3.233  46.832  1.00  0.00     0.051 C 
HETATM   18  C14 UNL     1      19.381   3.301  47.754  1.00  0.00     0.381 A 
HETATM   19  O1  UNL     1      20.318   3.321  46.934  1.00  0.00    -0.139 OA
HETATM   20  N4  UNL     1      20.779   3.372  48.078  1.00  0.00     0.122 N 
HETATM   21  C15 UNL     1      22.132   3.461  47.665  1.00  0.00     0.324 C 
HETATM   22  C16 UNL     1      20.981   3.337  49.546  1.00  0.00     0.172 C 
HETATM   23  C17 UNL     1      21.431   2.405  50.393  1.00  0.00     0.067 C 
HETATM   24  C18 UNL     1      20.501   2.842  51.509  1.00  0.00     0.145 C 
HETATM   25  C19 UNL     1      20.792   4.307  51.609  1.00  0.00     0.029 C 
HETATM   26  C20 UNL     1      20.581   4.553  50.300  1.00  0.00     0.040 C 
HETATM   27  N5  UNL     1      20.747   2.288  52.769  1.00  0.00    -0.201 NA
HETATM   28  N6  UNL     1      21.769   1.408  52.959  1.00  0.00    -0.306 N 
HETATM   29  C21 UNL     1      23.168   1.768  52.845  1.00  0.00     0.177 A 
HETATM   30  H23 UNL     1      20.739   3.003  53.534  1.00  0.00     0.150 HD
ENDROOT
TORSDOF 0
ENDMDL
MODEL 4
REMARK VINA RESULT:      -8.0      2.134      4.444
REMARK  0 active torsions:
REMARK  status: ('A' for Active; 'I' for Inactive)
ROOT
HETATM    1  C1  UNL     1      27.447   1.218  54.034  1.00  0.00     0.045 C 
HETATM    2  C2  UNL     1      26.062   1.104  53.513  1.00  0.00    -0.065 A 
HETATM    3  C3  UNL     1      25.704  -0.108  53.207  1.00  0.00     0.006 A 
HETATM    4  C4  UNL     1      24.325  -0.188  52.691  1.00  0.00     0.031 A 
HETATM    5  C5  UNL     1      23.481   0.841  52.527  1.00  0.00     0.048 A 
HETATM    6  C6  UNL     1      22.161   0.594  52.010  1.00  0.00     0.066 C 
HETATM    7  C7  UNL     1      21.469   0.819  50.900  1.00  0.00     0.079 C 
HETATM    8 CL1  UNL     1      19.820   0.274  50.805  1.00  0.00    -0.071 Cl
HETATM    9  N1  UNL     1      22.414   1.508  50.088  1.00  0.00    -0.259 NA
HETATM   10  C8  UNL     1      22.466   2.755  50.263  1.00  0.00     0.310 C 
HETATM   11  N2  UNL     1      22.364   4.159  50.621  1.00  0.00    -0.333 N 
HETATM   12  C9  UNL     1      21.401   4.321  49.609  1.00  0.00     0.246 C 
HETATM   13  N3  UNL     1      20.908   5.619  49.384  1.00  0.00    -0.398 N 
HETATM   14  C10 UNL     1      20.082   6.120  50.398  1.00  0.00     0.145 C 
HETATM   15  C11 UNL     1      20.625   6.056  48.091  1.00  0.00     0.145 C 
HETATM   16  C12 UNL     1      21.760   6.332  47.181  1.00  0.00    -0.006 C 
HETATM   17  C13 UNL     1      23.091   6.384  46.989  1.00  0.00     0.051 C 
HETATM   18  C14 UNL     1      23.759   5.995  48.220  1.00  0.00     0.381 A 
HETATM   19  O1  UNL     1      24.942   6.175  47.876  1.00  0.00    -0.139 OA
HETATM   20  N4  UNL     1      24.916   5.777  49.043  1.00  0.00     0.122 N 
HETATM   21  C15 UNL     1      26.321   5.832  49.227  1.00  0.00     0.324 C 
HETATM   22  C16 UNL     1      24.527   5.219  50.361  1.00  0.00     0.172 C 
HETATM   23  C17 UNL     1      24.628   4.007  50.915  1.00  0.00     0.067 C 
HETATM   24  C18 UNL     1      23.326   4.150  51.680  1.00  0.00     0.145 C 
HETATM   25  C19 UNL     1      23.525   5.445  52.404  1.00  0.00     0.029 C 
HETATM   26  C20 UNL     1      23.839   6.146  51.296  1.00  0.00     0.040 C 
HETATM   27  N5  UNL     1      23.068   3.175  52.648  1.00  0.00    -0.201 NA
HETATM   28  N6  UNL     1      23.951   2.162  52.873  1.00  0.00    -0.306 N 
HETATM   29  C21 UNL     1      25.276   2.362  53.427  1.00  0.00     0.177 A 
HETATM   30  H23 UNL     1      22.746   3.581  53.557  1.00  0.00     0.150 HD
ENDROOT
TORSDOF 0
ENDMDL
MODEL 5
REMARK VINA RESULT:      -8.0      8.450     12.238
REMARK  0 active torsions:
REMARK  status: ('A' for Active; 'I' for Inactive)
ROOT
HETATM    1  C1  UNL     1      28.157  12.161  47.601  1.00  0.00     0.045 C 
HETATM    2  C2  UNL     1      29.509  11.788  47.114  1.00  0.00    -0.065 A 
HETATM    3  C3  UNL     1      29.820  12.297  45.960  1.00  0.00     0.006 A 
HETATM    4  C4  UNL     1      31.168  11.907  45.502  1.00  0.00     0.031 A 
HETATM    5  C5  UNL     1      32.026  11.113  46.159  1.00  0.00     0.048 A 
HETATM    6  C6  UNL     1      33.310  10.828  45.575  1.00  0.00     0.066 C 
HETATM    7  C7  UNL     1      33.946   9.803  45.021  1.00  0.00     0.079 C 
HETATM    8 CL1  UNL     1      35.574  10.025  44.451  1.00  0.00    -0.071 Cl
HETATM    9  N1  UNL     1      32.976   8.764  45.101  1.00  0.00    -0.259 NA
HETATM   10  C8  UNL     1      32.963   8.123  46.186  1.00  0.00     0.310 C 
HETATM   11  N2  UNL     1      33.118   7.521  47.500  1.00  0.00    -0.333 N 
HETATM   12  C9  UNL     1      34.028   6.605  46.945  1.00  0.00     0.246 C 
HETATM   13  N3  UNL     1      34.539   5.604  47.791  1.00  0.00    -0.398 N 
HETATM   14  C10 UNL     1      35.431   6.059  48.770  1.00  0.00     0.145 C 
HETATM   15  C11 UNL     1      34.763   4.315  47.310  1.00  0.00     0.145 C 
HETATM   16  C12 UNL     1      33.587   3.463  47.018  1.00  0.00    -0.006 C 
HETATM   17  C13 UNL     1      32.249   3.317  47.009  1.00  0.00     0.051 C 
HETATM   18  C14 UNL     1      31.639   4.538  47.508  1.00  0.00     0.381 A 
HETATM   19  O1  UNL     1      30.444   4.189  47.496  1.00  0.00    -0.139 OA
HETATM   20  N4  UNL     1      30.523   5.349  47.912  1.00  0.00     0.122 N 
HETATM   21  C15 UNL     1      29.133   5.495  48.143  1.00  0.00     0.324 C 
HETATM   22  C16 UNL     1      30.970   6.714  48.278  1.00  0.00     0.172 C 
HETATM   23  C17 UNL     1      30.870   7.908  47.683  1.00  0.00     0.067 C 
HETATM   24  C18 UNL     1      32.215   8.379  48.204  1.00  0.00     0.145 C 
HETATM   25  C19 UNL     1      32.086   8.139  49.675  1.00  0.00     0.029 C 
HETATM   26  C20 UNL     1      31.730   6.845  49.548  1.00  0.00     0.040 C 
HETATM   27  N5  UNL     1      32.501   9.737  48.033  1.00  0.00    -0.201 NA
HETATM   28  N6  UNL     1      31.607  10.570  47.430  1.00  0.00    -0.306 N 
HETATM   29  C21 UNL     1      30.320  10.913  48.001  1.00  0.00     0.177 A 
HETATM   30  H23 UNL     1      32.881  10.183  48.900  1.00  0.00     0.150 HD
ENDROOT
TORSDOF 0
ENDMDL
MODEL 6
REMARK VINA RESULT:      -7.8      3.275      5.235
REMARK  0 active torsions:
REMARK  status: ('A' for Active; 'I' for Inactive)
ROOT
HETATM    1  C1  UNL     1      16.401   2.451  51.289  1.00  0.00     0.045 C 
HETATM    2  C2  UNL     1      17.412   2.840  50.275  1.00  0.00    -0.065 A 
HETATM    3  C3  UNL     1      17.140   2.440  49.068  1.00  0.00     0.006 A 
HETATM    4  C4  UNL     1      18.163   2.840  48.084  1.00  0.00     0.031 A 
HETATM    5  C5  UNL     1      19.279   3.537  48.343  1.00  0.00     0.048 A 
HETATM    6  C6  UNL     1      20.180   3.849  47.265  1.00  0.00     0.066 C 
HETATM    7  C7  UNL     1      21.390   3.498  46.847  1.00  0.00     0.079 C 
HETATM    8 CL1  UNL     1      22.030   4.224  45.401  1.00  0.00    -0.071 Cl
HETATM    9  N1  UNL     1      21.791   2.554  47.834  1.00  0.00    -0.259 NA
HETATM   10  C8  UNL     1      22.330   3.047  48.862  1.00  0.00     0.310 C 
HETATM   11  N2  UNL     1      22.918   3.816  49.945  1.00  0.00    -0.333 N 
HETATM   12  C9  UNL     1      24.174   3.678  49.327  1.00  0.00     0.246 C 
HETATM   13  N3  UNL     1      25.290   4.208  50.000  1.00  0.00    -0.398 N 
HETATM   14  C10 UNL     1      25.344   5.606  50.039  1.00  0.00     0.145 C 
HETATM   15  C11 UNL     1      26.517   3.546  49.967  1.00  0.00     0.145 C 
HETATM   16  C12 UNL     1      26.654   2.288  50.736  1.00  0.00    -0.006 C 
HETATM   17  C13 UNL     1      26.101   1.381  51.560  1.00  0.00     0.051 C 
HETATM   18  C14 UNL     1      24.736   1.783  51.855  1.00  0.00     0.381 A 
HETATM   19  O1  UNL     1      24.429   0.889  52.665  1.00  0.00    -0.139 OA
HETATM   20  N4  UNL     1      23.468   1.649  52.519  1.00  0.00     0.122 N 
HETATM   21  C15 UNL     1      22.634   0.978  53.448  1.00  0.00     0.324 C 
HETATM   22  C16 UNL     1      22.516   2.685  52.050  1.00  0.00     0.172 C 
HETATM   23  C17 UNL     1      21.442   2.658  51.255  1.00  0.00     0.067 C 
HETATM   24  C18 UNL     1      21.716   4.038  50.688  1.00  0.00     0.145 C 
HETATM   25  C19 UNL     1      21.848   4.868  51.926  1.00  0.00     0.029 C 
HETATM   26  C20 UNL     1      22.781   4.078  52.493  1.00  0.00     0.040 C 
HETATM   27  N5  UNL     1      20.693   4.605  49.921  1.00  0.00    -0.201 NA
HETATM   28  N6  UNL     1      19.525   3.935  49.709  1.00  0.00    -0.306 N 
HETATM   29  C21 UNL     1      18.572   3.633  50.758  1.00  0.00     0.177 A 
HETATM   30  H23 UNL     1      20.496   5.599  50.180  1.00  0.00     0.150 HD
ENDROOT
TORSDOF 0
ENDMDL
MODEL 7
REMARK VINA RESULT:      -7.7      2.765      6.792
REMARK  0 active torsions:
REMARK  status: ('A' for Active; 'I' for Inactive)
ROOT
HETATM    1  C1  UNL     1      27.800   6.529  48.582  1.00  0.00     0.045 C 
HETATM    2  C2  UNL     1      26.375   6.873  48.820  1.00  0.00    -0.065 A 
HETATM    3  C3  UNL     1      26.188   8.048  49.341  1.00  0.00     0.006 A 
HETATM    4  C4  UNL     1      24.764   8.360  49.566  1.00  0.00     0.031 A 
HETATM    5  C5  UNL     1      23.727   7.557  49.288  1.00  0.00     0.048 A 
HETATM    6  C6  UNL     1      22.390   8.012  49.567  1.00  0.00     0.066 C 
HETATM    7  C7  UNL     1      21.406   7.747  50.419  1.00  0.00     0.079 C 
HETATM    8 CL1  UNL     1      19.924   8.649  50.307  1.00  0.00    -0.071 Cl
HETATM    9  N1  UNL     1      21.962   6.700  51.207  1.00  0.00    -0.259 NA
HETATM   10  C8  UNL     1      21.819   5.539  50.738  1.00  0.00     0.310 C 
HETATM   11  N2  UNL     1      21.546   4.303  50.024  1.00  0.00    -0.333 N 
HETATM   12  C9  UNL     1      20.343   4.184  50.743  1.00  0.00     0.246 C 
HETATM   13  N3  UNL     1      19.571   3.027  50.527  1.00  0.00    -0.398 N 
HETATM   14  C10 UNL     1      18.953   2.957  49.273  1.00  0.00     0.145 C 
HETATM   15  C11 UNL     1      18.887   2.425  51.582  1.00  0.00     0.145 C 
HETATM   16  C12 UNL     1      19.676   1.703  52.606  1.00  0.00    -0.006 C 
HETATM   17  C13 UNL     1      20.878   1.289  53.048  1.00  0.00     0.051 C 
HETATM   18  C14 UNL     1      21.901   1.740  52.120  1.00  0.00     0.381 A 
HETATM   19  O1  UNL     1      22.900   1.210  52.643  1.00  0.00    -0.139 OA
HETATM   20  N4  UNL     1      23.251   1.828  51.634  1.00  0.00     0.122 N 
HETATM   21  C15 UNL     1      24.618   1.468  51.735  1.00  0.00     0.324 C 
HETATM   22  C16 UNL     1      23.327   2.715  50.448  1.00  0.00     0.172 C 
HETATM   23  C17 UNL     1      23.795   3.952  50.250  1.00  0.00     0.067 C 
HETATM   24  C18 UNL     1      22.731   4.287  49.223  1.00  0.00     0.145 C 
HETATM   25  C19 UNL     1      22.858   3.154  48.254  1.00  0.00     0.029 C 
HETATM   26  C20 UNL     1      22.738   2.191  49.189  1.00  0.00     0.040 C 
HETATM   27  N5  UNL     1      22.921   5.469  48.500  1.00  0.00    -0.201 NA
HETATM   28  N6  UNL     1      24.009   6.258  48.724  1.00  0.00    -0.306 N 
HETATM   29  C21 UNL     1      25.368   5.854  48.422  1.00  0.00     0.177 A 
HETATM   30  H23 UNL     1      22.772   5.343  47.472  1.00  0.00     0.150 HD
ENDROOT
TORSDOF 0
ENDMDL
MODEL 8
REMARK VINA RESULT:      -7.6      2.681      5.740
REMARK  0 active torsions:
REMARK  status: ('A' for Active; 'I' for Inactive)
ROOT
HETATM    1  C1  UNL     1      26.985   6.189  48.583  1.00  0.00     0.045 C 
HETATM    2  C2  UNL     1      26.188   5.182  49.327  1.00  0.00    -0.065 A 
HETATM    3  C3  UNL     1      26.792   4.045  49.500  1.00  0.00     0.006 A 
HETATM    4  C4  UNL     1      25.975   3.064  50.240  1.00  0.00     0.031 A 
HETATM    5  C5  UNL     1      24.734   3.263  50.707  1.00  0.00     0.048 A 
HETATM    6  C6  UNL     1      24.069   2.200  51.414  1.00  0.00     0.066 C 
HETATM    7  C7  UNL     1      23.060   1.358  51.225  1.00  0.00     0.079 C 
HETATM    8 CL1  UNL     1      22.667   0.215  52.475  1.00  0.00    -0.071 Cl
HETATM    9  N1  UNL     1      22.597   1.725  49.930  1.00  0.00    -0.259 NA
HETATM   10  C8  UNL     1      21.763   2.671  49.906  1.00  0.00     0.310 C 
HETATM   11  N2  UNL     1      20.825   3.763  50.105  1.00  0.00    -0.333 N 
HETATM   12  C9  UNL     1      19.785   2.820  50.192  1.00  0.00     0.246 C 
HETATM   13  N3  UNL     1      18.474   3.311  50.329  1.00  0.00    -0.398 N 
HETATM   14  C10 UNL     1      18.191   3.897  51.569  1.00  0.00     0.145 C 
HETATM   15  C11 UNL     1      17.409   2.675  49.693  1.00  0.00     0.145 C 
HETATM   16  C12 UNL     1      17.298   2.798  48.222  1.00  0.00    -0.006 C 
HETATM   17  C13 UNL     1      17.782   3.303  47.072  1.00  0.00     0.051 C 
HETATM   18  C14 UNL     1      18.960   4.101  47.368  1.00  0.00     0.381 A 
HETATM   19  O1  UNL     1      19.208   4.530  46.226  1.00  0.00    -0.139 OA
HETATM   20  N4  UNL     1      20.044   4.977  47.017  1.00  0.00     0.122 N 
HETATM   21  C15 UNL     1      20.735   5.746  46.048  1.00  0.00     0.324 C 
HETATM   22  C16 UNL     1      20.902   5.251  48.194  1.00  0.00     0.172 C 
HETATM   23  C17 UNL     1      22.122   4.845  48.561  1.00  0.00     0.067 C 
HETATM   24  C18 UNL     1      21.772   4.833  50.037  1.00  0.00     0.145 C 
HETATM   25  C19 UNL     1      21.226   6.212  50.244  1.00  0.00     0.029 C 
HETATM   26  C20 UNL     1      20.324   6.127  49.246  1.00  0.00     0.040 C 
HETATM   27  N5  UNL     1      22.842   4.678  50.924  1.00  0.00    -0.201 NA
HETATM   28  N6  UNL     1      24.118   4.546  50.464  1.00  0.00    -0.306 N 
HETATM   29  C21 UNL     1      24.837   5.603  49.781  1.00  0.00     0.177 A 
HETATM   30  H23 UNL     1      22.812   5.360  51.717  1.00  0.00     0.150 HD
ENDROOT
TORSDOF 0
ENDMDL
MODEL 9
REMARK VINA RESULT:      -7.4      3.024      4.622
REMARK  0 active torsions:
REMARK  status: ('A' for Active; 'I' for Inactive)
ROOT
HETATM    1  C1  UNL     1      20.799  -0.985  53.731  1.00  0.00     0.045 C 
HETATM    2  C2  UNL     1      20.063   0.028  52.934  1.00  0.00    -0.065 A 
HETATM    3  C3  UNL     1      19.110  -0.461  52.197  1.00  0.00     0.006 A 
HETATM    4  C4  UNL     1      18.399   0.569  51.417  1.00  0.00     0.031 A 
HETATM    5  C5  UNL     1      18.662   1.884  51.420  1.00  0.00     0.048 A 
HETATM    6  C6  UNL     1      17.871   2.762  50.598  1.00  0.00     0.066 C 
HETATM    7  C7  UNL     1      18.014   3.494  49.500  1.00  0.00     0.079 C 
HETATM    8 CL1  UNL     1      16.657   4.409  48.910  1.00  0.00    -0.071 Cl
HETATM    9  N1  UNL     1      19.373   3.257  49.152  1.00  0.00    -0.259 NA
HETATM   10  C8  UNL     1      20.212   4.009  49.717  1.00  0.00     0.310 C 
HETATM   11  N2  UNL     1      20.998   4.971  50.471  1.00  0.00    -0.333 N 
HETATM   12  C9  UNL     1      20.895   5.865  49.390  1.00  0.00     0.246 C 
HETATM   13  N3  UNL     1      21.583   7.087  49.491  1.00  0.00    -0.398 N 
HETATM   14  C10 UNL     1      21.052   7.987  50.424  1.00  0.00     0.145 C 
HETATM   15  C11 UNL     1      22.192   7.653  48.371  1.00  0.00     0.145 C 
HETATM   16  C12 UNL     1      23.416   7.010  47.841  1.00  0.00    -0.006 C 
HETATM   17  C13 UNL     1      24.339   6.037  47.946  1.00  0.00     0.051 C 
HETATM   18  C14 UNL     1      24.023   5.211  49.100  1.00  0.00     0.381 A 
HETATM   19  O1  UNL     1      25.001   4.441  49.074  1.00  0.00    -0.139 OA
HETATM   20  N4  UNL     1      24.275   4.143  50.027  1.00  0.00     0.122 N 
HETATM   21  C15 UNL     1      25.107   3.095  50.495  1.00  0.00     0.324 C 
HETATM   22  C16 UNL     1      23.161   4.012  50.996  1.00  0.00     0.172 C 
HETATM   23  C17 UNL     1      22.171   3.127  51.149  1.00  0.00     0.067 C 
HETATM   24  C18 UNL     1      21.191   4.174  51.643  1.00  0.00     0.145 C 
HETATM   25  C19 UNL     1      21.950   4.816  52.762  1.00  0.00     0.029 C 
HETATM   26  C20 UNL     1      23.042   5.085  52.018  1.00  0.00     0.040 C 
HETATM   27  N5  UNL     1      19.994   3.693  52.183  1.00  0.00    -0.201 NA
HETATM   28  N6  UNL     1      19.745   2.355  52.250  1.00  0.00    -0.306 N 
HETATM   29  C21 UNL     1      20.492   1.442  53.093  1.00  0.00     0.177 A 
HETATM   30  H23 UNL     1      19.745   4.152  53.090  1.00  0.00     0.150 HD
ENDROOT
TORSDOF 0
ENDMDL
