MODEL 1
REMARK VINA RESULT:      -6.5      0.000      0.000
REMARK  1 active torsions:
REMARK  status: ('A' for Active; 'I' for Inactive)
REMARK    1  A    between atoms: O1_2  and  C2_3 
ROOT
HETATM    1  C2  UNL     1      24.872   1.908  51.732  1.00  0.00     0.085 C 
HETATM    2  C3  UNL     1      24.425   1.392  52.953  1.00  0.00     0.037 C 
HETATM    3  C4  UNL     1      22.954   1.019  52.897  1.00  0.00     0.036 C 
HETATM    4  C5  UNL     1      22.442   1.228  51.770  1.00  0.00     0.085 A 
HETATM    5  C6  UNL     1      22.896   1.753  50.522  1.00  0.00     0.104 A 
HETATM    6  N1  UNL     1      22.653   1.911  49.305  1.00  0.00    -0.240 NA
HETATM    7  C7  UNL     1      21.370   1.407  48.818  1.00  0.00     0.256 A 
HETATM    8  N2  UNL     1      20.713   0.875  49.842  1.00  0.00    -0.161 NA
HETATM    9  N3  UNL     1      21.297   0.857  51.105  1.00  0.00    -0.242 N 
HETATM   10  C8  UNL     1      20.199   0.587  51.981  1.00  0.00     0.116 C 
HETATM   11  C9  UNL     1      20.060   1.878  52.364  1.00  0.00     0.012 C 
HETATM   12  C10 UNL     1      20.430   3.275  52.345  1.00  0.00     0.145 C 
HETATM   13  N4  UNL     1      21.457   3.890  51.695  1.00  0.00    -0.406 N 
HETATM   14  C11 UNL     1      21.424   4.357  50.348  1.00  0.00     0.147 C 
HETATM   15  C12 UNL     1      22.770   4.343  49.676  1.00  0.00     0.293 C 
HETATM   16  N5  UNL     1      23.890   3.987  50.568  1.00  0.00     0.108 NA
HETATM   17  C13 UNL     1      23.620   5.003  51.652  1.00  0.00     0.293 C 
HETATM   18  C14 UNL     1      22.394   4.697  52.463  1.00  0.00     0.147 C 
HETATM   19  C15 UNL     1      23.861   2.736  51.165  1.00  0.00     0.333 C 
ENDROOT
BRANCH   1  20
HETATM   20  O1  UNL     1      26.152   1.396  51.554  1.00  0.00    -0.358 OA
HETATM   21  C1  UNL     1      26.537   0.143  52.087  1.00  0.00     0.209 C 
ENDBRANCH   1  20
TORSDOF 1
ENDMDL
MODEL 2
REMARK VINA RESULT:      -6.3      1.837      4.089
REMARK  1 active torsions:
REMARK  status: ('A' for Active; 'I' for Inactive)
REMARK    1  A    between atoms: O1_2  and  C2_3 
ROOT
HETATM    1  C2  UNL     1      21.855   0.856  53.003  1.00  0.00     0.085 C 
HETATM    2  C3  UNL     1      23.101   0.291  52.707  1.00  0.00     0.037 C 
HETATM    3  C4  UNL     1      24.020   1.292  52.031  1.00  0.00     0.036 C 
HETATM    4  C5  UNL     1      23.492   2.422  51.891  1.00  0.00     0.085 A 
HETATM    5  C6  UNL     1      22.222   3.001  52.193  1.00  0.00     0.104 A 
HETATM    6  N1  UNL     1      21.550   4.052  52.291  1.00  0.00    -0.240 NA
HETATM    7  C7  UNL     1      22.229   5.302  51.957  1.00  0.00     0.256 A 
HETATM    8  N2  UNL     1      23.474   5.019  51.595  1.00  0.00    -0.161 NA
HETATM    9  N3  UNL     1      23.915   3.699  51.608  1.00  0.00    -0.242 N 
HETATM   10  C8  UNL     1      25.109   3.736  50.821  1.00  0.00     0.116 C 
HETATM   11  C9  UNL     1      24.511   3.238  49.713  1.00  0.00     0.012 C 
HETATM   12  C10 UNL     1      23.376   2.725  48.982  1.00  0.00     0.145 C 
HETATM   13  N4  UNL     1      22.106   2.481  49.413  1.00  0.00    -0.406 N 
HETATM   14  C11 UNL     1      21.052   3.439  49.470  1.00  0.00     0.147 C 
HETATM   15  C12 UNL     1      20.047   3.160  50.554  1.00  0.00     0.293 C 
HETATM   16  N5  UNL     1      20.256   1.883  51.262  1.00  0.00     0.108 NA
HETATM   17  C13 UNL     1      20.299   0.981  50.051  1.00  0.00     0.293 C 
HETATM   18  C14 UNL     1      21.542   1.152  49.226  1.00  0.00     0.147 C 
HETATM   19  C15 UNL     1      21.455   1.713  51.939  1.00  0.00     0.333 C 
ENDROOT
BRANCH   1  20
HETATM   20  O1  UNL     1      21.497   0.343  54.245  1.00  0.00    -0.358 OA
HETATM   21  C1  UNL     1      21.702  -1.015  54.581  1.00  0.00     0.209 C 
ENDBRANCH   1  20
TORSDOF 1
ENDMDL
MODEL 3
REMARK VINA RESULT:      -6.0      9.945     12.017
REMARK  1 active torsions:
REMARK  status: ('A' for Active; 'I' for Inactive)
REMARK    1  A    between atoms: O1_2  and  C2_3 
ROOT
HETATM    1  C2  UNL     1      30.732   7.736  48.322  1.00  0.00     0.085 C 
HETATM    2  C3  UNL     1      29.876   6.655  48.083  1.00  0.00     0.037 C 
HETATM    3  C4  UNL     1      30.651   5.374  47.832  1.00  0.00     0.036 C 
HETATM    4  C5  UNL     1      31.894   5.534  47.908  1.00  0.00     0.085 A 
HETATM    5  C6  UNL     1      32.770   6.635  48.153  1.00  0.00     0.104 A 
HETATM    6  N1  UNL     1      33.937   7.003  48.414  1.00  0.00    -0.240 NA
HETATM    7  C7  UNL     1      34.951   5.955  48.519  1.00  0.00     0.256 A 
HETATM    8  N2  UNL     1      34.369   4.784  48.289  1.00  0.00    -0.161 NA
HETATM    9  N3  UNL     1      33.003   4.730  48.029  1.00  0.00    -0.242 N 
HETATM   10  C8  UNL     1      32.818   3.427  47.468  1.00  0.00     0.116 C 
HETATM   11  C9  UNL     1      32.765   3.878  46.192  1.00  0.00     0.012 C 
HETATM   12  C10 UNL     1      32.792   4.919  45.191  1.00  0.00     0.145 C 
HETATM   13  N4  UNL     1      32.878   6.270  45.348  1.00  0.00    -0.406 N 
HETATM   14  C11 UNL     1      34.087   7.012  45.489  1.00  0.00     0.147 C 
HETATM   15  C12 UNL     1      33.927   8.269  46.301  1.00  0.00     0.293 C 
HETATM   16  N5  UNL     1      32.535   8.573  46.681  1.00  0.00     0.108 NA
HETATM   17  C13 UNL     1      31.926   8.509  45.300  1.00  0.00     0.293 C 
HETATM   18  C14 UNL     1      31.859   7.116  44.744  1.00  0.00     0.147 C 
HETATM   19  C15 UNL     1      31.867   7.645  47.465  1.00  0.00     0.333 C 
ENDROOT
BRANCH   1  20
HETATM   20  O1  UNL     1      30.122   8.484  49.322  1.00  0.00    -0.358 OA
HETATM   21  C1  UNL     1      30.170   9.898  49.333  1.00  0.00     0.209 C 
ENDBRANCH   1  20
TORSDOF 1
ENDMDL
MODEL 4
REMARK VINA RESULT:      -6.0     22.873     25.200
REMARK  1 active torsions:
REMARK  status: ('A' for Active; 'I' for Inactive)
REMARK    1  A    between atoms: O1_2  and  C2_3 
ROOT
HETATM    1  C2  UNL     1      42.330   0.428  68.056  1.00  0.00     0.085 C 
HETATM    2  C3  UNL     1      43.154  -0.561  68.606  1.00  0.00     0.037 C 
HETATM    3  C4  UNL     1      42.476  -1.920  68.597  1.00  0.00     0.036 C 
HETATM    4  C5  UNL     1      41.331  -1.890  68.084  1.00  0.00     0.085 A 
HETATM    5  C6  UNL     1      40.490  -0.883  67.520  1.00  0.00     0.104 A 
HETATM    6  N1  UNL     1      39.459  -0.636  66.856  1.00  0.00    -0.240 NA
HETATM    7  C7  UNL     1      38.661  -1.782  66.425  1.00  0.00     0.256 A 
HETATM    8  N2  UNL     1      39.242  -2.889  66.872  1.00  0.00    -0.161 NA
HETATM    9  N3  UNL     1      40.426  -2.803  67.598  1.00  0.00    -0.242 N 
HETATM   10  C8  UNL     1      40.534  -4.088  68.219  1.00  0.00     0.116 C 
HETATM   11  C9  UNL     1      40.086  -3.653  69.420  1.00  0.00     0.012 C 
HETATM   12  C10 UNL     1      39.601  -2.635  70.324  1.00  0.00     0.145 C 
HETATM   13  N4  UNL     1      39.437  -1.299  70.115  1.00  0.00    -0.406 N 
HETATM   14  C11 UNL     1      38.286  -0.685  69.540  1.00  0.00     0.147 C 
HETATM   15  C12 UNL     1      38.591   0.593  68.807  1.00  0.00     0.293 C 
HETATM   16  N5  UNL     1      39.989   1.047  68.936  1.00  0.00     0.108 NA
HETATM   17  C13 UNL     1      40.074   1.026  70.443  1.00  0.00     0.293 C 
HETATM   18  C14 UNL     1      40.084  -0.360  71.020  1.00  0.00     0.147 C 
HETATM   19  C15 UNL     1      40.982   0.206  68.460  1.00  0.00     0.333 C 
ENDROOT
BRANCH   1  20
HETATM   20  O1  UNL     1      43.174   1.250  67.318  1.00  0.00    -0.358 OA
HETATM   21  C1  UNL     1      44.099   2.122  67.939  1.00  0.00     0.209 C 
ENDBRANCH   1  20
TORSDOF 1
ENDMDL
MODEL 5
REMARK VINA RESULT:      -5.9      1.556      3.967
REMARK  1 active torsions:
REMARK  status: ('A' for Active; 'I' for Inactive)
REMARK    1  A    between atoms: O1_2  and  C2_3 
ROOT
HETATM    1  C2  UNL     1      24.912   1.260  52.999  1.00  0.00     0.085 C 
HETATM    2  C3  UNL     1      25.787   0.968  51.946  1.00  0.00     0.037 C 
HETATM    3  C4  UNL     1      25.798   2.076  50.907  1.00  0.00     0.036 C 
HETATM    4  C5  UNL     1      25.042   3.033  51.207  1.00  0.00     0.085 A 
HETATM    5  C6  UNL     1      24.150   3.333  52.281  1.00  0.00     0.104 A 
HETATM    6  N1  UNL     1      23.457   4.205  52.850  1.00  0.00    -0.240 NA
HETATM    7  C7  UNL     1      23.444   5.536  52.244  1.00  0.00     0.256 A 
HETATM    8  N2  UNL     1      24.209   5.510  51.159  1.00  0.00    -0.161 NA
HETATM    9  N3  UNL     1      24.866   4.335  50.804  1.00  0.00    -0.242 N 
HETATM   10  C8  UNL     1      25.248   4.561  49.444  1.00  0.00     0.116 C 
HETATM   11  C9  UNL     1      24.233   3.824  48.934  1.00  0.00     0.012 C 
HETATM   12  C10 UNL     1      23.060   2.989  49.054  1.00  0.00     0.145 C 
HETATM   13  N4  UNL     1      22.451   2.507  50.174  1.00  0.00    -0.406 N 
HETATM   14  C11 UNL     1      21.471   3.197  50.947  1.00  0.00     0.147 C 
HETATM   15  C12 UNL     1      21.475   2.812  52.401  1.00  0.00     0.293 C 
HETATM   16  N5  UNL     1      22.387   1.700  52.732  1.00  0.00     0.108 NA
HETATM   17  C13 UNL     1      21.880   0.709  51.711  1.00  0.00     0.293 C 
HETATM   18  C14 UNL     1      22.241   1.072  50.299  1.00  0.00     0.147 C 
HETATM   19  C15 UNL     1      23.738   1.884  52.486  1.00  0.00     0.333 C 
ENDROOT
BRANCH   1  20
HETATM   20  O1  UNL     1      25.550   0.814  54.150  1.00  0.00    -0.358 OA
HETATM   21  C1  UNL     1      26.908   0.417  54.147  1.00  0.00     0.209 C 
ENDBRANCH   1  20
TORSDOF 1
ENDMDL
MODEL 6
REMARK VINA RESULT:      -5.9      7.625     10.082
REMARK  1 active torsions:
REMARK  status: ('A' for Active; 'I' for Inactive)
REMARK    1  A    between atoms: O1_2  and  C2_3 
ROOT
HETATM    1  C2  UNL     1      27.176   6.873  48.727  1.00  0.00     0.085 C 
HETATM    2  C3  UNL     1      27.776   5.681  48.303  1.00  0.00     0.037 C 
HETATM    3  C4  UNL     1      29.276   5.842  48.131  1.00  0.00     0.036 C 
HETATM    4  C5  UNL     1      29.679   6.995  48.420  1.00  0.00     0.085 A 
HETATM    5  C6  UNL     1      29.070   8.212  48.855  1.00  0.00     0.104 A 
HETATM    6  N1  UNL     1      29.246   9.358  49.322  1.00  0.00    -0.240 NA
HETATM    7  C7  UNL     1      30.629   9.773  49.550  1.00  0.00     0.256 A 
HETATM    8  N2  UNL     1      31.430   8.782  49.177  1.00  0.00    -0.161 NA
HETATM    9  N3  UNL     1      30.885   7.598  48.690  1.00  0.00    -0.242 N 
HETATM   10  C8  UNL     1      31.991   6.955  48.051  1.00  0.00     0.116 C 
HETATM   11  C9  UNL     1      31.610   7.321  46.805  1.00  0.00     0.012 C 
HETATM   12  C10 UNL     1      30.725   7.973  45.867  1.00  0.00     0.145 C 
HETATM   13  N4  UNL     1      29.546   8.618  46.094  1.00  0.00    -0.406 N 
HETATM   14  C11 UNL     1      29.409   9.988  46.466  1.00  0.00     0.147 C 
HETATM   15  C12 UNL     1      28.183  10.264  47.292  1.00  0.00     0.293 C 
HETATM   16  N5  UNL     1      27.282   9.107  47.447  1.00  0.00     0.108 NA
HETATM   17  C13 UNL     1      27.120   8.775  45.983  1.00  0.00     0.293 C 
HETATM   18  C14 UNL     1      28.360   8.195  45.364  1.00  0.00     0.147 C 
HETATM   19  C15 UNL     1      27.790   7.977  48.068  1.00  0.00     0.333 C 
ENDROOT
BRANCH   1  20
HETATM   20  O1  UNL     1      26.200   6.496  49.642  1.00  0.00    -0.358 OA
HETATM   21  C1  UNL     1      25.422   7.449  50.340  1.00  0.00     0.209 C 
ENDBRANCH   1  20
TORSDOF 1
ENDMDL
MODEL 7
REMARK VINA RESULT:      -5.8      2.163      3.853
REMARK  1 active torsions:
REMARK  status: ('A' for Active; 'I' for Inactive)
REMARK    1  A    between atoms: O1_2  and  C2_3 
ROOT
HETATM    1  C2  UNL     1      22.220   3.682  47.959  1.00  0.00     0.085 C 
HETATM    2  C3  UNL     1      22.334   2.337  47.590  1.00  0.00     0.037 C 
HETATM    3  C4  UNL     1      21.767   1.416  48.655  1.00  0.00     0.036 C 
HETATM    4  C5  UNL     1      21.295   2.039  49.638  1.00  0.00     0.085 A 
HETATM    5  C6  UNL     1      21.176   3.411  50.016  1.00  0.00     0.104 A 
HETATM    6  N1  UNL     1      20.656   4.237  50.799  1.00  0.00    -0.240 NA
HETATM    7  C7  UNL     1      19.788   3.698  51.844  1.00  0.00     0.256 A 
HETATM    8  N2  UNL     1      19.756   2.377  51.723  1.00  0.00    -0.161 NA
HETATM    9  N3  UNL     1      20.470   1.759  50.701  1.00  0.00    -0.242 N 
HETATM   10  C8  UNL     1      20.519   0.387  51.106  1.00  0.00     0.116 C 
HETATM   11  C9  UNL     1      21.788   0.469  51.571  1.00  0.00     0.012 C 
HETATM   12  C10 UNL     1      23.020   1.175  51.839  1.00  0.00     0.145 C 
HETATM   13  N4  UNL     1      23.367   2.457  51.534  1.00  0.00    -0.406 N 
HETATM   14  C11 UNL     1      23.075   3.606  52.326  1.00  0.00     0.147 C 
HETATM   15  C12 UNL     1      22.926   4.867  51.519  1.00  0.00     0.293 C 
HETATM   16  N5  UNL     1      23.245   4.713  50.087  1.00  0.00     0.108 NA
HETATM   17  C13 UNL     1      24.616   4.101  50.247  1.00  0.00     0.293 C 
HETATM   18  C14 UNL     1      24.583   2.694  50.769  1.00  0.00     0.147 C 
HETATM   19  C15 UNL     1      22.482   3.818  49.353  1.00  0.00     0.333 C 
ENDROOT
BRANCH   1  20
HETATM   20  O1  UNL     1      21.889   4.364  46.794  1.00  0.00    -0.358 OA
HETATM   21  C1  UNL     1      21.928   3.740  45.525  1.00  0.00     0.209 C 
ENDBRANCH   1  20
TORSDOF 1
ENDMDL
MODEL 8
REMARK VINA RESULT:      -5.7      2.444      5.020
REMARK  1 active torsions:
REMARK  status: ('A' for Active; 'I' for Inactive)
REMARK    1  A    between atoms: O1_2  and  C2_3 
ROOT
HETATM    1  C2  UNL     1      25.896   3.355  50.673  1.00  0.00     0.085 C 
HETATM    2  C3  UNL     1      26.619   3.564  49.493  1.00  0.00     0.037 C 
HETATM    3  C4  UNL     1      26.266   4.894  48.851  1.00  0.00     0.036 C 
HETATM    4  C5  UNL     1      25.418   5.544  49.510  1.00  0.00     0.085 A 
HETATM    5  C6  UNL     1      24.680   5.334  50.714  1.00  0.00     0.104 A 
HETATM    6  N1  UNL     1      23.952   5.843  51.594  1.00  0.00    -0.240 NA
HETATM    7  C7  UNL     1      23.610   7.255  51.432  1.00  0.00     0.256 A 
HETATM    8  N2  UNL     1      24.175   7.697  50.316  1.00  0.00    -0.161 NA
HETATM    9  N3  UNL     1      24.955   6.838  49.548  1.00  0.00    -0.242 N 
HETATM   10  C8  UNL     1      25.060   7.511  48.290  1.00  0.00     0.116 C 
HETATM   11  C9  UNL     1      24.117   6.747  47.692  1.00  0.00     0.012 C 
HETATM   12  C10 UNL     1      23.142   5.680  47.675  1.00  0.00     0.145 C 
HETATM   13  N4  UNL     1      22.820   4.786  48.652  1.00  0.00    -0.406 N 
HETATM   14  C11 UNL     1      21.880   5.007  49.701  1.00  0.00     0.147 C 
HETATM   15  C12 UNL     1      22.193   4.240  50.957  1.00  0.00     0.293 C 
HETATM   16  N5  UNL     1      23.324   3.302  50.829  1.00  0.00     0.108 NA
HETATM   17  C13 UNL     1      22.832   2.551  49.615  1.00  0.00     0.293 C 
HETATM   18  C14 UNL     1      22.884   3.363  48.352  1.00  0.00     0.147 C 
HETATM   19  C15 UNL     1      24.564   3.832  50.507  1.00  0.00     0.333 C 
ENDROOT
BRANCH   1  20
HETATM   20  O1  UNL     1      26.784   2.753  51.556  1.00  0.00    -0.358 OA
HETATM   21  C1  UNL     1      26.732   1.368  51.842  1.00  0.00     0.209 C 
ENDBRANCH   1  20
TORSDOF 1
ENDMDL
MODEL 9
REMARK VINA RESULT:      -5.6      2.121      3.960
REMARK  1 active torsions:
REMARK  status: ('A' for Active; 'I' for Inactive)
REMARK    1  A    between atoms: O1_2  and  C2_3 
ROOT
HETATM    1  C2  UNL     1      22.099   3.210  48.185  1.00  0.00     0.085 C 
HETATM    2  C3  UNL     1      23.377   3.775  48.255  1.00  0.00     0.037 C 
HETATM    3  C4  UNL     1      24.093   3.380  49.535  1.00  0.00     0.036 C 
HETATM    4  C5  UNL     1      23.410   2.615  50.259  1.00  0.00     0.085 A 
HETATM    5  C6  UNL     1      22.107   2.035  50.189  1.00  0.00     0.104 A 
HETATM    6  N1  UNL     1      21.314   1.190  50.659  1.00  0.00    -0.240 NA
HETATM    7  C7  UNL     1      21.790   0.397  51.791  1.00  0.00     0.256 A 
HETATM    8  N2  UNL     1      23.025   0.785  52.085  1.00  0.00    -0.161 NA
HETATM    9  N3  UNL     1      23.635   1.782  51.329  1.00  0.00    -0.242 N 
HETATM   10  C8  UNL     1      24.739   2.192  52.141  1.00  0.00     0.116 C 
HETATM   11  C9  UNL     1      24.116   3.303  52.599  1.00  0.00     0.012 C 
HETATM   12  C10 UNL     1      22.997   4.214  52.676  1.00  0.00     0.145 C 
HETATM   13  N4  UNL     1      21.814   4.192  51.999  1.00  0.00    -0.406 N 
HETATM   14  C11 UNL     1      20.652   3.462  52.386  1.00  0.00     0.147 C 
HETATM   15  C12 UNL     1      19.793   3.044  51.223  1.00  0.00     0.293 C 
HETATM   16  N5  UNL     1      20.231   3.581  49.921  1.00  0.00     0.108 NA
HETATM   17  C13 UNL     1      20.284   5.040  50.308  1.00  0.00     0.293 C 
HETATM   18  C14 UNL     1      21.415   5.368  51.240  1.00  0.00     0.147 C 
HETATM   19  C15 UNL     1      21.496   3.231  49.476  1.00  0.00     0.333 C 
ENDROOT
BRANCH   1  20
HETATM   20  O1  UNL     1      21.923   2.844  46.856  1.00  0.00    -0.358 OA
HETATM   21  C1  UNL     1      21.840   3.805  45.821  1.00  0.00     0.209 C 
ENDBRANCH   1  20
TORSDOF 1
ENDMDL
