MODEL 1
REMARK VINA RESULT:      -8.2      0.000      0.000
REMARK  2 active torsions:
REMARK  status: ('A' for Active; 'I' for Inactive)
REMARK    1  A    between atoms: C11_14  and  S1_15 
REMARK    2  A    between atoms: S1_15  and  N3_16 
ROOT
HETATM    1  C1  UNL     1      23.048   3.483  48.519  1.00  0.00     0.050 C 
HETATM    2  C2  UNL     1      24.230   3.806  49.369  1.00  0.00    -0.038 C 
HETATM    3  C3  UNL     1      24.820   5.011  49.239  1.00  0.00     0.090 C 
HETATM    4  N1  UNL     1      25.910   5.085  50.137  1.00  0.00    -0.394 N 
HETATM    5  C4  UNL     1      26.271   3.635  50.186  1.00  0.00     0.159 C 
HETATM    6  C5  UNL     1      24.945   3.021  50.403  1.00  0.00    -0.017 C 
HETATM    7  C6  UNL     1      24.380   2.147  51.198  1.00  0.00     0.053 A 
HETATM    8  C7  UNL     1      23.002   1.722  51.308  1.00  0.00     0.257 A 
HETATM    9  O1  UNL     1      21.976   2.082  50.732  1.00  0.00    -0.267 OA
HETATM   10  N2  UNL     1      22.873   0.699  52.283  1.00  0.00    -0.322 N 
HETATM   11  C8  UNL     1      24.158   0.431  52.831  1.00  0.00     0.046 A 
HETATM   12  C9  UNL     1      24.520  -0.482  53.796  1.00  0.00     0.032 A 
HETATM   13  C10 UNL     1      25.843  -0.569  54.160  1.00  0.00     0.027 A 
HETATM   14  C11 UNL     1      26.780   0.247  53.567  1.00  0.00     0.075 A 
HETATM   15  C12 UNL     1      26.334   1.127  52.617  1.00  0.00     0.039 A 
HETATM   16  C13 UNL     1      25.041   1.298  52.177  1.00  0.00     0.009 A 
HETATM   17  H5  UNL     1      26.317   5.909  50.608  1.00  0.00     0.159 HD
HETATM   18  H8  UNL     1      22.000   0.191  52.587  1.00  0.00     0.169 HD
ENDROOT
BRANCH  14  19
HETATM   19  S1  UNL     1      28.450   0.100  54.064  1.00  0.00     0.239 S 
HETATM   20  O2  UNL     1      28.930  -1.307  53.837  1.00  0.00    -0.206 OA
HETATM   21  O3  UNL     1      28.557   0.512  55.503  1.00  0.00    -0.206 OA
BRANCH  19  22
HETATM   22  N3  UNL     1      29.371   1.232  53.135  1.00  0.00    -0.225 NA
HETATM   23  H11 UNL     1      29.830   0.781  52.310  1.00  0.00     0.136 HD
HETATM   24  H12 UNL     1      28.778   2.000  52.731  1.00  0.00     0.136 HD
ENDBRANCH  19  22
ENDBRANCH  14  19
TORSDOF 2
ENDMDL
MODEL 2
REMARK VINA RESULT:      -8.1      2.014      4.404
REMARK  2 active torsions:
REMARK  status: ('A' for Active; 'I' for Inactive)
REMARK    1  A    between atoms: C11_14  and  S1_15 
REMARK    2  A    between atoms: S1_15  and  N3_16 
ROOT
HETATM    1  C1  UNL     1      19.929   0.604  53.354  1.00  0.00     0.050 C 
HETATM    2  C2  UNL     1      21.068  -0.286  53.718  1.00  0.00    -0.038 C 
HETATM    3  C3  UNL     1      20.809  -1.512  54.214  1.00  0.00     0.090 C 
HETATM    4  N1  UNL     1      22.034  -2.165  54.486  1.00  0.00    -0.394 N 
HETATM    5  C4  UNL     1      22.875  -0.965  54.786  1.00  0.00     0.159 C 
HETATM    6  C5  UNL     1      22.536  -0.090  53.645  1.00  0.00    -0.017 C 
HETATM    7  C6  UNL     1      23.147   0.628  52.736  1.00  0.00     0.053 A 
HETATM    8  C7  UNL     1      22.623   1.378  51.616  1.00  0.00     0.257 A 
HETATM    9  O1  UNL     1      21.483   1.521  51.174  1.00  0.00    -0.267 OA
HETATM   10  N2  UNL     1      23.671   2.053  50.936  1.00  0.00    -0.322 N 
HETATM   11  C8  UNL     1      24.898   1.760  51.592  1.00  0.00     0.046 A 
HETATM   12  C9  UNL     1      26.171   2.196  51.294  1.00  0.00     0.032 A 
HETATM   13  C10 UNL     1      27.213   1.784  52.090  1.00  0.00     0.027 A 
HETATM   14  C11 UNL     1      26.980   0.951  53.161  1.00  0.00     0.075 A 
HETATM   15  C12 UNL     1      25.685   0.565  53.386  1.00  0.00     0.039 A 
HETATM   16  C13 UNL     1      24.570   0.915  52.658  1.00  0.00     0.009 A 
HETATM   17  H5  UNL     1      22.257  -3.173  54.474  1.00  0.00     0.159 HD
HETATM   18  H8  UNL     1      23.605   2.675  50.086  1.00  0.00     0.169 HD
ENDROOT
BRANCH  14  19
HETATM   19  S1  UNL     1      28.338   0.454  54.143  1.00  0.00     0.239 S 
HETATM   20  O2  UNL     1      29.260  -0.420  53.339  1.00  0.00    -0.206 OA
HETATM   21  O3  UNL     1      27.814  -0.243  55.364  1.00  0.00    -0.206 OA
BRANCH  19  22
HETATM   22  N3  UNL     1      29.147   1.888  54.678  1.00  0.00    -0.225 NA
HETATM   23  H11 UNL     1      29.225   2.601  53.916  1.00  0.00     0.136 HD
HETATM   24  H12 UNL     1      28.634   2.374  55.456  1.00  0.00     0.136 HD
ENDBRANCH  19  22
ENDBRANCH  14  19
TORSDOF 2
ENDMDL
MODEL 3
REMARK VINA RESULT:      -8.0      3.138      4.006
REMARK  2 active torsions:
REMARK  status: ('A' for Active; 'I' for Inactive)
REMARK    1  A    between atoms: C11_14  and  S1_15 
REMARK    2  A    between atoms: S1_15  and  N3_16 
ROOT
HETATM    1  C1  UNL     1      18.565   0.036  50.674  1.00  0.00     0.050 C 
HETATM    2  C2  UNL     1      19.834   0.817  50.725  1.00  0.00    -0.038 C 
HETATM    3  C3  UNL     1      19.934   1.951  50.004  1.00  0.00     0.090 C 
HETATM    4  N1  UNL     1      21.217   2.511  50.207  1.00  0.00    -0.394 N 
HETATM    5  C4  UNL     1      21.981   1.253  50.471  1.00  0.00     0.159 C 
HETATM    6  C5  UNL     1      21.103   0.591  51.458  1.00  0.00    -0.017 C 
HETATM    7  C6  UNL     1      21.194   0.016  52.631  1.00  0.00     0.053 A 
HETATM    8  C7  UNL     1      20.171  -0.520  53.501  1.00  0.00     0.257 A 
HETATM    9  O1  UNL     1      18.944  -0.552  53.416  1.00  0.00    -0.267 OA
HETATM   10  N2  UNL     1      20.756  -1.103  54.656  1.00  0.00    -0.322 N 
HETATM   11  C8  UNL     1      22.169  -0.962  54.567  1.00  0.00     0.046 A 
HETATM   12  C9  UNL     1      23.143  -1.381  55.447  1.00  0.00     0.032 A 
HETATM   13  C10 UNL     1      24.460  -1.139  55.138  1.00  0.00     0.027 A 
HETATM   14  C11 UNL     1      24.790  -0.490  53.969  1.00  0.00     0.075 A 
HETATM   15  C12 UNL     1      23.760  -0.107  53.151  1.00  0.00     0.039 A 
HETATM   16  C13 UNL     1      22.412  -0.297  53.360  1.00  0.00     0.009 A 
HETATM   17  H5  UNL     1      21.513   3.500  50.177  1.00  0.00     0.159 HD
HETATM   18  H8  UNL     1      20.274  -1.573  55.468  1.00  0.00     0.169 HD
ENDROOT
BRANCH  14  19
HETATM   19  S1  UNL     1      26.479  -0.205  53.620  1.00  0.00     0.239 S 
HETATM   20  O2  UNL     1      26.618   0.504  52.301  1.00  0.00    -0.206 OA
HETATM   21  O3  UNL     1      27.198  -1.522  53.637  1.00  0.00    -0.206 OA
BRANCH  19  22
HETATM   22  N3  UNL     1      27.124   0.749  54.912  1.00  0.00    -0.225 NA
HETATM   23  H11 UNL     1      26.593   1.641  55.044  1.00  0.00     0.136 HD
HETATM   24  H12 UNL     1      27.072   0.259  55.841  1.00  0.00     0.136 HD
ENDBRANCH  19  22
ENDBRANCH  14  19
TORSDOF 2
ENDMDL
MODEL 4
REMARK VINA RESULT:      -7.9      4.201      6.864
REMARK  2 active torsions:
REMARK  status: ('A' for Active; 'I' for Inactive)
REMARK    1  A    between atoms: C11_14  and  S1_15 
REMARK    2  A    between atoms: S1_15  and  N3_16 
ROOT
HETATM    1  C1  UNL     1      25.309  -0.707  55.890  1.00  0.00     0.050 C 
HETATM    2  C2  UNL     1      25.253  -0.533  54.410  1.00  0.00    -0.038 C 
HETATM    3  C3  UNL     1      26.379  -0.699  53.688  1.00  0.00     0.090 C 
HETATM    4  N1  UNL     1      26.084  -0.482  52.322  1.00  0.00    -0.394 N 
HETATM    5  C4  UNL     1      24.959   0.492  52.479  1.00  0.00     0.159 C 
HETATM    6  C5  UNL     1      24.136  -0.190  53.498  1.00  0.00    -0.017 C 
HETATM    7  C6  UNL     1      22.886  -0.531  53.690  1.00  0.00     0.053 A 
HETATM    8  C7  UNL     1      22.267  -1.290  54.754  1.00  0.00     0.257 A 
HETATM    9  O1  UNL     1      22.729  -1.861  55.742  1.00  0.00    -0.267 OA
HETATM   10  N2  UNL     1      20.862  -1.357  54.566  1.00  0.00    -0.322 N 
HETATM   11  C8  UNL     1      20.531  -0.646  53.379  1.00  0.00     0.046 A 
HETATM   12  C9  UNL     1      19.296  -0.436  52.806  1.00  0.00     0.032 A 
HETATM   13  C10 UNL     1      19.222   0.302  51.649  1.00  0.00     0.027 A 
HETATM   14  C11 UNL     1      20.365   0.817  51.081  1.00  0.00     0.075 A 
HETATM   15  C12 UNL     1      21.552   0.561  51.716  1.00  0.00     0.039 A 
HETATM   16  C13 UNL     1      21.742  -0.162  52.872  1.00  0.00     0.009 A 
HETATM   17  H5  UNL     1      26.527  -0.888  51.483  1.00  0.00     0.159 HD
HETATM   18  H8  UNL     1      20.142  -1.836  55.170  1.00  0.00     0.169 HD
ENDROOT
BRANCH  14  19
HETATM   19  S1  UNL     1      20.220   1.749  49.609  1.00  0.00     0.239 S 
HETATM   20  O2  UNL     1      21.176   1.225  48.574  1.00  0.00    -0.206 OA
HETATM   21  O3  UNL     1      20.468   3.194  49.933  1.00  0.00    -0.206 OA
BRANCH  19  22
HETATM   22  N3  UNL     1      18.581   1.619  49.069  1.00  0.00    -0.225 NA
HETATM   23  H11 UNL     1      18.261   0.623  49.025  1.00  0.00     0.136 HD
HETATM   24  H12 UNL     1      17.904   2.095  49.717  1.00  0.00     0.136 HD
ENDBRANCH  19  22
ENDBRANCH  14  19
TORSDOF 2
ENDMDL
MODEL 5
REMARK VINA RESULT:      -7.8      2.976      5.514
REMARK  2 active torsions:
REMARK  status: ('A' for Active; 'I' for Inactive)
REMARK    1  A    between atoms: C11_14  and  S1_15 
REMARK    2  A    between atoms: S1_15  and  N3_16 
ROOT
HETATM    1  C1  UNL     1      21.573  -2.007  54.422  1.00  0.00     0.050 C 
HETATM    2  C2  UNL     1      21.458  -0.638  53.840  1.00  0.00    -0.038 C 
HETATM    3  C3  UNL     1      20.272  -0.001  53.895  1.00  0.00     0.090 C 
HETATM    4  N1  UNL     1      20.406   1.268  53.283  1.00  0.00    -0.394 N 
HETATM    5  C4  UNL     1      21.482   0.938  52.298  1.00  0.00     0.159 C 
HETATM    6  C5  UNL     1      22.449   0.232  53.163  1.00  0.00    -0.017 C 
HETATM    7  C6  UNL     1      23.730   0.254  53.435  1.00  0.00     0.053 A 
HETATM    8  C7  UNL     1      24.502  -0.491  54.403  1.00  0.00     0.257 A 
HETATM    9  O1  UNL     1      24.184  -1.312  55.263  1.00  0.00    -0.267 OA
HETATM   10  N2  UNL     1      25.881  -0.170  54.294  1.00  0.00    -0.322 N 
HETATM   11  C8  UNL     1      26.040   0.789  53.256  1.00  0.00     0.046 A 
HETATM   12  C9  UNL     1      27.192   1.384  52.789  1.00  0.00     0.032 A 
HETATM   13  C10 UNL     1      27.098   2.285  51.755  1.00  0.00     0.027 A 
HETATM   14  C11 UNL     1      25.872   2.581  51.203  1.00  0.00     0.075 A 
HETATM   15  C12 UNL     1      24.778   1.944  51.727  1.00  0.00     0.039 A 
HETATM   16  C13 UNL     1      24.756   1.030  52.756  1.00  0.00     0.009 A 
HETATM   17  H5  UNL     1      19.899   2.146  53.476  1.00  0.00     0.159 HD
HETATM   18  H8  UNL     1      26.688  -0.548  54.859  1.00  0.00     0.169 HD
ENDROOT
BRANCH  14  19
HETATM   19  S1  UNL     1      25.803   3.732  49.890  1.00  0.00     0.239 S 
HETATM   20  O2  UNL     1      24.647   3.409  48.984  1.00  0.00    -0.206 OA
HETATM   21  O3  UNL     1      27.118   3.709  49.166  1.00  0.00    -0.206 OA
BRANCH  19  22
HETATM   22  N3  UNL     1      25.629   5.307  50.587  1.00  0.00    -0.225 NA
HETATM   23  H11 UNL     1      25.614   5.274  51.633  1.00  0.00     0.136 HD
HETATM   24  H12 UNL     1      26.427   5.946  50.344  1.00  0.00     0.136 HD
ENDBRANCH  19  22
ENDBRANCH  14  19
TORSDOF 2
ENDMDL
MODEL 6
REMARK VINA RESULT:      -7.7      2.957      4.131
REMARK  2 active torsions:
REMARK  status: ('A' for Active; 'I' for Inactive)
REMARK    1  A    between atoms: C11_14  and  S1_15 
REMARK    2  A    between atoms: S1_15  and  N3_16 
ROOT
HETATM    1  C1  UNL     1      25.276   5.051  49.655  1.00  0.00     0.050 C 
HETATM    2  C2  UNL     1      24.221   3.999  49.722  1.00  0.00    -0.038 C 
HETATM    3  C3  UNL     1      23.266   3.968  48.772  1.00  0.00     0.090 C 
HETATM    4  N1  UNL     1      22.384   2.896  49.044  1.00  0.00    -0.394 N 
HETATM    5  C4  UNL     1      22.517   2.858  50.533  1.00  0.00     0.159 C 
HETATM    6  C5  UNL     1      23.986   2.898  50.686  1.00  0.00    -0.017 C 
HETATM    7  C6  UNL     1      24.929   2.253  51.326  1.00  0.00     0.053 A 
HETATM    8  C7  UNL     1      26.367   2.398  51.284  1.00  0.00     0.257 A 
HETATM    9  O1  UNL     1      27.108   3.122  50.619  1.00  0.00    -0.267 OA
HETATM   10  N2  UNL     1      26.984   1.510  52.204  1.00  0.00    -0.322 N 
HETATM   11  C8  UNL     1      25.968   0.767  52.865  1.00  0.00     0.046 A 
HETATM   12  C9  UNL     1      26.090  -0.200  53.839  1.00  0.00     0.032 A 
HETATM   13  C10 UNL     1      24.949  -0.778  54.342  1.00  0.00     0.027 A 
HETATM   14  C11 UNL     1      23.713  -0.392  53.876  1.00  0.00     0.075 A 
HETATM   15  C12 UNL     1      23.681   0.576  52.907  1.00  0.00     0.039 A 
HETATM   16  C13 UNL     1      24.755   1.220  52.334  1.00  0.00     0.009 A 
HETATM   17  H5  UNL     1      21.825   2.324  48.390  1.00  0.00     0.159 HD
HETATM   18  H8  UNL     1      28.012   1.383  52.402  1.00  0.00     0.169 HD
ENDROOT
BRANCH  14  19
HETATM   19  S1  UNL     1      22.290  -1.156  54.548  1.00  0.00     0.239 S 
HETATM   20  O2  UNL     1      22.661  -1.938  55.777  1.00  0.00    -0.206 OA
HETATM   21  O3  UNL     1      21.668  -2.019  53.490  1.00  0.00    -0.206 OA
BRANCH  19  22
HETATM   22  N3  UNL     1      21.155   0.096  54.923  1.00  0.00    -0.225 NA
HETATM   23  H11 UNL     1      20.247  -0.291  55.271  1.00  0.00     0.136 HD
HETATM   24  H12 UNL     1      21.493   0.731  55.689  1.00  0.00     0.136 HD
ENDBRANCH  19  22
ENDBRANCH  14  19
TORSDOF 2
ENDMDL
MODEL 7
REMARK VINA RESULT:      -7.7      2.528      2.838
REMARK  2 active torsions:
REMARK  status: ('A' for Active; 'I' for Inactive)
REMARK    1  A    between atoms: C11_14  and  S1_15 
REMARK    2  A    between atoms: S1_15  and  N3_16 
ROOT
HETATM    1  C1  UNL     1      20.269   5.088  50.428  1.00  0.00     0.050 C 
HETATM    2  C2  UNL     1      21.624   5.095  51.051  1.00  0.00    -0.038 C 
HETATM    3  C3  UNL     1      22.295   6.260  51.146  1.00  0.00     0.090 C 
HETATM    4  N1  UNL     1      23.545   6.019  51.762  1.00  0.00    -0.394 N 
HETATM    5  C4  UNL     1      23.760   4.609  51.311  1.00  0.00     0.159 C 
HETATM    6  C5  UNL     1      22.449   4.008  51.631  1.00  0.00    -0.017 C 
HETATM    7  C6  UNL     1      21.970   2.956  52.246  1.00  0.00     0.053 A 
HETATM    8  C7  UNL     1      20.606   2.570  52.532  1.00  0.00     0.257 A 
HETATM    9  O1  UNL     1      19.526   3.124  52.325  1.00  0.00    -0.267 OA
HETATM   10  N2  UNL     1      20.571   1.305  53.175  1.00  0.00    -0.322 N 
HETATM   11  C8  UNL     1      21.907   0.837  53.324  1.00  0.00     0.046 A 
HETATM   12  C9  UNL     1      22.360  -0.338  53.881  1.00  0.00     0.032 A 
HETATM   13  C10 UNL     1      23.713  -0.580  53.902  1.00  0.00     0.027 A 
HETATM   14  C11 UNL     1      24.590   0.342  53.376  1.00  0.00     0.075 A 
HETATM   15  C12 UNL     1      24.055   1.484  52.842  1.00  0.00     0.039 A 
HETATM   16  C13 UNL     1      22.723   1.827  52.768  1.00  0.00     0.009 A 
HETATM   17  H5  UNL     1      24.120   6.647  52.347  1.00  0.00     0.159 HD
HETATM   18  H8  UNL     1      19.730   0.761  53.506  1.00  0.00     0.169 HD
ENDROOT
BRANCH  14  19
HETATM   19  S1  UNL     1      26.302  -0.010  53.427  1.00  0.00     0.239 S 
HETATM   20  O2  UNL     1      26.959   0.455  52.157  1.00  0.00    -0.206 OA
HETATM   21  O3  UNL     1      26.480  -1.483  53.653  1.00  0.00    -0.206 OA
BRANCH  19  22
HETATM   22  N3  UNL     1      26.961   0.804  54.805  1.00  0.00    -0.225 NA
HETATM   23  H11 UNL     1      27.998   0.684  54.872  1.00  0.00     0.136 HD
HETATM   24  H12 UNL     1      26.807   1.843  54.771  1.00  0.00     0.136 HD
ENDBRANCH  19  22
ENDBRANCH  14  19
TORSDOF 2
ENDMDL
MODEL 8
REMARK VINA RESULT:      -7.7      1.769      2.056
REMARK  2 active torsions:
REMARK  status: ('A' for Active; 'I' for Inactive)
REMARK    1  A    between atoms: C11_14  and  S1_15 
REMARK    2  A    between atoms: S1_15  and  N3_16 
ROOT
HETATM    1  C1  UNL     1      22.950   4.355  48.085  1.00  0.00     0.050 C 
HETATM    2  C2  UNL     1      23.937   4.314  49.201  1.00  0.00    -0.038 C 
HETATM    3  C3  UNL     1      24.843   5.307  49.312  1.00  0.00     0.090 C 
HETATM    4  N1  UNL     1      25.666   5.052  50.434  1.00  0.00    -0.394 N 
HETATM    5  C4  UNL     1      25.603   3.558  50.434  1.00  0.00     0.159 C 
HETATM    6  C5  UNL     1      24.148   3.337  50.297  1.00  0.00    -0.017 C 
HETATM    7  C6  UNL     1      23.198   2.640  50.866  1.00  0.00     0.053 A 
HETATM    8  C7  UNL     1      21.771   2.618  50.629  1.00  0.00     0.257 A 
HETATM    9  O1  UNL     1      21.047   3.264  49.872  1.00  0.00    -0.267 OA
HETATM   10  N2  UNL     1      21.143   1.651  51.457  1.00  0.00    -0.322 N 
HETATM   11  C8  UNL     1      22.141   1.021  52.252  1.00  0.00     0.046 A 
HETATM   12  C9  UNL     1      22.004   0.022  53.190  1.00  0.00     0.032 A 
HETATM   13  C10 UNL     1      23.128  -0.441  53.831  1.00  0.00     0.027 A 
HETATM   14  C11 UNL     1      24.363   0.091  53.535  1.00  0.00     0.075 A 
HETATM   15  C12 UNL     1      24.410   1.081  52.590  1.00  0.00     0.039 A 
HETATM   16  C13 UNL     1      23.353   1.619  51.889  1.00  0.00     0.009 A 
HETATM   17  H5  UNL     1      26.155   5.718  51.053  1.00  0.00     0.159 HD
HETATM   18  H8  UNL     1      20.120   1.403  51.514  1.00  0.00     0.169 HD
ENDROOT
BRANCH  14  19
HETATM   19  S1  UNL     1      25.764  -0.531  54.376  1.00  0.00     0.239 S 
HETATM   20  O2  UNL     1      26.575  -1.397  53.452  1.00  0.00    -0.206 OA
HETATM   21  O3  UNL     1      25.298  -1.277  55.592  1.00  0.00    -0.206 OA
BRANCH  19  22
HETATM   22  N3  UNL     1      26.685   0.827  54.928  1.00  0.00    -0.225 NA
HETATM   23  H11 UNL     1      26.085   1.539  55.406  1.00  0.00     0.136 HD
HETATM   24  H12 UNL     1      27.411   0.559  55.639  1.00  0.00     0.136 HD
ENDBRANCH  19  22
ENDBRANCH  14  19
TORSDOF 2
ENDMDL
MODEL 9
REMARK VINA RESULT:      -7.2      2.827      6.736
REMARK  2 active torsions:
REMARK  status: ('A' for Active; 'I' for Inactive)
REMARK    1  A    between atoms: C11_14  and  S1_15 
REMARK    2  A    between atoms: S1_15  and  N3_16 
ROOT
HETATM    1  C1  UNL     1      27.515  -0.429  53.288  1.00  0.00     0.050 C 
HETATM    2  C2  UNL     1      26.050  -0.164  53.370  1.00  0.00    -0.038 C 
HETATM    3  C3  UNL     1      25.345  -0.688  54.392  1.00  0.00     0.090 C 
HETATM    4  N1  UNL     1      23.990  -0.307  54.257  1.00  0.00    -0.394 N 
HETATM    5  C4  UNL     1      23.928  -0.191  52.767  1.00  0.00     0.159 C 
HETATM    6  C5  UNL     1      25.138   0.613  52.497  1.00  0.00    -0.017 C 
HETATM    7  C6  UNL     1      25.481   1.684  51.826  1.00  0.00     0.053 A 
HETATM    8  C7  UNL     1      26.745   2.383  51.745  1.00  0.00     0.257 A 
HETATM    9  O1  UNL     1      27.827   2.206  52.304  1.00  0.00    -0.267 OA
HETATM   10  N2  UNL     1      26.655   3.470  50.837  1.00  0.00    -0.322 N 
HETATM   11  C8  UNL     1      25.336   3.507  50.304  1.00  0.00     0.046 A 
HETATM   12  C9  UNL     1      24.792   4.377  49.386  1.00  0.00     0.032 A 
HETATM   13  C10 UNL     1      23.481   4.206  49.010  1.00  0.00     0.027 A 
HETATM   14  C11 UNL     1      22.734   3.182  49.548  1.00  0.00     0.075 A 
HETATM   15  C12 UNL     1      23.353   2.363  50.454  1.00  0.00     0.039 A 
HETATM   16  C13 UNL     1      24.653   2.441  50.901  1.00  0.00     0.009 A 
HETATM   17  H5  UNL     1      23.274  -0.159  54.987  1.00  0.00     0.159 HD
HETATM   18  H8  UNL     1      27.405   4.161  50.566  1.00  0.00     0.169 HD
ENDROOT
BRANCH  14  19
HETATM   19  S1  UNL     1      21.071   3.005  49.039  1.00  0.00     0.239 S 
HETATM   20  O2  UNL     1      20.810   3.863  47.832  1.00  0.00    -0.206 OA
HETATM   21  O3  UNL     1      20.179   3.359  50.193  1.00  0.00    -0.206 OA
BRANCH  19  22
HETATM   22  N3  UNL     1      20.811   1.332  48.683  1.00  0.00    -0.225 NA
HETATM   23  H11 UNL     1      19.813   1.134  48.434  1.00  0.00     0.136 HD
HETATM   24  H12 UNL     1      21.369   1.004  47.854  1.00  0.00     0.136 HD
ENDBRANCH  19  22
ENDBRANCH  14  19
TORSDOF 2
ENDMDL
