MODEL 1
REMARK VINA RESULT:      -8.5      0.000      0.000
REMARK  5 active torsions:
REMARK  status: ('A' for Active; 'I' for Inactive)
REMARK    1  A    between atoms: C1_2  and  N2_3 
REMARK    2  A    between atoms: N2_3  and  C2_4 
REMARK    3  A    between atoms: C3_5  and  C4_6 
REMARK    4  A    between atoms: C4_6  and  C5_7 
REMARK    5  A    between atoms: N3_16  and  C14_17 
ROOT
HETATM    1  C2  UNL     1      24.881   0.901  52.342  1.00  0.00     0.142 A 
HETATM    2  C3  UNL     1      23.613   1.409  52.490  1.00  0.00    -0.008 A 
HETATM    3  C11 UNL     1      22.682   0.868  53.344  1.00  0.00     0.012 A 
HETATM    4  C12 UNL     1      23.104  -0.243  54.061  1.00  0.00     0.018 A 
HETATM    5  C13 UNL     1      24.376  -0.749  53.909  1.00  0.00     0.099 A 
HETATM    6  N3  UNL     1      25.269  -0.200  53.067  1.00  0.00    -0.309 N 
ENDROOT
BRANCH   6   7
HETATM    7  C14 UNL     1      26.521  -0.870  53.022  1.00  0.00     0.031 C 
HETATM    8  C15 UNL     1      26.745  -2.079  52.533  1.00  0.00     0.028 C 
HETATM    9  C16 UNL     1      28.120  -2.537  52.640  1.00  0.00     0.028 C 
HETATM   10  C17 UNL     1      28.782  -1.562  53.237  1.00  0.00     0.022 A 
HETATM   11  N4  UNL     1      29.961  -0.947  53.806  1.00  0.00    -0.369 N 
HETATM   12  C20 UNL     1      27.859  -0.433  53.210  1.00  0.00     0.110 A 
HETATM   13  C18 UNL     1      29.645   0.410  54.186  1.00  0.00     0.085 A 
HETATM   14  H15 UNL     1      30.790  -1.621  53.819  1.00  0.00     0.165 HD
HETATM   15  C19 UNL     1      28.375   0.717  53.860  1.00  0.00     0.007 A 
ENDBRANCH   6   7
BRANCH   1  16
HETATM   16  N2  UNL     1      25.810   1.303  51.623  1.00  0.00    -0.224 NA
BRANCH  16  17
HETATM   17  C1  UNL     1      26.410   2.535  51.473  1.00  0.00     0.225 C 
HETATM   18  N1  UNL     1      26.968   3.455  50.792  1.00  0.00    -0.293 NA
HETATM   19  H1  UNL     1      27.162   3.442  49.762  1.00  0.00     0.187 HD
ENDBRANCH  16  17
ENDBRANCH   1  16
BRANCH   2  20
HETATM   20  C4  UNL     1      23.202   2.585  51.702  1.00  0.00     0.077 C 
BRANCH  20  21
HETATM   21  C5  UNL     1      22.693   2.244  50.346  1.00  0.00    -0.063 C 
HETATM   22  C6  UNL     1      22.968   2.976  49.276  1.00  0.00    -0.011 C 
HETATM   23  C7  UNL     1      22.918   2.407  48.113  1.00  0.00    -0.018 C 
HETATM   24  C8  UNL     1      21.904   1.610  47.854  1.00  0.00    -0.013 C 
HETATM   25  C9  UNL     1      20.970   1.259  48.981  1.00  0.00     0.032 C 
HETATM   26  C10 UNL     1      21.847   1.027  50.195  1.00  0.00     0.039 C 
ENDBRANCH  20  21
ENDBRANCH   2  20
TORSDOF 5
ENDMDL
MODEL 2
REMARK VINA RESULT:      -8.4      3.097      5.331
REMARK  5 active torsions:
REMARK  status: ('A' for Active; 'I' for Inactive)
REMARK    1  A    between atoms: C1_2  and  N2_3 
REMARK    2  A    between atoms: N2_3  and  C2_4 
REMARK    3  A    between atoms: C3_5  and  C4_6 
REMARK    4  A    between atoms: C4_6  and  C5_7 
REMARK    5  A    between atoms: N3_16  and  C14_17 
ROOT
HETATM    1  C2  UNL     1      22.593   2.882  51.081  1.00  0.00     0.142 A 
HETATM    2  C3  UNL     1      22.894   3.537  49.912  1.00  0.00    -0.008 A 
HETATM    3  C11 UNL     1      22.668   2.996  48.668  1.00  0.00     0.012 A 
HETATM    4  C12 UNL     1      22.108   1.726  48.662  1.00  0.00     0.018 A 
HETATM    5  C13 UNL     1      21.808   1.073  49.838  1.00  0.00     0.099 A 
HETATM    6  N3  UNL     1      22.039   1.625  51.042  1.00  0.00    -0.309 N 
ENDROOT
BRANCH   6   7
HETATM    7  C14 UNL     1      21.692   0.796  52.142  1.00  0.00     0.031 C 
HETATM    8  C15 UNL     1      20.466   0.479  52.527  1.00  0.00     0.028 C 
HETATM    9  C16 UNL     1      20.393  -0.365  53.707  1.00  0.00     0.028 C 
HETATM   10  C17 UNL     1      21.644  -0.574  54.081  1.00  0.00     0.022 A 
HETATM   11  N4  UNL     1      22.672  -1.119  54.940  1.00  0.00    -0.369 N 
HETATM   12  C20 UNL     1      22.439  -0.097  52.955  1.00  0.00     0.110 A 
HETATM   13  C18 UNL     1      23.965  -0.831  54.364  1.00  0.00     0.085 A 
HETATM   14  H15 UNL     1      22.254  -1.604  55.795  1.00  0.00     0.165 HD
HETATM   15  C19 UNL     1      23.835  -0.190  53.187  1.00  0.00     0.007 A 
ENDBRANCH   6   7
BRANCH   1  16
HETATM   16  N2  UNL     1      22.733   3.263  52.255  1.00  0.00    -0.224 NA
BRANCH  16  17
HETATM   17  C1  UNL     1      23.844   3.452  53.048  1.00  0.00     0.225 C 
HETATM   18  N1  UNL     1      25.026   3.179  53.438  1.00  0.00    -0.293 NA
HETATM   19  H1  UNL     1      25.651   2.427  53.062  1.00  0.00     0.187 HD
ENDBRANCH  16  17
ENDBRANCH   1  16
BRANCH   2  20
HETATM   20  C4  UNL     1      23.496   4.881  49.962  1.00  0.00     0.077 C 
BRANCH  20  21
HETATM   21  C5  UNL     1      24.918   4.913  49.528  1.00  0.00    -0.063 C 
HETATM   22  C6  UNL     1      25.824   4.061  49.988  1.00  0.00    -0.011 C 
HETATM   23  C7  UNL     1      26.870   3.825  49.261  1.00  0.00    -0.018 C 
HETATM   24  C8  UNL     1      27.473   4.844  48.689  1.00  0.00    -0.013 C 
HETATM   25  C9  UNL     1      26.807   6.193  48.755  1.00  0.00     0.032 C 
HETATM   26  C10 UNL     1      25.329   5.942  48.532  1.00  0.00     0.039 C 
ENDBRANCH  20  21
ENDBRANCH   2  20
TORSDOF 5
ENDMDL
MODEL 3
REMARK VINA RESULT:      -8.4      2.189      3.762
REMARK  5 active torsions:
REMARK  status: ('A' for Active; 'I' for Inactive)
REMARK    1  A    between atoms: C1_2  and  N2_3 
REMARK    2  A    between atoms: N2_3  and  C2_4 
REMARK    3  A    between atoms: C3_5  and  C4_6 
REMARK    4  A    between atoms: C4_6  and  C5_7 
REMARK    5  A    between atoms: N3_16  and  C14_17 
ROOT
HETATM    1  C2  UNL     1      23.706  -0.127  53.585  1.00  0.00     0.142 A 
HETATM    2  C3  UNL     1      22.576   0.636  53.418  1.00  0.00    -0.008 A 
HETATM    3  C11 UNL     1      22.501   1.683  52.530  1.00  0.00     0.012 A 
HETATM    4  C12 UNL     1      23.655   1.930  51.800  1.00  0.00     0.018 A 
HETATM    5  C13 UNL     1      24.787   1.163  51.972  1.00  0.00     0.099 A 
HETATM    6  N3  UNL     1      24.834   0.143  52.847  1.00  0.00    -0.309 N 
ENDROOT
BRANCH   6   7
HETATM    7  C14 UNL     1      26.089  -0.519  52.908  1.00  0.00     0.031 C 
HETATM    8  C15 UNL     1      26.389  -1.681  52.351  1.00  0.00     0.028 C 
HETATM    9  C16 UNL     1      27.744  -2.145  52.595  1.00  0.00     0.028 C 
HETATM   10  C17 UNL     1      28.312  -1.225  53.354  1.00  0.00     0.022 A 
HETATM   11  N4  UNL     1      29.400  -0.660  54.122  1.00  0.00    -0.369 N 
HETATM   12  C20 UNL     1      27.386  -0.098  53.305  1.00  0.00     0.110 A 
HETATM   13  C18 UNL     1      29.021   0.659  54.573  1.00  0.00     0.085 A 
HETATM   14  H15 UNL     1      30.228  -1.332  54.185  1.00  0.00     0.165 HD
HETATM   15  C19 UNL     1      27.800   0.992  54.112  1.00  0.00     0.007 A 
ENDBRANCH   6   7
BRANCH   1  16
HETATM   16  N2  UNL     1      23.896  -1.098  54.335  1.00  0.00    -0.224 NA
BRANCH  16  17
HETATM   17  C1  UNL     1      24.347  -1.202  55.634  1.00  0.00     0.225 C 
HETATM   18  N1  UNL     1      25.253  -1.199  56.528  1.00  0.00    -0.293 NA
HETATM   19  H1  UNL     1      26.280  -1.053  56.379  1.00  0.00     0.187 HD
ENDBRANCH  16  17
ENDBRANCH   1  16
BRANCH   2  20
HETATM   20  C4  UNL     1      21.374   0.345  54.220  1.00  0.00     0.077 C 
BRANCH  20  21
HETATM   21  C5  UNL     1      20.183  -0.006  53.401  1.00  0.00    -0.063 C 
HETATM   22  C6  UNL     1      19.543  -1.160  53.531  1.00  0.00    -0.011 C 
HETATM   23  C7  UNL     1      18.301  -1.217  53.170  1.00  0.00    -0.018 C 
HETATM   24  C8  UNL     1      17.955  -0.646  52.037  1.00  0.00    -0.013 C 
HETATM   25  C9  UNL     1      18.978   0.198  51.325  1.00  0.00     0.032 C 
HETATM   26  C10 UNL     1      19.694   0.986  52.403  1.00  0.00     0.039 C 
ENDBRANCH  20  21
ENDBRANCH   2  20
TORSDOF 5
ENDMDL
MODEL 4
REMARK VINA RESULT:      -8.1      3.494      5.947
REMARK  5 active torsions:
REMARK  status: ('A' for Active; 'I' for Inactive)
REMARK    1  A    between atoms: C1_2  and  N2_3 
REMARK    2  A    between atoms: N2_3  and  C2_4 
REMARK    3  A    between atoms: C3_5  and  C4_6 
REMARK    4  A    between atoms: C4_6  and  C5_7 
REMARK    5  A    between atoms: N3_16  and  C14_17 
ROOT
HETATM    1  C2  UNL     1      23.042   2.857  51.122  1.00  0.00     0.142 A 
HETATM    2  C3  UNL     1      21.865   2.151  51.177  1.00  0.00    -0.008 A 
HETATM    3  C11 UNL     1      21.263   1.606  50.068  1.00  0.00     0.012 A 
HETATM    4  C12 UNL     1      21.925   1.815  48.866  1.00  0.00     0.018 A 
HETATM    5  C13 UNL     1      23.105   2.525  48.815  1.00  0.00     0.099 A 
HETATM    6  N3  UNL     1      23.673   3.047  49.916  1.00  0.00    -0.309 N 
ENDROOT
BRANCH   6   7
HETATM    7  C14 UNL     1      24.872   3.768  49.670  1.00  0.00     0.031 C 
HETATM    8  C15 UNL     1      26.049   3.247  49.360  1.00  0.00     0.028 C 
HETATM    9  C16 UNL     1      27.120   4.214  49.189  1.00  0.00     0.028 C 
HETATM   10  C17 UNL     1      26.580   5.398  49.415  1.00  0.00     0.022 A 
HETATM   11  N4  UNL     1      26.607   6.839  49.544  1.00  0.00    -0.369 N 
HETATM   12  C20 UNL     1      25.144   5.141  49.427  1.00  0.00     0.110 A 
HETATM   13  C18 UNL     1      25.260   7.317  49.747  1.00  0.00     0.085 A 
HETATM   14  H15 UNL     1      27.601   7.222  49.462  1.00  0.00     0.165 HD
HETATM   15  C19 UNL     1      24.378   6.300  49.710  1.00  0.00     0.007 A 
ENDBRANCH   6   7
BRANCH   1  16
HETATM   16  N2  UNL     1      23.689   3.382  52.043  1.00  0.00    -0.224 NA
BRANCH  16  17
HETATM   17  C1  UNL     1      23.522   4.552  52.753  1.00  0.00     0.225 C 
HETATM   18  N1  UNL     1      23.939   5.633  53.282  1.00  0.00    -0.293 NA
HETATM   19  H1  UNL     1      24.921   5.996  53.273  1.00  0.00     0.187 HD
ENDBRANCH  16  17
ENDBRANCH   1  16
BRANCH   2  20
HETATM   20  C4  UNL     1      21.189   1.959  52.473  1.00  0.00     0.077 C 
BRANCH  20  21
HETATM   21  C5  UNL     1      21.653   0.755  53.214  1.00  0.00    -0.063 C 
HETATM   22  C6  UNL     1      22.736   0.076  52.865  1.00  0.00    -0.011 C 
HETATM   23  C7  UNL     1      23.339  -0.626  53.772  1.00  0.00    -0.018 C 
HETATM   24  C8  UNL     1      22.605  -1.353  54.585  1.00  0.00    -0.013 C 
HETATM   25  C9  UNL     1      21.111  -1.181  54.540  1.00  0.00     0.032 C 
HETATM   26  C10 UNL     1      20.865   0.307  54.396  1.00  0.00     0.039 C 
ENDBRANCH  20  21
ENDBRANCH   2  20
TORSDOF 5
ENDMDL
MODEL 5
REMARK VINA RESULT:      -8.1      0.836      1.892
REMARK  5 active torsions:
REMARK  status: ('A' for Active; 'I' for Inactive)
REMARK    1  A    between atoms: C1_2  and  N2_3 
REMARK    2  A    between atoms: N2_3  and  C2_4 
REMARK    3  A    between atoms: C3_5  and  C4_6 
REMARK    4  A    between atoms: C4_6  and  C5_7 
REMARK    5  A    between atoms: N3_16  and  C14_17 
ROOT
HETATM    1  C2  UNL     1      24.518   1.452  52.966  1.00  0.00     0.142 A 
HETATM    2  C3  UNL     1      23.167   1.497  52.722  1.00  0.00    -0.008 A 
HETATM    3  C11 UNL     1      22.302   0.497  53.096  1.00  0.00     0.012 A 
HETATM    4  C12 UNL     1      22.884  -0.583  53.745  1.00  0.00     0.018 A 
HETATM    5  C13 UNL     1      24.239  -0.625  53.988  1.00  0.00     0.099 A 
HETATM    6  N3  UNL     1      25.064   0.369  53.611  1.00  0.00    -0.309 N 
ENDROOT
BRANCH   6   7
HETATM    7  C14 UNL     1      26.432   0.143  53.921  1.00  0.00     0.031 C 
HETATM    8  C15 UNL     1      27.187   0.884  54.715  1.00  0.00     0.028 C 
HETATM    9  C16 UNL     1      28.567   0.442  54.835  1.00  0.00     0.028 C 
HETATM   10  C17 UNL     1      28.674  -0.626  54.064  1.00  0.00     0.022 A 
HETATM   11  N4  UNL     1      29.391  -1.722  53.451  1.00  0.00    -0.369 N 
HETATM   12  C20 UNL     1      27.295  -0.969  53.733  1.00  0.00     0.110 A 
HETATM   13  C18 UNL     1      28.456  -2.542  52.717  1.00  0.00     0.085 A 
HETATM   14  H15 UNL     1      30.435  -1.683  53.673  1.00  0.00     0.165 HD
HETATM   15  C19 UNL     1      27.199  -2.079  52.855  1.00  0.00     0.007 A 
ENDBRANCH   6   7
BRANCH   1  16
HETATM   16  N2  UNL     1      25.395   2.289  52.694  1.00  0.00    -0.224 NA
BRANCH  16  17
HETATM   17  C1  UNL     1      26.093   2.569  51.539  1.00  0.00     0.225 C 
HETATM   18  N1  UNL     1      26.803   3.315  50.790  1.00  0.00    -0.293 NA
HETATM   19  H1  UNL     1      27.136   4.284  51.007  1.00  0.00     0.187 HD
ENDBRANCH  16  17
ENDBRANCH   1  16
BRANCH   2  20
HETATM   20  C4  UNL     1      22.591   2.659  52.020  1.00  0.00     0.077 C 
BRANCH  20  21
HETATM   21  C5  UNL     1      22.524   2.489  50.544  1.00  0.00    -0.063 C 
HETATM   22  C6  UNL     1      22.101   1.370  49.972  1.00  0.00    -0.011 C 
HETATM   23  C7  UNL     1      21.625   1.437  48.770  1.00  0.00    -0.018 C 
HETATM   24  C8  UNL     1      22.268   2.168  47.886  1.00  0.00    -0.013 C 
HETATM   25  C9  UNL     1      23.403   3.030  48.367  1.00  0.00     0.032 C 
HETATM   26  C10 UNL     1      22.947   3.629  49.682  1.00  0.00     0.039 C 
ENDBRANCH  20  21
ENDBRANCH   2  20
TORSDOF 5
ENDMDL
MODEL 6
REMARK VINA RESULT:      -8.1      1.540      2.452
REMARK  5 active torsions:
REMARK  status: ('A' for Active; 'I' for Inactive)
REMARK    1  A    between atoms: C1_2  and  N2_3 
REMARK    2  A    between atoms: N2_3  and  C2_4 
REMARK    3  A    between atoms: C3_5  and  C4_6 
REMARK    4  A    between atoms: C4_6  and  C5_7 
REMARK    5  A    between atoms: N3_16  and  C14_17 
ROOT
HETATM    1  C2  UNL     1      24.841   1.243  51.898  1.00  0.00     0.142 A 
HETATM    2  C3  UNL     1      23.517   1.414  51.575  1.00  0.00    -0.008 A 
HETATM    3  C11 UNL     1      22.487   0.901  52.328  1.00  0.00     0.012 A 
HETATM    4  C12 UNL     1      22.871   0.187  53.455  1.00  0.00     0.018 A 
HETATM    5  C13 UNL     1      24.201   0.018  53.775  1.00  0.00     0.099 A 
HETATM    6  N3  UNL     1      25.189   0.531  53.020  1.00  0.00    -0.309 N 
ENDROOT
BRANCH   6   7
HETATM    7  C14 UNL     1      26.496   0.236  53.489  1.00  0.00     0.031 C 
HETATM    8  C15 UNL     1      27.235   0.996  54.280  1.00  0.00     0.028 C 
HETATM    9  C16 UNL     1      28.554   0.466  54.583  1.00  0.00     0.028 C 
HETATM   10  C17 UNL     1      28.640  -0.682  53.935  1.00  0.00     0.022 A 
HETATM   11  N4  UNL     1      29.314  -1.889  53.509  1.00  0.00    -0.369 N 
HETATM   12  C20 UNL     1      27.275  -0.953  53.500  1.00  0.00     0.110 A 
HETATM   13  C18 UNL     1      28.385  -2.709  52.766  1.00  0.00     0.085 A 
HETATM   14  H15 UNL     1      30.332  -1.906  53.832  1.00  0.00     0.165 HD
HETATM   15  C19 UNL     1      27.165  -2.138  52.729  1.00  0.00     0.007 A 
ENDBRANCH   6   7
BRANCH   1  16
HETATM   16  N2  UNL     1      25.853   1.664  51.314  1.00  0.00    -0.224 NA
BRANCH  16  17
HETATM   17  C1  UNL     1      26.317   2.934  51.046  1.00  0.00     0.225 C 
HETATM   18  N1  UNL     1      27.088   3.767  50.469  1.00  0.00    -0.293 NA
HETATM   19  H1  UNL     1      27.853   3.544  49.789  1.00  0.00     0.187 HD
ENDBRANCH  16  17
ENDBRANCH   1  16
BRANCH   2  20
HETATM   20  C4  UNL     1      23.152   2.171  50.364  1.00  0.00     0.077 C 
BRANCH  20  21
HETATM   21  C5  UNL     1      22.513   3.483  50.652  1.00  0.00    -0.063 C 
HETATM   22  C6  UNL     1      23.063   4.384  51.455  1.00  0.00    -0.011 C 
HETATM   23  C7  UNL     1      22.735   5.627  51.298  1.00  0.00    -0.018 C 
HETATM   24  C8  UNL     1      21.465   5.917  51.114  1.00  0.00    -0.013 C 
HETATM   25  C9  UNL     1      20.500   4.781  50.907  1.00  0.00     0.032 C 
HETATM   26  C10 UNL     1      21.207   3.789  50.005  1.00  0.00     0.039 C 
ENDBRANCH  20  21
ENDBRANCH   2  20
TORSDOF 5
ENDMDL
MODEL 7
REMARK VINA RESULT:      -7.9      1.350      3.169
REMARK  5 active torsions:
REMARK  status: ('A' for Active; 'I' for Inactive)
REMARK    1  A    between atoms: C1_2  and  N2_3 
REMARK    2  A    between atoms: N2_3  and  C2_4 
REMARK    3  A    between atoms: C3_5  and  C4_6 
REMARK    4  A    between atoms: C4_6  and  C5_7 
REMARK    5  A    between atoms: N3_16  and  C14_17 
ROOT
HETATM    1  C2  UNL     1      25.051   1.619  52.608  1.00  0.00     0.142 A 
HETATM    2  C3  UNL     1      24.165   2.414  51.922  1.00  0.00    -0.008 A 
HETATM    3  C11 UNL     1      24.521   3.163  50.826  1.00  0.00     0.012 A 
HETATM    4  C12 UNL     1      25.853   3.069  50.446  1.00  0.00     0.018 A 
HETATM    5  C13 UNL     1      26.738   2.272  51.137  1.00  0.00     0.099 A 
HETATM    6  N3  UNL     1      26.363   1.548  52.207  1.00  0.00    -0.309 N 
ENDROOT
BRANCH   6   7
HETATM    7  C14 UNL     1      27.414   0.805  52.808  1.00  0.00     0.031 C 
HETATM    8  C15 UNL     1      28.416   1.299  53.517  1.00  0.00     0.028 C 
HETATM    9  C16 UNL     1      29.373   0.315  53.994  1.00  0.00     0.028 C 
HETATM   10  C17 UNL     1      28.945  -0.853  53.548  1.00  0.00     0.022 A 
HETATM   11  N4  UNL     1      29.021  -2.286  53.371  1.00  0.00    -0.369 N 
HETATM   12  C20 UNL     1      27.595  -0.580  53.066  1.00  0.00     0.110 A 
HETATM   13  C18 UNL     1      27.823  -2.742  52.707  1.00  0.00     0.085 A 
HETATM   14  H15 UNL     1      29.932  -2.683  53.764  1.00  0.00     0.165 HD
HETATM   15  C19 UNL     1      26.974  -1.718  52.491  1.00  0.00     0.007 A 
ENDBRANCH   6   7
BRANCH   1  16
HETATM   16  N2  UNL     1      24.853   0.890  53.594  1.00  0.00    -0.224 NA
BRANCH  16  17
HETATM   17  C1  UNL     1      24.050  -0.212  53.794  1.00  0.00     0.225 C 
HETATM   18  N1  UNL     1      22.994  -0.900  53.612  1.00  0.00    -0.293 NA
HETATM   19  H1  UNL     1      22.176  -0.645  53.010  1.00  0.00     0.187 HD
ENDBRANCH  16  17
ENDBRANCH   1  16
BRANCH   2  20
HETATM   20  C4  UNL     1      22.761   2.493  52.364  1.00  0.00     0.077 C 
BRANCH  20  21
HETATM   21  C5  UNL     1      21.782   2.132  51.304  1.00  0.00    -0.063 C 
HETATM   22  C6  UNL     1      21.700   0.911  50.793  1.00  0.00    -0.011 C 
HETATM   23  C7  UNL     1      20.578   0.543  50.261  1.00  0.00    -0.018 C 
HETATM   24  C8  UNL     1      19.954   1.393  49.475  1.00  0.00    -0.013 C 
HETATM   25  C9  UNL     1      20.478   2.801  49.392  1.00  0.00     0.032 C 
HETATM   26  C10 UNL     1      20.859   3.190  50.806  1.00  0.00     0.039 C 
ENDBRANCH  20  21
ENDBRANCH   2  20
TORSDOF 5
ENDMDL
MODEL 8
REMARK VINA RESULT:      -7.8      7.840     11.291
REMARK  5 active torsions:
REMARK  status: ('A' for Active; 'I' for Inactive)
REMARK    1  A    between atoms: C1_2  and  N2_3 
REMARK    2  A    between atoms: N2_3  and  C2_4 
REMARK    3  A    between atoms: C3_5  and  C4_6 
REMARK    4  A    between atoms: C4_6  and  C5_7 
REMARK    5  A    between atoms: N3_16  and  C14_17 
ROOT
HETATM    1  C2  UNL     1      31.640   7.426  47.618  1.00  0.00     0.142 A 
HETATM    2  C3  UNL     1      32.717   7.384  46.766  1.00  0.00    -0.008 A 
HETATM    3  C11 UNL     1      32.627   7.680  45.427  1.00  0.00     0.012 A 
HETATM    4  C12 UNL     1      31.361   8.029  44.977  1.00  0.00     0.018 A 
HETATM    5  C13 UNL     1      30.284   8.069  45.835  1.00  0.00     0.099 A 
HETATM    6  N3  UNL     1      30.400   7.775  47.142  1.00  0.00    -0.309 N 
ENDROOT
BRANCH   6   7
HETATM    7  C14 UNL     1      29.181   7.844  47.868  1.00  0.00     0.031 C 
HETATM    8  C15 UNL     1      28.550   8.948  48.235  1.00  0.00     0.028 C 
HETATM    9  C16 UNL     1      27.332   8.731  48.998  1.00  0.00     0.028 C 
HETATM   10  C17 UNL     1      27.206   7.421  49.117  1.00  0.00     0.022 A 
HETATM   11  N4  UNL     1      26.559   6.212  49.576  1.00  0.00    -0.369 N 
HETATM   12  C20 UNL     1      28.185   6.880  48.181  1.00  0.00     0.110 A 
HETATM   13  C18 UNL     1      27.243   5.071  49.014  1.00  0.00     0.085 A 
HETATM   14  H15 UNL     1      25.733   6.427  50.218  1.00  0.00     0.165 HD
HETATM   15  C19 UNL     1      28.242   5.463  48.200  1.00  0.00     0.007 A 
ENDBRANCH   6   7
BRANCH   1  16
HETATM   16  N2  UNL     1      31.594   7.197  48.838  1.00  0.00    -0.224 NA
BRANCH  16  17
HETATM   17  C1  UNL     1      31.575   6.028  49.569  1.00  0.00     0.225 C 
HETATM   18  N1  UNL     1      31.506   5.364  50.653  1.00  0.00    -0.293 NA
HETATM   19  H1  UNL     1      31.406   5.753  51.621  1.00  0.00     0.187 HD
ENDBRANCH  16  17
ENDBRANCH   1  16
BRANCH   2  20
HETATM   20  C4  UNL     1      34.043   6.999  47.283  1.00  0.00     0.077 C 
BRANCH  20  21
HETATM   21  C5  UNL     1      34.368   5.562  47.076  1.00  0.00    -0.063 C 
HETATM   22  C6  UNL     1      34.178   4.947  45.917  1.00  0.00    -0.011 C 
HETATM   23  C7  UNL     1      34.889   3.896  45.657  1.00  0.00    -0.018 C 
HETATM   24  C8  UNL     1      35.049   3.003  46.609  1.00  0.00    -0.013 C 
HETATM   25  C9  UNL     1      34.563   3.343  47.992  1.00  0.00     0.032 C 
HETATM   26  C10 UNL     1      34.932   4.795  48.221  1.00  0.00     0.039 C 
ENDBRANCH  20  21
ENDBRANCH   2  20
TORSDOF 5
ENDMDL
MODEL 9
REMARK VINA RESULT:      -7.6      8.778     11.915
REMARK  5 active torsions:
REMARK  status: ('A' for Active; 'I' for Inactive)
REMARK    1  A    between atoms: C1_2  and  N2_3 
REMARK    2  A    between atoms: N2_3  and  C2_4 
REMARK    3  A    between atoms: C3_5  and  C4_6 
REMARK    4  A    between atoms: C4_6  and  C5_7 
REMARK    5  A    between atoms: N3_16  and  C14_17 
ROOT
HETATM    1  C2  UNL     1      32.811   7.550  47.786  1.00  0.00     0.142 A 
HETATM    2  C3  UNL     1      33.564   6.696  47.019  1.00  0.00    -0.008 A 
HETATM    3  C11 UNL     1      33.695   6.827  45.657  1.00  0.00     0.012 A 
HETATM    4  C12 UNL     1      33.009   7.893  45.091  1.00  0.00     0.018 A 
HETATM    5  C13 UNL     1      32.254   8.747  45.865  1.00  0.00     0.099 A 
HETATM    6  N3  UNL     1      32.143   8.596  47.196  1.00  0.00    -0.309 N 
ENDROOT
BRANCH   6   7
HETATM    7  C14 UNL     1      31.304   9.554  47.826  1.00  0.00     0.031 C 
HETATM    8  C15 UNL     1      31.559  10.845  47.969  1.00  0.00     0.028 C 
HETATM    9  C16 UNL     1      30.539  11.595  48.681  1.00  0.00     0.028 C 
HETATM   10  C17 UNL     1      29.604  10.719  49.006  1.00  0.00     0.022 A 
HETATM   11  N4  UNL     1      28.358  10.311  49.616  1.00  0.00    -0.369 N 
HETATM   12  C20 UNL     1      29.943   9.530  48.232  1.00  0.00     0.110 A 
HETATM   13  C18 UNL     1      28.108   8.926  49.291  1.00  0.00     0.085 A 
HETATM   14  H15 UNL     1      27.908  11.110  50.164  1.00  0.00     0.165 HD
HETATM   15  C19 UNL     1      29.072   8.440  48.486  1.00  0.00     0.007 A 
ENDBRANCH   6   7
BRANCH   1  16
HETATM   16  N2  UNL     1      32.626   7.548  49.014  1.00  0.00    -0.224 NA
BRANCH  16  17
HETATM   17  C1  UNL     1      31.926   6.706  49.852  1.00  0.00     0.225 C 
HETATM   18  N1  UNL     1      31.638   5.566  50.339  1.00  0.00    -0.293 NA
HETATM   19  H1  UNL     1      32.070   4.647  50.081  1.00  0.00     0.187 HD
ENDBRANCH  16  17
ENDBRANCH   1  16
BRANCH   2  20
HETATM   20  C4  UNL     1      34.270   5.571  47.658  1.00  0.00     0.077 C 
BRANCH  20  21
HETATM   21  C5  UNL     1      33.606   4.256  47.450  1.00  0.00    -0.063 C 
HETATM   22  C6  UNL     1      32.348   4.148  47.044  1.00  0.00    -0.011 C 
HETATM   23  C7  UNL     1      31.990   3.059  46.441  1.00  0.00    -0.018 C 
HETATM   24  C8  UNL     1      32.393   1.910  46.940  1.00  0.00    -0.013 C 
HETATM   25  C9  UNL     1      33.397   1.935  48.061  1.00  0.00     0.032 C 
HETATM   26  C10 UNL     1      34.395   3.018  47.705  1.00  0.00     0.039 C 
ENDBRANCH  20  21
ENDBRANCH   2  20
TORSDOF 5
ENDMDL
