MODEL 1
REMARK VINA RESULT:      -9.4      0.000      0.000
REMARK  0 active torsions:
REMARK  status: ('A' for Active; 'I' for Inactive)
ROOT
HETATM    1  C1  UNL     1      22.435   4.722  47.050  1.00  0.00     0.043 C 
HETATM    2  C2  UNL     1      21.768   4.434  48.345  1.00  0.00    -0.083 C 
HETATM    3  C3  UNL     1      22.707   4.620  49.234  1.00  0.00     0.002 C 
HETATM    4  C4  UNL     1      23.638   4.788  50.324  1.00  0.00    -0.003 C 
HETATM    5  C5  UNL     1      24.067   4.799  51.580  1.00  0.00    -0.022 C 
HETATM    6  C6  UNL     1      23.255   4.455  52.831  1.00  0.00     0.067 C 
HETATM    7  C7  UNL     1      23.158   2.932  52.751  1.00  0.00    -0.034 A 
HETATM    8  C8  UNL     1      21.926   2.604  52.297  1.00  0.00     0.016 A 
HETATM    9  C9  UNL     1      22.037   1.275  51.977  1.00  0.00     0.177 A 
HETATM   10  N1  UNL     1      23.065   0.425  52.074  1.00  0.00    -0.227 NA
HETATM   11  C10 UNL     1      24.245   0.924  52.569  1.00  0.00     0.077 A 
HETATM   12  C11 UNL     1      24.338   2.273  52.943  1.00  0.00    -0.017 A 
HETATM   13  C12 UNL     1      25.693   2.597  53.446  1.00  0.00     0.081 A 
HETATM   14  C13 UNL     1      26.384   1.276  53.324  1.00  0.00    -0.041 A 
HETATM   15  C14 UNL     1      27.699   1.088  53.684  1.00  0.00     0.008 A 
HETATM   16  C15 UNL     1      28.209  -0.205  53.510  1.00  0.00     0.001 A 
HETATM   17  C16 UNL     1      27.389  -1.201  53.000  1.00  0.00     0.001 A 
HETATM   18  C17 UNL     1      26.059  -0.939  52.655  1.00  0.00     0.014 A 
HETATM   19  C18 UNL     1      25.542   0.319  52.817  1.00  0.00    -0.000 A 
HETATM   20  N2  UNL     1      20.990   0.718  51.148  1.00  0.00    -0.044 NA
HETATM   21  C19 UNL     1      20.073   1.609  50.807  1.00  0.00     0.712 C 
HETATM   22  N3  UNL     1      19.637   2.542  51.782  1.00  0.00    -0.219 N 
HETATM   23  C20 UNL     1      20.718   3.414  52.317  1.00  0.00     0.181 C 
HETATM   24  N4  UNL     1      19.818   1.343  49.422  1.00  0.00    -0.152 N 
HETATM   25  N5  UNL     1      20.374   1.596  48.144  1.00  0.00    -0.225 NA
HETATM   26  C21 UNL     1      19.939   2.851  47.610  1.00  0.00     0.115 C 
HETATM   27  C22 UNL     1      20.344   4.081  48.319  1.00  0.00     0.050 C 
HETATM   28  H15 UNL     1      18.609   2.548  52.050  1.00  0.00     0.178 HD
HETATM   29  H18 UNL     1      18.926   0.786  49.444  1.00  0.00     0.199 HD
HETATM   30  H19 UNL     1      20.324   0.785  47.540  1.00  0.00     0.147 HD
ENDROOT
TORSDOF 0
ENDMDL
MODEL 2
REMARK VINA RESULT:      -9.2      9.867     11.374
REMARK  0 active torsions:
REMARK  status: ('A' for Active; 'I' for Inactive)
ROOT
HETATM    1  C1  UNL     1      26.326   8.090  46.652  1.00  0.00     0.043 C 
HETATM    2  C2  UNL     1      27.502   8.951  46.934  1.00  0.00    -0.083 C 
HETATM    3  C3  UNL     1      28.396   8.562  46.064  1.00  0.00     0.002 C 
HETATM    4  C4  UNL     1      29.478   8.240  45.165  1.00  0.00    -0.003 C 
HETATM    5  C5  UNL     1      30.687   8.318  44.624  1.00  0.00    -0.022 C 
HETATM    6  C6  UNL     1      31.821   9.259  45.039  1.00  0.00     0.067 C 
HETATM    7  C7  UNL     1      32.313   8.626  46.340  1.00  0.00    -0.034 A 
HETATM    8  C8  UNL     1      31.820   9.341  47.378  1.00  0.00     0.016 A 
HETATM    9  C9  UNL     1      32.054   8.542  48.468  1.00  0.00     0.177 A 
HETATM   10  N1  UNL     1      32.638   7.344  48.576  1.00  0.00    -0.227 NA
HETATM   11  C10 UNL     1      33.095   6.762  47.419  1.00  0.00     0.077 A 
HETATM   12  C11 UNL     1      32.936   7.421  46.190  1.00  0.00    -0.017 A 
HETATM   13  C12 UNL     1      33.495   6.619  45.077  1.00  0.00     0.081 A 
HETATM   14  C13 UNL     1      34.003   5.413  45.800  1.00  0.00    -0.041 A 
HETATM   15  C14 UNL     1      34.621   4.365  45.157  1.00  0.00     0.008 A 
HETATM   16  C15 UNL     1      35.042   3.302  45.967  1.00  0.00     0.001 A 
HETATM   17  C16 UNL     1      34.821   3.357  47.336  1.00  0.00     0.001 A 
HETATM   18  C17 UNL     1      34.186   4.456  47.924  1.00  0.00     0.014 A 
HETATM   19  C18 UNL     1      33.767   5.504  47.149  1.00  0.00    -0.000 A 
HETATM   20  N2  UNL     1      31.338   8.873  49.681  1.00  0.00    -0.044 NA
HETATM   21  C19 UNL     1      30.536   9.916  49.538  1.00  0.00     0.712 C 
HETATM   22  N3  UNL     1      30.994  11.028  48.786  1.00  0.00    -0.219 N 
HETATM   23  C20 UNL     1      31.328  10.710  47.371  1.00  0.00     0.181 C 
HETATM   24  N4  UNL     1      29.335   9.535  50.223  1.00  0.00    -0.152 N 
HETATM   25  N5  UNL     1      28.169   8.755  50.025  1.00  0.00    -0.225 NA
HETATM   26  C21 UNL     1      27.133   9.497  49.374  1.00  0.00     0.115 C 
HETATM   27  C22 UNL     1      27.376   9.959  47.993  1.00  0.00     0.050 C 
HETATM   28  H15 UNL     1      31.064  11.970  49.271  1.00  0.00     0.178 HD
HETATM   29  H18 UNL     1      29.419  10.028  51.147  1.00  0.00     0.199 HD
HETATM   30  H19 UNL     1      27.922   8.225  50.851  1.00  0.00     0.147 HD
ENDROOT
TORSDOF 0
ENDMDL
MODEL 3
REMARK VINA RESULT:      -9.0      3.120      5.020
REMARK  0 active torsions:
REMARK  status: ('A' for Active; 'I' for Inactive)
ROOT
HETATM    1  C1  UNL     1      20.798   7.764  50.971  1.00  0.00     0.043 C 
HETATM    2  C2  UNL     1      21.718   6.871  50.222  1.00  0.00    -0.083 C 
HETATM    3  C3  UNL     1      21.075   5.734  50.161  1.00  0.00     0.002 C 
HETATM    4  C4  UNL     1      20.489   4.423  50.014  1.00  0.00    -0.003 C 
HETATM    5  C5  UNL     1      20.404   3.153  49.640  1.00  0.00    -0.022 C 
HETATM    6  C6  UNL     1      21.457   2.347  48.876  1.00  0.00     0.067 C 
HETATM    7  C7  UNL     1      22.512   2.086  49.949  1.00  0.00    -0.034 A 
HETATM    8  C8  UNL     1      23.543   2.941  49.755  1.00  0.00     0.016 A 
HETATM    9  C9  UNL     1      24.274   2.842  50.912  1.00  0.00     0.177 A 
HETATM   10  N1  UNL     1      24.098   2.095  52.007  1.00  0.00    -0.227 NA
HETATM   11  C10 UNL     1      23.002   1.269  52.033  1.00  0.00     0.077 A 
HETATM   12  C11 UNL     1      22.119   1.237  50.943  1.00  0.00    -0.017 A 
HETATM   13  C12 UNL     1      21.009   0.284  51.181  1.00  0.00     0.081 A 
HETATM   14  C13 UNL     1      21.349  -0.240  52.540  1.00  0.00    -0.041 A 
HETATM   15  C14 UNL     1      20.579  -1.178  53.189  1.00  0.00     0.008 A 
HETATM   16  C15 UNL     1      21.021  -1.571  54.459  1.00  0.00     0.001 A 
HETATM   17  C16 UNL     1      22.179  -1.013  54.982  1.00  0.00     0.001 A 
HETATM   18  C17 UNL     1      22.914  -0.064  54.265  1.00  0.00     0.014 A 
HETATM   19  C18 UNL     1      22.497   0.334  53.023  1.00  0.00    -0.000 A 
HETATM   20  N2  UNL     1      25.250   3.883  51.154  1.00  0.00    -0.044 NA
HETATM   21  C19 UNL     1      25.271   4.801  50.201  1.00  0.00     0.712 C 
HETATM   22  N3  UNL     1      25.161   4.381  48.851  1.00  0.00    -0.219 N 
HETATM   23  C20 UNL     1      23.899   3.656  48.540  1.00  0.00     0.181 C 
HETATM   24  N4  UNL     1      25.373   6.044  50.908  1.00  0.00    -0.152 N 
HETATM   25  N5  UNL     1      24.561   6.963  51.617  1.00  0.00    -0.225 NA
HETATM   26  C21 UNL     1      23.955   7.924  50.746  1.00  0.00     0.115 C 
HETATM   27  C22 UNL     1      22.985   7.435  49.746  1.00  0.00     0.050 C 
HETATM   28  H15 UNL     1      25.958   4.606  48.185  1.00  0.00     0.178 HD
HETATM   29  H18 UNL     1      26.394   6.281  50.831  1.00  0.00     0.199 HD
HETATM   30  H19 UNL     1      25.016   7.306  52.453  1.00  0.00     0.147 HD
ENDROOT
TORSDOF 0
ENDMDL
MODEL 4
REMARK VINA RESULT:      -8.8     10.476     12.402
REMARK  0 active torsions:
REMARK  status: ('A' for Active; 'I' for Inactive)
ROOT
HETATM    1  C1  UNL     1      33.577   4.323  42.221  1.00  0.00     0.043 C 
HETATM    2  C2  UNL     1      33.966   5.138  43.400  1.00  0.00    -0.083 C 
HETATM    3  C3  UNL     1      33.266   4.631  44.381  1.00  0.00     0.002 C 
HETATM    4  C4  UNL     1      32.562   4.179  45.556  1.00  0.00    -0.003 C 
HETATM    5  C5  UNL     1      32.192   4.153  46.830  1.00  0.00    -0.022 C 
HETATM    6  C6  UNL     1      32.672   5.085  47.946  1.00  0.00     0.067 C 
HETATM    7  C7  UNL     1      31.930   6.383  47.631  1.00  0.00    -0.034 A 
HETATM    8  C8  UNL     1      32.793   7.237  47.035  1.00  0.00     0.016 A 
HETATM    9  C9  UNL     1      31.983   8.223  46.530  1.00  0.00     0.177 A 
HETATM   10  N1  UNL     1      30.658   8.391  46.583  1.00  0.00    -0.227 NA
HETATM   11  C10 UNL     1      29.930   7.431  47.242  1.00  0.00     0.077 A 
HETATM   12  C11 UNL     1      30.579   6.329  47.819  1.00  0.00    -0.017 A 
HETATM   13  C12 UNL     1      29.609   5.420  48.474  1.00  0.00     0.081 A 
HETATM   14  C13 UNL     1      28.315   6.122  48.213  1.00  0.00    -0.041 A 
HETATM   15  C14 UNL     1      27.103   5.634  48.647  1.00  0.00     0.008 A 
HETATM   16  C15 UNL     1      25.976   6.400  48.325  1.00  0.00     0.001 A 
HETATM   17  C16 UNL     1      26.132   7.578  47.607  1.00  0.00     0.001 A 
HETATM   18  C17 UNL     1      27.396   8.014  47.197  1.00  0.00     0.014 A 
HETATM   19  C18 UNL     1      28.510   7.279  47.502  1.00  0.00    -0.000 A 
HETATM   20  N2  UNL     1      32.571   9.104  45.544  1.00  0.00    -0.044 NA
HETATM   21  C19 UNL     1      33.829   8.800  45.266  1.00  0.00     0.712 C 
HETATM   22  N3  UNL     1      34.689   8.428  46.330  1.00  0.00    -0.219 N 
HETATM   23  C20 UNL     1      34.247   7.218  47.076  1.00  0.00     0.181 C 
HETATM   24  N4  UNL     1      33.917   8.922  43.840  1.00  0.00    -0.152 N 
HETATM   25  N5  UNL     1      33.602   8.198  42.664  1.00  0.00    -0.225 NA
HETATM   26  C21 UNL     1      34.653   7.302  42.290  1.00  0.00     0.115 C 
HETATM   27  C22 UNL     1      34.971   6.188  43.205  1.00  0.00     0.050 C 
HETATM   28  H15 UNL     1      35.553   9.019  46.511  1.00  0.00     0.178 HD
HETATM   29  H18 UNL     1      34.364   9.864  43.706  1.00  0.00     0.199 HD
HETATM   30  H19 UNL     1      33.211   8.793  41.944  1.00  0.00     0.147 HD
ENDROOT
TORSDOF 0
ENDMDL
MODEL 5
REMARK VINA RESULT:      -8.7      2.556      3.745
REMARK  0 active torsions:
REMARK  status: ('A' for Active; 'I' for Inactive)
ROOT
HETATM    1  C1  UNL     1      21.932   3.566  45.777  1.00  0.00     0.043 C 
HETATM    2  C2  UNL     1      21.910   4.397  47.008  1.00  0.00    -0.083 C 
HETATM    3  C3  UNL     1      22.699   3.761  47.833  1.00  0.00     0.002 C 
HETATM    4  C4  UNL     1      23.539   3.172  48.848  1.00  0.00    -0.003 C 
HETATM    5  C5  UNL     1      24.132   3.047  50.029  1.00  0.00    -0.022 C 
HETATM    6  C6  UNL     1      23.998   3.989  51.228  1.00  0.00     0.067 C 
HETATM    7  C7  UNL     1      22.606   3.651  51.757  1.00  0.00    -0.034 A 
HETATM    8  C8  UNL     1      21.748   4.618  51.357  1.00  0.00     0.016 A 
HETATM    9  C9  UNL     1      20.510   4.084  51.610  1.00  0.00     0.177 A 
HETATM   10  N1  UNL     1      20.144   2.911  52.139  1.00  0.00    -0.227 NA
HETATM   11  C10 UNL     1      21.148   2.048  52.503  1.00  0.00     0.077 A 
HETATM   12  C11 UNL     1      22.490   2.408  52.311  1.00  0.00    -0.017 A 
HETATM   13  C12 UNL     1      23.404   1.335  52.770  1.00  0.00     0.081 A 
HETATM   14  C13 UNL     1      22.436   0.304  53.256  1.00  0.00    -0.041 A 
HETATM   15  C14 UNL     1      22.837  -0.901  53.786  1.00  0.00     0.008 A 
HETATM   16  C15 UNL     1      21.816  -1.767  54.197  1.00  0.00     0.001 A 
HETATM   17  C16 UNL     1      20.491  -1.379  54.054  1.00  0.00     0.001 A 
HETATM   18  C17 UNL     1      20.155  -0.137  53.505  1.00  0.00     0.014 A 
HETATM   19  C18 UNL     1      21.139   0.723  53.097  1.00  0.00    -0.000 A 
HETATM   20  N2  UNL     1      19.382   4.733  50.978  1.00  0.00    -0.044 NA
HETATM   21  C19 UNL     1      19.735   5.760  50.221  1.00  0.00     0.712 C 
HETATM   22  N3  UNL     1      20.747   6.634  50.692  1.00  0.00    -0.219 N 
HETATM   23  C20 UNL     1      22.059   5.974  50.933  1.00  0.00     0.181 C 
HETATM   24  N4  UNL     1      18.932   5.624  49.042  1.00  0.00    -0.152 N 
HETATM   25  N5  UNL     1      18.891   4.891  47.830  1.00  0.00    -0.225 NA
HETATM   26  C21 UNL     1      19.656   5.521  46.798  1.00  0.00     0.115 C 
HETATM   27  C22 UNL     1      21.116   5.630  46.988  1.00  0.00     0.050 C 
HETATM   28  H15 UNL     1      20.503   7.658  50.834  1.00  0.00     0.178 HD
HETATM   29  H18 UNL     1      18.154   6.314  49.199  1.00  0.00     0.199 HD
HETATM   30  H19 UNL     1      17.953   4.586  47.601  1.00  0.00     0.147 HD
ENDROOT
TORSDOF 0
ENDMDL
MODEL 6
REMARK VINA RESULT:      -8.6      2.992      6.747
REMARK  0 active torsions:
REMARK  status: ('A' for Active; 'I' for Inactive)
ROOT
HETATM    1  C1  UNL     1      24.086   7.054  47.605  1.00  0.00     0.043 C 
HETATM    2  C2  UNL     1      24.254   5.989  48.626  1.00  0.00    -0.083 C 
HETATM    3  C3  UNL     1      23.412   5.060  48.256  1.00  0.00     0.002 C 
HETATM    4  C4  UNL     1      22.531   3.953  47.973  1.00  0.00    -0.003 C 
HETATM    5  C5  UNL     1      21.954   2.770  48.143  1.00  0.00    -0.022 C 
HETATM    6  C6  UNL     1      22.220   1.772  49.272  1.00  0.00     0.067 C 
HETATM    7  C7  UNL     1      21.511   2.423  50.459  1.00  0.00    -0.034 A 
HETATM    8  C8  UNL     1      22.442   3.012  51.244  1.00  0.00     0.016 A 
HETATM    9  C9  UNL     1      21.707   3.805  52.088  1.00  0.00     0.177 A 
HETATM   10  N1  UNL     1      20.387   3.996  52.195  1.00  0.00    -0.227 NA
HETATM   11  C10 UNL     1      19.582   3.305  51.323  1.00  0.00     0.077 A 
HETATM   12  C11 UNL     1      20.149   2.448  50.368  1.00  0.00    -0.017 A 
HETATM   13  C12 UNL     1      19.105   1.809  49.534  1.00  0.00     0.081 A 
HETATM   14  C13 UNL     1      17.857   2.393  50.115  1.00  0.00    -0.041 A 
HETATM   15  C14 UNL     1      16.601   2.081  49.646  1.00  0.00     0.008 A 
HETATM   16  C15 UNL     1      15.526   2.709  50.288  1.00  0.00     0.001 A 
HETATM   17  C16 UNL     1      15.773   3.587  51.335  1.00  0.00     0.001 A 
HETATM   18  C17 UNL     1      17.078   3.858  51.760  1.00  0.00     0.014 A 
HETATM   19  C18 UNL     1      18.142   3.255  51.144  1.00  0.00    -0.000 A 
HETATM   20  N2  UNL     1      22.431   4.822  52.819  1.00  0.00    -0.044 NA
HETATM   21  C19 UNL     1      23.724   4.836  52.538  1.00  0.00     0.712 C 
HETATM   22  N3  UNL     1      24.402   3.599  52.395  1.00  0.00    -0.219 N 
HETATM   23  C20 UNL     1      23.869   2.735  51.307  1.00  0.00     0.181 C 
HETATM   24  N4  UNL     1      24.046   6.229  52.423  1.00  0.00    -0.152 N 
HETATM   25  N5  UNL     1      23.949   7.296  51.496  1.00  0.00    -0.225 NA
HETATM   26  C21 UNL     1      25.068   7.334  50.605  1.00  0.00     0.115 C 
HETATM   27  C22 UNL     1      25.254   6.200  49.679  1.00  0.00     0.050 C 
HETATM   28  H15 UNL     1      25.211   3.387  53.051  1.00  0.00     0.178 HD
HETATM   29  H18 UNL     1      24.488   6.451  53.350  1.00  0.00     0.199 HD
HETATM   30  H19 UNL     1      23.671   8.161  51.941  1.00  0.00     0.147 HD
ENDROOT
TORSDOF 0
ENDMDL
MODEL 7
REMARK VINA RESULT:      -8.4      1.600      2.373
REMARK  0 active torsions:
REMARK  status: ('A' for Active; 'I' for Inactive)
ROOT
HETATM    1  C1  UNL     1      21.997   3.656  45.430  1.00  0.00     0.043 C 
HETATM    2  C2  UNL     1      21.367   4.267  46.628  1.00  0.00    -0.083 C 
HETATM    3  C3  UNL     1      22.355   4.397  47.474  1.00  0.00     0.002 C 
HETATM    4  C4  UNL     1      23.341   4.603  48.508  1.00  0.00    -0.003 C 
HETATM    5  C5  UNL     1      23.821   4.969  49.690  1.00  0.00    -0.022 C 
HETATM    6  C6  UNL     1      23.033   5.579  50.852  1.00  0.00     0.067 C 
HETATM    7  C7  UNL     1      22.271   4.373  51.400  1.00  0.00    -0.034 A 
HETATM    8  C8  UNL     1      20.991   4.441  50.967  1.00  0.00     0.016 A 
HETATM    9  C9  UNL     1      20.483   3.198  51.245  1.00  0.00     0.177 A 
HETATM   10  N1  UNL     1      21.037   2.126  51.821  1.00  0.00    -0.227 NA
HETATM   11  C10 UNL     1      22.349   2.233  52.214  1.00  0.00     0.077 A 
HETATM   12  C11 UNL     1      23.052   3.428  52.003  1.00  0.00    -0.017 A 
HETATM   13  C12 UNL     1      24.444   3.326  52.498  1.00  0.00     0.081 A 
HETATM   14  C13 UNL     1      24.473   1.928  53.027  1.00  0.00    -0.041 A 
HETATM   15  C14 UNL     1      25.594   1.373  53.602  1.00  0.00     0.008 A 
HETATM   16  C15 UNL     1      25.470   0.052  54.051  1.00  0.00     0.001 A 
HETATM   17  C16 UNL     1      24.260  -0.612  53.898  1.00  0.00     0.001 A 
HETATM   18  C17 UNL     1      23.161   0.015  53.304  1.00  0.00     0.014 A 
HETATM   19  C18 UNL     1      23.262   1.306  52.859  1.00  0.00    -0.000 A 
HETATM   20  N2  UNL     1      19.241   2.843  50.594  1.00  0.00    -0.044 NA
HETATM   21  C19 UNL     1      18.787   3.797  49.796  1.00  0.00     0.712 C 
HETATM   22  N3  UNL     1      18.877   5.145  50.229  1.00  0.00    -0.219 N 
HETATM   23  C20 UNL     1      20.267   5.609  50.490  1.00  0.00     0.181 C 
HETATM   24  N4  UNL     1      18.341   3.098  48.627  1.00  0.00    -0.152 N 
HETATM   25  N5  UNL     1      18.857   2.514  47.444  1.00  0.00    -0.225 NA
HETATM   26  C21 UNL     1      18.981   3.468  46.385  1.00  0.00     0.115 C 
HETATM   27  C22 UNL     1      19.935   4.581  46.565  1.00  0.00     0.050 C 
HETATM   28  H15 UNL     1      17.979   5.703  50.332  1.00  0.00     0.178 HD
HETATM   29  H18 UNL     1      17.300   3.044  48.761  1.00  0.00     0.199 HD
HETATM   30  H19 UNL     1      18.413   1.629  47.232  1.00  0.00     0.147 HD
ENDROOT
TORSDOF 0
ENDMDL
MODEL 8
REMARK VINA RESULT:      -8.3      9.855     12.556
REMARK  0 active torsions:
REMARK  status: ('A' for Active; 'I' for Inactive)
ROOT
HETATM    1  C1  UNL     1      33.152   2.368  47.105  1.00  0.00     0.043 C 
HETATM    2  C2  UNL     1      33.528   3.804  47.135  1.00  0.00    -0.083 C 
HETATM    3  C3  UNL     1      32.536   4.379  47.761  1.00  0.00     0.002 C 
HETATM    4  C4  UNL     1      31.517   5.150  48.432  1.00  0.00    -0.003 C 
HETATM    5  C5  UNL     1      30.917   6.228  48.922  1.00  0.00    -0.022 C 
HETATM    6  C6  UNL     1      31.426   7.670  48.860  1.00  0.00     0.067 C 
HETATM    7  C7  UNL     1      31.173   8.044  47.400  1.00  0.00    -0.034 A 
HETATM    8  C8  UNL     1      32.347   7.980  46.730  1.00  0.00     0.016 A 
HETATM    9  C9  UNL     1      31.975   8.030  45.411  1.00  0.00     0.177 A 
HETATM   10  N1  UNL     1      30.773   8.138  44.835  1.00  0.00    -0.227 NA
HETATM   11  C10 UNL     1      29.683   8.204  45.667  1.00  0.00     0.077 A 
HETATM   12  C11 UNL     1      29.856   8.155  47.058  1.00  0.00    -0.017 A 
HETATM   13  C12 UNL     1      28.555   8.240  47.763  1.00  0.00     0.081 A 
HETATM   14  C13 UNL     1      27.600   8.348  46.618  1.00  0.00    -0.041 A 
HETATM   15  C14 UNL     1      26.238   8.453  46.792  1.00  0.00     0.008 A 
HETATM   16  C15 UNL     1      25.469   8.544  45.625  1.00  0.00     0.001 A 
HETATM   17  C16 UNL     1      26.099   8.526  44.388  1.00  0.00     0.001 A 
HETATM   18  C17 UNL     1      27.490   8.417  44.285  1.00  0.00     0.014 A 
HETATM   19  C18 UNL     1      28.259   8.326  45.414  1.00  0.00    -0.000 A 
HETATM   20  N2  UNL     1      32.974   7.638  44.440  1.00  0.00    -0.044 NA
HETATM   21  C19 UNL     1      34.117   7.268  44.997  1.00  0.00     0.712 C 
HETATM   22  N3  UNL     1      34.608   8.011  46.100  1.00  0.00    -0.219 N 
HETATM   23  C20 UNL     1      33.695   8.032  47.275  1.00  0.00     0.181 C 
HETATM   24  N4  UNL     1      34.508   6.103  44.259  1.00  0.00    -0.152 N 
HETATM   25  N5  UNL     1      34.228   4.716  44.182  1.00  0.00    -0.225 NA
HETATM   26  C21 UNL     1      35.021   3.958  45.101  1.00  0.00     0.115 C 
HETATM   27  C22 UNL     1      34.816   4.187  46.545  1.00  0.00     0.050 C 
HETATM   28  H15 UNL     1      35.555   8.482  46.009  1.00  0.00     0.178 HD
HETATM   29  H18 UNL     1      35.229   6.473  43.589  1.00  0.00     0.199 HD
HETATM   30  H19 UNL     1      34.175   4.391  43.225  1.00  0.00     0.147 HD
ENDROOT
TORSDOF 0
ENDMDL
MODEL 9
REMARK VINA RESULT:      -8.2      4.015      5.701
REMARK  0 active torsions:
REMARK  status: ('A' for Active; 'I' for Inactive)
ROOT
HETATM    1  C1  UNL     1      21.127   3.986  45.325  1.00  0.00     0.043 C 
HETATM    2  C2  UNL     1      21.367   4.375  46.738  1.00  0.00    -0.083 C 
HETATM    3  C3  UNL     1      22.150   5.417  46.651  1.00  0.00     0.002 C 
HETATM    4  C4  UNL     1      23.013   6.572  46.712  1.00  0.00    -0.003 C 
HETATM    5  C5  UNL     1      23.726   7.543  47.270  1.00  0.00    -0.022 C 
HETATM    6  C6  UNL     1      23.897   7.813  48.767  1.00  0.00     0.067 C 
HETATM    7  C7  UNL     1      24.854   6.701  49.194  1.00  0.00    -0.034 A 
HETATM    8  C8  UNL     1      24.139   5.734  49.814  1.00  0.00     0.016 A 
HETATM    9  C9  UNL     1      25.008   4.675  49.883  1.00  0.00     0.177 A 
HETATM   10  N1  UNL     1      26.277   4.546  49.480  1.00  0.00    -0.227 NA
HETATM   11  C10 UNL     1      26.857   5.635  48.877  1.00  0.00     0.077 A 
HETATM   12  C11 UNL     1      26.122   6.816  48.700  1.00  0.00    -0.017 A 
HETATM   13  C12 UNL     1      26.935   7.858  48.030  1.00  0.00     0.081 A 
HETATM   14  C13 UNL     1      28.235   7.146  47.837  1.00  0.00    -0.041 A 
HETATM   15  C14 UNL     1      29.325   7.736  47.237  1.00  0.00     0.008 A 
HETATM   16  C15 UNL     1      30.474   6.944  47.124  1.00  0.00     0.001 A 
HETATM   17  C16 UNL     1      30.459   5.643  47.608  1.00  0.00     0.001 A 
HETATM   18  C17 UNL     1      29.314   5.107  48.207  1.00  0.00     0.014 A 
HETATM   19  C18 UNL     1      28.181   5.866  48.327  1.00  0.00    -0.000 A 
HETATM   20  N2  UNL     1      24.434   3.382  50.185  1.00  0.00    -0.044 NA
HETATM   21  C19 UNL     1      23.119   3.424  50.335  1.00  0.00     0.712 C 
HETATM   22  N3  UNL     1      22.551   4.515  51.041  1.00  0.00    -0.219 N 
HETATM   23  C20 UNL     1      22.826   5.845  50.430  1.00  0.00     0.181 C 
HETATM   24  N4  UNL     1      22.646   2.263  49.640  1.00  0.00    -0.152 N 
HETATM   25  N5  UNL     1      22.366   1.821  48.324  1.00  0.00    -0.225 NA
HETATM   26  C21 UNL     1      21.038   2.162  47.915  1.00  0.00     0.115 C 
HETATM   27  C22 UNL     1      20.701   3.594  47.786  1.00  0.00     0.050 C 
HETATM   28  H15 UNL     1      21.993   4.311  51.921  1.00  0.00     0.178 HD
HETATM   29  H18 UNL     1      22.473   1.573  50.414  1.00  0.00     0.199 HD
HETATM   30  H19 UNL     1      22.676   0.870  48.168  1.00  0.00     0.147 HD
ENDROOT
TORSDOF 0
ENDMDL
