MODEL 1
REMARK VINA RESULT:      -8.6      0.000      0.000
REMARK  5 active torsions:
REMARK  status: ('A' for Active; 'I' for Inactive)
REMARK    1  A    between atoms: O1_2  and  C2_3 
REMARK    2  A    between atoms: C10_13  and  C11_14 
REMARK    3  A    between atoms: C14_17  and  C15_18 
REMARK    4  A    between atoms: C15_18  and  C16_19 
REMARK    5  A    between atoms: C16_19  and  O3_21 
ROOT
HETATM    1  C11 UNL     1      24.096  -0.001  53.490  1.00  0.00     0.033 C 
HETATM    2  C12 UNL     1      25.091   0.838  53.120  1.00  0.00    -0.051 C 
HETATM    3  C13 UNL     1      24.763   1.821  52.060  1.00  0.00     0.046 C 
HETATM    4  C14 UNL     1      26.496   0.974  53.607  1.00  0.00     0.043 C 
HETATM    5  C18 UNL     1      26.519   0.724  55.120  1.00  0.00     0.179 C 
HETATM    6  O4  UNL     1      26.429  -0.631  55.411  1.00  0.00    -0.371 OA
HETATM    7  C19 UNL     1      25.096  -0.946  55.724  1.00  0.00     0.290 C 
HETATM    8  N2  UNL     1      24.380  -1.006  54.489  1.00  0.00    -0.368 N 
HETATM    9  H24 UNL     1      23.977  -1.959  54.219  1.00  0.00     0.161 HD
ENDROOT
BRANCH   1  10
HETATM   10  C10 UNL     1      22.805   0.089  52.869  1.00  0.00     0.047 C 
HETATM   11  C9  UNL     1      21.531  -0.202  52.879  1.00  0.00     0.046 A 
HETATM   12  C5  UNL     1      20.430   0.104  51.963  1.00  0.00     0.007 A 
HETATM   13  C8  UNL     1      20.954  -0.951  54.001  1.00  0.00     0.257 A 
HETATM   14  C4  UNL     1      20.449   0.784  50.772  1.00  0.00     0.017 A 
HETATM   15  C6  UNL     1      19.316  -0.440  52.541  1.00  0.00     0.049 A 
HETATM   16  C3  UNL     1      19.292   0.969  50.053  1.00  0.00     0.038 A 
HETATM   17  C2  UNL     1      18.135   0.444  50.583  1.00  0.00     0.070 A 
HETATM   18  C7  UNL     1      18.174  -0.229  51.781  1.00  0.00     0.067 A 
HETATM   19  N1  UNL     1      19.537  -1.099  53.776  1.00  0.00    -0.322 N 
HETATM   20  H7  UNL     1      18.736  -1.549  54.295  1.00  0.00     0.169 HD
HETATM   21  O2  UNL     1      21.288  -1.502  55.087  1.00  0.00    -0.267 OA
BRANCH  17  22
HETATM   22  O1  UNL     1      16.967   0.629  49.858  1.00  0.00    -0.356 OA
HETATM   23  C1  UNL     1      16.214  -0.397  49.283  1.00  0.00     0.210 C 
ENDBRANCH  17  22
ENDBRANCH   1  10
BRANCH   4  24
HETATM   24  C15 UNL     1      27.459   0.060  52.932  1.00  0.00     0.042 C 
BRANCH  24  25
HETATM   25  C16 UNL     1      28.837   0.096  53.574  1.00  0.00     0.114 C 
HETATM   26  C17 UNL     1      29.466  -1.265  53.295  1.00  0.00     0.039 C 
BRANCH  25  27
HETATM   27  O3  UNL     1      29.637   1.100  53.049  1.00  0.00    -0.396 OA
HETATM   28  H19 UNL     1      29.132   1.952  53.035  1.00  0.00     0.210 HD
ENDBRANCH  25  27
ENDBRANCH  24  25
ENDBRANCH   4  24
TORSDOF 5
ENDMDL
MODEL 2
REMARK VINA RESULT:      -8.3      2.258      8.414
REMARK  5 active torsions:
REMARK  status: ('A' for Active; 'I' for Inactive)
REMARK    1  A    between atoms: O1_2  and  C2_3 
REMARK    2  A    between atoms: C10_13  and  C11_14 
REMARK    3  A    between atoms: C14_17  and  C15_18 
REMARK    4  A    between atoms: C15_18  and  C16_19 
REMARK    5  A    between atoms: C16_19  and  O3_21 
ROOT
HETATM    1  C11 UNL     1      21.066   0.642  51.687  1.00  0.00     0.033 C 
HETATM    2  C12 UNL     1      20.023   0.416  52.519  1.00  0.00    -0.051 C 
HETATM    3  C13 UNL     1      20.359   0.143  53.937  1.00  0.00     0.046 C 
HETATM    4  C14 UNL     1      18.551   0.407  52.272  1.00  0.00     0.043 C 
HETATM    5  C18 UNL     1      18.215   1.503  51.253  1.00  0.00     0.179 C 
HETATM    6  O4  UNL     1      18.549   1.114  49.963  1.00  0.00    -0.371 OA
HETATM    7  C19 UNL     1      19.800   1.659  49.627  1.00  0.00     0.290 C 
HETATM    8  N2  UNL     1      20.791   0.870  50.287  1.00  0.00    -0.368 N 
HETATM    9  H24 UNL     1      21.461   0.325  49.656  1.00  0.00     0.161 HD
ENDROOT
BRANCH   1  10
HETATM   10  C10 UNL     1      22.411   0.614  52.187  1.00  0.00     0.047 C 
HETATM   11  C9  UNL     1      23.477   1.259  52.582  1.00  0.00     0.046 A 
HETATM   12  C5  UNL     1      24.788   0.820  53.066  1.00  0.00     0.007 A 
HETATM   13  C8  UNL     1      23.473   2.725  52.635  1.00  0.00     0.257 A 
HETATM   14  C4  UNL     1      25.284  -0.450  53.208  1.00  0.00     0.017 A 
HETATM   15  C6  UNL     1      25.466   1.969  53.367  1.00  0.00     0.049 A 
HETATM   16  C3  UNL     1      26.557  -0.654  53.687  1.00  0.00     0.038 A 
HETATM   17  C2  UNL     1      27.292   0.464  54.008  1.00  0.00     0.070 A 
HETATM   18  C7  UNL     1      26.743   1.715  53.845  1.00  0.00     0.067 A 
HETATM   19  N1  UNL     1      24.750   3.171  53.138  1.00  0.00    -0.322 N 
HETATM   20  H7  UNL     1      25.194   4.106  53.342  1.00  0.00     0.169 HD
HETATM   21  O2  UNL     1      22.728   3.714  52.389  1.00  0.00    -0.267 OA
BRANCH  17  22
HETATM   22  O1  UNL     1      28.576   0.260  54.491  1.00  0.00    -0.356 OA
HETATM   23  C1  UNL     1      29.561  -0.493  53.846  1.00  0.00     0.210 C 
ENDBRANCH  17  22
ENDBRANCH   1  10
BRANCH   4  24
HETATM   24  C15 UNL     1      18.028  -0.903  51.792  1.00  0.00     0.042 C 
BRANCH  24  25
HETATM   25  C16 UNL     1      17.050  -1.530  52.774  1.00  0.00     0.114 C 
HETATM   26  C17 UNL     1      17.868  -2.497  53.622  1.00  0.00     0.039 C 
BRANCH  25  27
HETATM   27  O3  UNL     1      16.444  -0.584  53.590  1.00  0.00    -0.396 OA
HETATM   28  H19 UNL     1      16.451  -0.904  54.527  1.00  0.00     0.210 HD
ENDBRANCH  25  27
ENDBRANCH  24  25
ENDBRANCH   4  24
TORSDOF 5
ENDMDL
MODEL 3
REMARK VINA RESULT:      -8.2      1.447      8.019
REMARK  5 active torsions:
REMARK  status: ('A' for Active; 'I' for Inactive)
REMARK    1  A    between atoms: O1_2  and  C2_3 
REMARK    2  A    between atoms: C10_13  and  C11_14 
REMARK    3  A    between atoms: C14_17  and  C15_18 
REMARK    4  A    between atoms: C15_18  and  C16_19 
REMARK    5  A    between atoms: C16_19  and  O3_21 
ROOT
HETATM    1  C11 UNL     1      20.775   0.204  52.320  1.00  0.00     0.033 C 
HETATM    2  C12 UNL     1      20.269   0.615  51.134  1.00  0.00    -0.051 C 
HETATM    3  C13 UNL     1      21.255   1.030  50.107  1.00  0.00     0.046 C 
HETATM    4  C14 UNL     1      18.863   0.716  50.645  1.00  0.00     0.043 C 
HETATM    5  C18 UNL     1      18.060  -0.465  51.206  1.00  0.00     0.179 C 
HETATM    6  O4  UNL     1      17.731  -0.264  52.540  1.00  0.00    -0.371 OA
HETATM    7  C19 UNL     1      18.654  -0.948  53.349  1.00  0.00     0.290 C 
HETATM    8  N2  UNL     1      19.852  -0.169  53.368  1.00  0.00    -0.368 N 
HETATM    9  H24 UNL     1      20.139   0.237  54.314  1.00  0.00     0.161 HD
ENDROOT
BRANCH   1  10
HETATM   10  C10 UNL     1      22.193   0.181  52.534  1.00  0.00     0.047 C 
HETATM   11  C9  UNL     1      23.212  -0.158  53.279  1.00  0.00     0.046 A 
HETATM   12  C5  UNL     1      24.659   0.023  53.135  1.00  0.00     0.007 A 
HETATM   13  C8  UNL     1      22.999  -0.912  54.520  1.00  0.00     0.257 A 
HETATM   14  C4  UNL     1      25.364   0.658  52.147  1.00  0.00     0.017 A 
HETATM   15  C6  UNL     1      25.210  -0.592  54.226  1.00  0.00     0.049 A 
HETATM   16  C3  UNL     1      26.737   0.718  52.195  1.00  0.00     0.038 A 
HETATM   17  C2  UNL     1      27.353   0.118  53.269  1.00  0.00     0.070 A 
HETATM   18  C7  UNL     1      26.595  -0.506  54.233  1.00  0.00     0.067 A 
HETATM   19  N1  UNL     1      24.283  -1.185  55.119  1.00  0.00    -0.322 N 
HETATM   20  H7  UNL     1      24.617  -1.681  55.988  1.00  0.00     0.169 HD
HETATM   21  O2  UNL     1      22.071  -1.396  55.227  1.00  0.00    -0.267 OA
BRANCH  17  22
HETATM   22  O1  UNL     1      28.737   0.178  53.319  1.00  0.00    -0.356 OA
HETATM   23  C1  UNL     1      29.569  -0.874  53.712  1.00  0.00     0.210 C 
ENDBRANCH  17  22
ENDBRANCH   1  10
BRANCH   4  24
HETATM   24  C15 UNL     1      18.190   1.996  51.002  1.00  0.00     0.042 C 
BRANCH  24  25
HETATM   25  C16 UNL     1      17.819   2.816  49.776  1.00  0.00     0.114 C 
HETATM   26  C17 UNL     1      18.610   4.116  49.885  1.00  0.00     0.039 C 
BRANCH  25  27
HETATM   27  O3  UNL     1      18.141   2.168  48.592  1.00  0.00    -0.396 OA
HETATM   28  H19 UNL     1      17.926   1.204  48.675  1.00  0.00     0.210 HD
ENDBRANCH  25  27
ENDBRANCH  24  25
ENDBRANCH   4  24
TORSDOF 5
ENDMDL
MODEL 4
REMARK VINA RESULT:      -8.2      1.858      2.451
REMARK  5 active torsions:
REMARK  status: ('A' for Active; 'I' for Inactive)
REMARK    1  A    between atoms: O1_2  and  C2_3 
REMARK    2  A    between atoms: C10_13  and  C11_14 
REMARK    3  A    between atoms: C14_17  and  C15_18 
REMARK    4  A    between atoms: C15_18  and  C16_19 
REMARK    5  A    between atoms: C16_19  and  O3_21 
ROOT
HETATM    1  C11 UNL     1      23.489   0.497  52.955  1.00  0.00     0.033 C 
HETATM    2  C12 UNL     1      24.015   1.706  52.651  1.00  0.00    -0.051 C 
HETATM    3  C13 UNL     1      23.071   2.723  52.130  1.00  0.00     0.046 C 
HETATM    4  C14 UNL     1      25.409   2.230  52.762  1.00  0.00     0.043 C 
HETATM    5  C18 UNL     1      26.053   1.651  54.028  1.00  0.00     0.179 C 
HETATM    6  O4  UNL     1      26.442   0.331  53.840  1.00  0.00    -0.371 OA
HETATM    7  C19 UNL     1      25.454  -0.518  54.366  1.00  0.00     0.290 C 
HETATM    8  N2  UNL     1      24.378  -0.540  53.426  1.00  0.00    -0.368 N 
HETATM    9  H24 UNL     1      24.175  -1.480  52.958  1.00  0.00     0.161 HD
ENDROOT
BRANCH   1  10
HETATM   10  C10 UNL     1      22.087   0.251  52.772  1.00  0.00     0.047 C 
HETATM   11  C9  UNL     1      21.010  -0.411  53.104  1.00  0.00     0.046 A 
HETATM   12  C5  UNL     1      19.625  -0.366  52.628  1.00  0.00     0.007 A 
HETATM   13  C8  UNL     1      21.057  -1.400  54.186  1.00  0.00     0.257 A 
HETATM   14  C4  UNL     1      19.068   0.396  51.634  1.00  0.00     0.017 A 
HETATM   15  C6  UNL     1      18.949  -1.273  53.399  1.00  0.00     0.049 A 
HETATM   16  C3  UNL     1      17.730   0.289  51.337  1.00  0.00     0.038 A 
HETATM   17  C2  UNL     1      16.994  -0.607  52.078  1.00  0.00     0.070 A 
HETATM   18  C7  UNL     1      17.605  -1.347  53.064  1.00  0.00     0.067 A 
HETATM   19  N1  UNL     1      19.734  -1.947  54.368  1.00  0.00    -0.322 N 
HETATM   20  H7  UNL     1      19.297  -2.664  55.007  1.00  0.00     0.169 HD
HETATM   21  O2  UNL     1      21.865  -1.923  55.003  1.00  0.00    -0.267 OA
BRANCH  17  22
HETATM   22  O1  UNL     1      15.644  -0.716  51.779  1.00  0.00    -0.356 OA
HETATM   23  C1  UNL     1      15.117  -1.475  50.731  1.00  0.00     0.210 C 
ENDBRANCH  17  22
ENDBRANCH   1  10
BRANCH   4  24
HETATM   24  C15 UNL     1      26.263   1.926  51.580  1.00  0.00     0.042 C 
BRANCH  24  25
HETATM   25  C16 UNL     1      26.637   3.178  50.800  1.00  0.00     0.114 C 
HETATM   26  C17 UNL     1      26.512   2.806  49.326  1.00  0.00     0.039 C 
BRANCH  25  27
HETATM   27  O3  UNL     1      25.800   4.247  51.088  1.00  0.00    -0.396 OA
HETATM   28  H19 UNL     1      24.858   3.943  51.070  1.00  0.00     0.210 HD
ENDBRANCH  25  27
ENDBRANCH  24  25
ENDBRANCH   4  24
TORSDOF 5
ENDMDL
MODEL 5
REMARK VINA RESULT:      -7.9      4.161      7.860
REMARK  5 active torsions:
REMARK  status: ('A' for Active; 'I' for Inactive)
REMARK    1  A    between atoms: O1_2  and  C2_3 
REMARK    2  A    between atoms: C10_13  and  C11_14 
REMARK    3  A    between atoms: C14_17  and  C15_18 
REMARK    4  A    between atoms: C15_18  and  C16_19 
REMARK    5  A    between atoms: C16_19  and  O3_21 
ROOT
HETATM    1  C11 UNL     1      24.008   1.487  52.142  1.00  0.00     0.033 C 
HETATM    2  C12 UNL     1      22.792   1.043  51.750  1.00  0.00    -0.051 C 
HETATM    3  C13 UNL     1      22.243   1.637  50.507  1.00  0.00     0.046 C 
HETATM    4  C14 UNL     1      21.878   0.022  52.343  1.00  0.00     0.043 C 
HETATM    5  C18 UNL     1      22.723  -1.121  52.918  1.00  0.00     0.179 C 
HETATM    6  O4  UNL     1      23.298  -0.766  54.131  1.00  0.00    -0.371 OA
HETATM    7  C19 UNL     1      24.623  -0.353  53.907  1.00  0.00     0.290 C 
HETATM    8  N2  UNL     1      24.565   0.969  53.371  1.00  0.00    -0.368 N 
HETATM    9  H24 UNL     1      24.993   1.744  53.971  1.00  0.00     0.161 HD
ENDROOT
BRANCH   1  10
HETATM   10  C10 UNL     1      24.701   2.478  51.370  1.00  0.00     0.047 C 
HETATM   11  C9  UNL     1      24.803   3.715  50.961  1.00  0.00     0.046 A 
HETATM   12  C5  UNL     1      25.750   4.401  50.079  1.00  0.00     0.007 A 
HETATM   13  C8  UNL     1      23.860   4.731  51.444  1.00  0.00     0.257 A 
HETATM   14  C4  UNL     1      26.818   3.895  49.384  1.00  0.00     0.017 A 
HETATM   15  C6  UNL     1      25.357   5.711  50.075  1.00  0.00     0.049 A 
HETATM   16  C3  UNL     1      27.595   4.716  48.601  1.00  0.00     0.038 A 
HETATM   17  C2  UNL     1      27.251   6.047  48.554  1.00  0.00     0.070 A 
HETATM   18  C7  UNL     1      26.169   6.500  49.273  1.00  0.00     0.067 A 
HETATM   19  N1  UNL     1      24.222   6.005  50.871  1.00  0.00    -0.322 N 
HETATM   20  H7  UNL     1      23.846   6.989  50.928  1.00  0.00     0.169 HD
HETATM   21  O2  UNL     1      22.848   4.855  52.189  1.00  0.00    -0.267 OA
BRANCH  17  22
HETATM   22  O1  UNL     1      28.034   6.875  47.765  1.00  0.00    -0.356 OA
HETATM   23  C1  UNL     1      28.333   8.208  48.058  1.00  0.00     0.210 C 
ENDBRANCH  17  22
ENDBRANCH   1  10
BRANCH   4  24
HETATM   24  C15 UNL     1      20.976   0.562  53.400  1.00  0.00     0.042 C 
BRANCH  24  25
HETATM   25  C16 UNL     1      19.567  -0.002  53.300  1.00  0.00     0.114 C 
HETATM   26  C17 UNL     1      19.248  -0.073  51.811  1.00  0.00     0.039 C 
BRANCH  25  27
HETATM   27  O3  UNL     1      19.465  -1.266  53.864  1.00  0.00    -0.396 OA
HETATM   28  H19 UNL     1      18.739  -1.769  53.417  1.00  0.00     0.210 HD
ENDBRANCH  25  27
ENDBRANCH  24  25
ENDBRANCH   4  24
TORSDOF 5
ENDMDL
MODEL 6
REMARK VINA RESULT:      -7.9      2.503      3.471
REMARK  5 active torsions:
REMARK  status: ('A' for Active; 'I' for Inactive)
REMARK    1  A    between atoms: O1_2  and  C2_3 
REMARK    2  A    between atoms: C10_13  and  C11_14 
REMARK    3  A    between atoms: C14_17  and  C15_18 
REMARK    4  A    between atoms: C15_18  and  C16_19 
REMARK    5  A    between atoms: C16_19  and  O3_21 
ROOT
HETATM    1  C11 UNL     1      23.871   1.551  51.928  1.00  0.00     0.033 C 
HETATM    2  C12 UNL     1      24.924   0.910  52.486  1.00  0.00    -0.051 C 
HETATM    3  C13 UNL     1      24.619  -0.346  53.213  1.00  0.00     0.046 C 
HETATM    4  C14 UNL     1      26.382   1.231  52.492  1.00  0.00     0.043 C 
HETATM    5  C18 UNL     1      26.760   1.831  51.132  1.00  0.00     0.179 C 
HETATM    6  O4  UNL     1      26.353   3.155  51.032  1.00  0.00    -0.371 OA
HETATM    7  C19 UNL     1      25.134   3.209  50.334  1.00  0.00     0.290 C 
HETATM    8  N2  UNL     1      24.112   2.802  51.246  1.00  0.00    -0.368 N 
HETATM    9  H24 UNL     1      23.381   3.541  51.500  1.00  0.00     0.161 HD
ENDROOT
BRANCH   1  10
HETATM   10  C10 UNL     1      22.547   1.013  52.051  1.00  0.00     0.047 C 
HETATM   11  C9  UNL     1      21.339   0.877  51.569  1.00  0.00     0.046 A 
HETATM   12  C5  UNL     1      20.145   0.177  52.050  1.00  0.00     0.007 A 
HETATM   13  C8  UNL     1      20.994   1.465  50.270  1.00  0.00     0.257 A 
HETATM   14  C4  UNL     1      19.956  -0.530  53.209  1.00  0.00     0.017 A 
HETATM   15  C6  UNL     1      19.201   0.366  51.079  1.00  0.00     0.049 A 
HETATM   16  C3  UNL     1      18.743  -1.121  53.478  1.00  0.00     0.038 A 
HETATM   17  C2  UNL     1      17.750  -0.967  52.538  1.00  0.00     0.070 A 
HETATM   18  C7  UNL     1      17.996  -0.247  51.392  1.00  0.00     0.067 A 
HETATM   19  N1  UNL     1      19.623   1.133  49.964  1.00  0.00    -0.322 N 
HETATM   20  H7  UNL     1      18.962   1.330  49.167  1.00  0.00     0.169 HD
HETATM   21  O2  UNL     1      21.497   2.157  49.342  1.00  0.00    -0.267 OA
BRANCH  17  22
HETATM   22  O1  UNL     1      16.527  -1.562  52.808  1.00  0.00    -0.356 OA
HETATM   23  C1  UNL     1      15.299  -1.127  52.304  1.00  0.00     0.210 C 
ENDBRANCH  17  22
ENDBRANCH   1  10
BRANCH   4  24
HETATM   24  C15 UNL     1      26.790   2.160  53.583  1.00  0.00     0.042 C 
BRANCH  24  25
HETATM   25  C16 UNL     1      28.294   2.165  53.805  1.00  0.00     0.114 C 
HETATM   26  C17 UNL     1      28.758   0.731  53.570  1.00  0.00     0.039 C 
BRANCH  25  27
HETATM   27  O3  UNL     1      28.953   3.021  52.934  1.00  0.00    -0.396 OA
HETATM   28  H19 UNL     1      28.395   3.824  52.775  1.00  0.00     0.210 HD
ENDBRANCH  25  27
ENDBRANCH  24  25
ENDBRANCH   4  24
TORSDOF 5
ENDMDL
MODEL 7
REMARK VINA RESULT:      -7.9      4.245      7.900
REMARK  5 active torsions:
REMARK  status: ('A' for Active; 'I' for Inactive)
REMARK    1  A    between atoms: O1_2  and  C2_3 
REMARK    2  A    between atoms: C10_13  and  C11_14 
REMARK    3  A    between atoms: C14_17  and  C15_18 
REMARK    4  A    between atoms: C15_18  and  C16_19 
REMARK    5  A    between atoms: C16_19  and  O3_21 
ROOT
HETATM    1  C11 UNL     1      22.617   1.832  51.268  1.00  0.00     0.033 C 
HETATM    2  C12 UNL     1      22.781   1.329  52.513  1.00  0.00    -0.051 C 
HETATM    3  C13 UNL     1      24.039   1.693  53.209  1.00  0.00     0.046 C 
HETATM    4  C14 UNL     1      21.899   0.463  53.350  1.00  0.00     0.043 C 
HETATM    5  C18 UNL     1      20.440   0.866  53.108  1.00  0.00     0.179 C 
HETATM    6  O4  UNL     1      19.971   0.369  51.898  1.00  0.00    -0.371 OA
HETATM    7  C19 UNL     1      20.056   1.378  50.924  1.00  0.00     0.290 C 
HETATM    8  N2  UNL     1      21.426   1.468  50.532  1.00  0.00    -0.368 N 
HETATM    9  H24 UNL     1      21.648   1.216  49.517  1.00  0.00     0.161 HD
ENDROOT
BRANCH   1  10
HETATM   10  C10 UNL     1      23.624   2.671  50.686  1.00  0.00     0.047 C 
HETATM   11  C9  UNL     1      23.973   3.828  50.187  1.00  0.00     0.046 A 
HETATM   12  C5  UNL     1      25.231   4.341  49.640  1.00  0.00     0.007 A 
HETATM   13  C8  UNL     1      23.009   4.933  50.146  1.00  0.00     0.257 A 
HETATM   14  C4  UNL     1      26.431   3.702  49.465  1.00  0.00     0.017 A 
HETATM   15  C6  UNL     1      24.979   5.647  49.318  1.00  0.00     0.049 A 
HETATM   16  C3  UNL     1      27.507   4.369  48.927  1.00  0.00     0.038 A 
HETATM   17  C2  UNL     1      27.317   5.687  48.582  1.00  0.00     0.070 A 
HETATM   18  C7  UNL     1      26.091   6.278  48.780  1.00  0.00     0.067 A 
HETATM   19  N1  UNL     1      23.661   6.093  49.588  1.00  0.00    -0.322 N 
HETATM   20  H7  UNL     1      23.376   7.085  49.372  1.00  0.00     0.169 HD
HETATM   21  O2  UNL     1      21.810   5.201  50.438  1.00  0.00    -0.267 OA
BRANCH  17  22
HETATM   22  O1  UNL     1      28.401   6.361  48.040  1.00  0.00    -0.356 OA
HETATM   23  C1  UNL     1      29.738   5.993  48.215  1.00  0.00     0.210 C 
ENDBRANCH  17  22
ENDBRANCH   1  10
BRANCH   4  24
HETATM   24  C15 UNL     1      22.067  -0.996  53.094  1.00  0.00     0.042 C 
BRANCH  24  25
HETATM   25  C16 UNL     1      22.004  -1.818  54.372  1.00  0.00     0.114 C 
HETATM   26  C17 UNL     1      23.028  -1.202  55.319  1.00  0.00     0.039 C 
BRANCH  25  27
HETATM   27  O3  UNL     1      20.745  -1.787  54.956  1.00  0.00    -0.396 OA
HETATM   28  H19 UNL     1      20.164  -2.463  54.523  1.00  0.00     0.210 HD
ENDBRANCH  25  27
ENDBRANCH  24  25
ENDBRANCH   4  24
TORSDOF 5
ENDMDL
MODEL 8
REMARK VINA RESULT:      -7.7      3.901      7.833
REMARK  5 active torsions:
REMARK  status: ('A' for Active; 'I' for Inactive)
REMARK    1  A    between atoms: O1_2  and  C2_3 
REMARK    2  A    between atoms: C10_13  and  C11_14 
REMARK    3  A    between atoms: C14_17  and  C15_18 
REMARK    4  A    between atoms: C15_18  and  C16_19 
REMARK    5  A    between atoms: C16_19  and  O3_21 
ROOT
HETATM    1  C11 UNL     1      22.590   3.461  51.362  1.00  0.00     0.033 C 
HETATM    2  C12 UNL     1      22.840   4.352  50.375  1.00  0.00    -0.051 C 
HETATM    3  C13 UNL     1      24.194   4.303  49.773  1.00  0.00     0.046 C 
HETATM    4  C14 UNL     1      21.976   5.395  49.747  1.00  0.00     0.043 C 
HETATM    5  C18 UNL     1      20.543   4.857  49.653  1.00  0.00     0.179 C 
HETATM    6  O4  UNL     1      19.903   4.904  50.884  1.00  0.00    -0.371 OA
HETATM    7  C19 UNL     1      19.975   3.638  51.489  1.00  0.00     0.290 C 
HETATM    8  N2  UNL     1      21.298   3.499  52.010  1.00  0.00    -0.368 N 
HETATM    9  H24 UNL     1      21.384   3.417  53.073  1.00  0.00     0.161 HD
ENDROOT
BRANCH   1  10
HETATM   10  C10 UNL     1      23.603   2.533  51.775  1.00  0.00     0.047 C 
HETATM   11  C9  UNL     1      23.936   1.445  52.418  1.00  0.00     0.046 A 
HETATM   12  C5  UNL     1      25.214   0.761  52.629  1.00  0.00     0.007 A 
HETATM   13  C8  UNL     1      22.905   0.631  53.072  1.00  0.00     0.257 A 
HETATM   14  C4  UNL     1      26.472   1.116  52.215  1.00  0.00     0.017 A 
HETATM   15  C6  UNL     1      24.910  -0.359  53.353  1.00  0.00     0.049 A 
HETATM   16  C3  UNL     1      27.557   0.327  52.519  1.00  0.00     0.038 A 
HETATM   17  C2  UNL     1      27.316  -0.815  53.247  1.00  0.00     0.070 A 
HETATM   18  C7  UNL     1      26.033  -1.123  53.635  1.00  0.00     0.067 A 
HETATM   19  N1  UNL     1      23.538  -0.521  53.668  1.00  0.00    -0.322 N 
HETATM   20  H7  UNL     1      23.210  -1.356  54.224  1.00  0.00     0.169 HD
HETATM   21  O2  UNL     1      21.660   0.607  53.281  1.00  0.00    -0.267 OA
BRANCH  17  22
HETATM   22  O1  UNL     1      28.409  -1.611  53.554  1.00  0.00    -0.356 OA
HETATM   23  C1  UNL     1      29.739  -1.180  53.543  1.00  0.00     0.210 C 
ENDBRANCH  17  22
ENDBRANCH   1  10
BRANCH   4  24
HETATM   24  C15 UNL     1      21.978   6.696  50.474  1.00  0.00     0.042 C 
BRANCH  24  25
HETATM   25  C16 UNL     1      23.243   7.500  50.217  1.00  0.00     0.114 C 
HETATM   26  C17 UNL     1      22.809   8.720  49.412  1.00  0.00     0.039 C 
BRANCH  25  27
HETATM   27  O3  UNL     1      23.857   7.906  51.393  1.00  0.00    -0.396 OA
HETATM   28  H19 UNL     1      23.457   8.760  51.696  1.00  0.00     0.210 HD
ENDBRANCH  25  27
ENDBRANCH  24  25
ENDBRANCH   4  24
TORSDOF 5
ENDMDL
MODEL 9
REMARK VINA RESULT:      -7.5      5.576      8.139
REMARK  5 active torsions:
REMARK  status: ('A' for Active; 'I' for Inactive)
REMARK    1  A    between atoms: O1_2  and  C2_3 
REMARK    2  A    between atoms: C10_13  and  C11_14 
REMARK    3  A    between atoms: C14_17  and  C15_18 
REMARK    4  A    between atoms: C15_18  and  C16_19 
REMARK    5  A    between atoms: C16_19  and  O3_21 
ROOT
HETATM    1  C11 UNL     1      24.456   6.035  50.346  1.00  0.00     0.033 C 
HETATM    2  C12 UNL     1      25.308   6.639  49.485  1.00  0.00    -0.051 C 
HETATM    3  C13 UNL     1      26.523   5.873  49.117  1.00  0.00     0.046 C 
HETATM    4  C14 UNL     1      25.243   7.964  48.801  1.00  0.00     0.043 C 
HETATM    5  C18 UNL     1      23.783   8.254  48.428  1.00  0.00     0.179 C 
HETATM    6  O4  UNL     1      23.049   8.660  49.533  1.00  0.00    -0.371 OA
HETATM    7  C19 UNL     1      22.342   7.559  50.045  1.00  0.00     0.290 C 
HETATM    8  N2  UNL     1      23.279   6.760  50.769  1.00  0.00    -0.368 N 
HETATM    9  H24 UNL     1      23.115   6.671  51.822  1.00  0.00     0.161 HD
ENDROOT
BRANCH   1  10
HETATM   10  C10 UNL     1      24.746   4.724  50.852  1.00  0.00     0.047 C 
HETATM   11  C9  UNL     1      24.352   3.653  51.489  1.00  0.00     0.046 A 
HETATM   12  C5  UNL     1      25.020   2.398  51.841  1.00  0.00     0.007 A 
HETATM   13  C8  UNL     1      22.968   3.547  51.966  1.00  0.00     0.257 A 
HETATM   14  C4  UNL     1      26.314   2.005  51.614  1.00  0.00     0.017 A 
HETATM   15  C6  UNL     1      24.067   1.645  52.471  1.00  0.00     0.049 A 
HETATM   16  C3  UNL     1      26.752   0.769  52.028  1.00  0.00     0.038 A 
HETATM   17  C2  UNL     1      25.839  -0.037  52.669  1.00  0.00     0.070 A 
HETATM   18  C7  UNL     1      24.554   0.409  52.870  1.00  0.00     0.067 A 
HETATM   19  N1  UNL     1      22.795   2.259  52.593  1.00  0.00    -0.322 N 
HETATM   20  H7  UNL     1      21.999   1.753  53.065  1.00  0.00     0.169 HD
HETATM   21  O2  UNL     1      21.891   4.204  52.005  1.00  0.00    -0.267 OA
BRANCH  17  22
HETATM   22  O1  UNL     1      26.281  -1.283  53.087  1.00  0.00    -0.356 OA
HETATM   23  C1  UNL     1      26.904  -2.226  52.265  1.00  0.00     0.210 C 
ENDBRANCH  17  22
ENDBRANCH   1  10
BRANCH   4  24
HETATM   24  C15 UNL     1      25.787   9.089  49.613  1.00  0.00     0.042 C 
BRANCH  24  25
HETATM   25  C16 UNL     1      27.232   8.858  50.025  1.00  0.00     0.114 C 
HETATM   26  C17 UNL     1      28.086   9.427  48.897  1.00  0.00     0.039 C 
BRANCH  25  27
HETATM   27  O3  UNL     1      27.548   9.491  51.219  1.00  0.00    -0.396 OA
HETATM   28  H19 UNL     1      27.556   8.826  51.953  1.00  0.00     0.210 HD
ENDBRANCH  25  27
ENDBRANCH  24  25
ENDBRANCH   4  24
TORSDOF 5
ENDMDL
