MODEL 1
REMARK VINA RESULT:      -8.4      0.000      0.000
REMARK  8 active torsions:
REMARK  status: ('A' for Active; 'I' for Inactive)
REMARK    1  A    between atoms: N1_2  and  C2_3 
REMARK    2  A    between atoms: C2_3  and  C3_4 
REMARK    3  A    between atoms: C3_4  and  C4_5 
REMARK    4  A    between atoms: C7_9  and  C8_10 
REMARK    5  A    between atoms: C11_13  and  N3_14 
REMARK       I    between atoms: N3_14  and  C12_15 
REMARK    6  A    between atoms: C12_15  and  C13_17 
REMARK    7  A    between atoms: C16_20  and  C17_21 
REMARK    8  A    between atoms: C17_21  and  N4_22 
ROOT
HETATM    1  N3  UNL     1      23.832   3.738  49.236  1.00  0.00    -0.348 N 
HETATM    2  C12 UNL     1      24.294   5.095  49.264  1.00  0.00     0.252 C 
HETATM    3  O1  UNL     1      23.456   5.973  49.583  1.00  0.00    -0.268 OA
HETATM    4  H13 UNL     1      24.447   2.937  48.981  1.00  0.00     0.163 HD
ENDROOT
BRANCH   1   5
HETATM    5  C11 UNL     1      22.496   3.215  49.522  1.00  0.00     0.122 A 
HETATM    6  C8  UNL     1      22.332   2.305  50.654  1.00  0.00     0.106 A 
HETATM    7  C9  UNL     1      21.919   1.301  49.657  1.00  0.00    -0.014 A 
HETATM    8  C10 UNL     1      22.069   2.129  48.673  1.00  0.00    -0.004 A 
BRANCH   6   9
HETATM    9  C7  UNL     1      23.535   1.807  51.372  1.00  0.00     0.136 A 
HETATM   10  N2  UNL     1      23.214   0.812  52.211  1.00  0.00    -0.245 NA
HETATM   11  C6  UNL     1      24.101   0.168  53.014  1.00  0.00     0.120 A 
HETATM   12  C5  UNL     1      25.407   0.549  52.975  1.00  0.00     0.047 A 
HETATM   13  C4  UNL     1      25.738   1.570  52.115  1.00  0.00     0.042 A 
HETATM   14  N6  UNL     1      24.804   2.155  51.354  1.00  0.00    -0.237 NA
BRANCH  13  15
HETATM   15  C3  UNL     1      27.145   2.031  52.045  1.00  0.00     0.105 C 
BRANCH  15  16
HETATM   16  C2  UNL     1      27.722   1.834  53.426  1.00  0.00     0.251 C 
BRANCH  16  17
HETATM   17  N1  UNL     1      28.245   1.595  54.551  1.00  0.00    -0.428 NA
HETATM   18  C1  UNL     1      28.619   0.218  54.851  1.00  0.00     0.131 C 
ENDBRANCH  16  17
ENDBRANCH  15  16
ENDBRANCH  13  15
ENDBRANCH   6   9
ENDBRANCH   1   5
BRANCH   2  19
HETATM   19  C13 UNL     1      25.685   5.362  48.926  1.00  0.00     0.032 A 
HETATM   20  C14 UNL     1      26.741   4.475  49.017  1.00  0.00     0.017 A 
HETATM   21  C15 UNL     1      28.022   4.825  48.670  1.00  0.00     0.010 A 
HETATM   22  C16 UNL     1      28.340   6.092  48.203  1.00  0.00    -0.030 A 
HETATM   23  C23 UNL     1      27.308   6.969  48.112  1.00  0.00     0.010 A 
HETATM   24  C24 UNL     1      26.016   6.621  48.461  1.00  0.00     0.017 A 
BRANCH  22  25
HETATM   25  C17 UNL     1      29.776   6.288  47.879  1.00  0.00     0.311 C 
BRANCH  25  26
HETATM   26  N4  UNL     1      30.521   6.806  48.981  1.00  0.00     0.096 N 
HETATM   27  C18 UNL     1      31.635   5.992  49.348  1.00  0.00     0.303 C 
HETATM   28  C19 UNL     1      32.801   6.108  48.400  1.00  0.00     0.302 C 
HETATM   29  N5  UNL     1      33.170   7.467  48.118  1.00  0.00     0.087 N 
HETATM   30  C20 UNL     1      34.012   7.500  46.926  1.00  0.00     0.310 C 
HETATM   31  C21 UNL     1      32.053   8.354  47.887  1.00  0.00     0.302 C 
HETATM   32  C22 UNL     1      30.917   8.171  48.863  1.00  0.00     0.303 C 
ENDBRANCH  25  26
ENDBRANCH  22  25
ENDBRANCH   2  19
TORSDOF 8
ENDMDL
MODEL 2
REMARK VINA RESULT:      -7.8      1.607      2.218
REMARK  8 active torsions:
REMARK  status: ('A' for Active; 'I' for Inactive)
REMARK    1  A    between atoms: N1_2  and  C2_3 
REMARK    2  A    between atoms: C2_3  and  C3_4 
REMARK    3  A    between atoms: C3_4  and  C4_5 
REMARK    4  A    between atoms: C7_9  and  C8_10 
REMARK    5  A    between atoms: C11_13  and  N3_14 
REMARK       I    between atoms: N3_14  and  C12_15 
REMARK    6  A    between atoms: C12_15  and  C13_17 
REMARK    7  A    between atoms: C16_20  and  C17_21 
REMARK    8  A    between atoms: C17_21  and  N4_22 
ROOT
HETATM    1  N3  UNL     1      23.710   3.357  50.840  1.00  0.00    -0.348 N 
HETATM    2  C12 UNL     1      23.936   4.736  50.516  1.00  0.00     0.252 C 
HETATM    3  O1  UNL     1      23.034   5.548  50.834  1.00  0.00    -0.268 OA
HETATM    4  H13 UNL     1      24.395   2.604  50.616  1.00  0.00     0.163 HD
ENDROOT
BRANCH   1   5
HETATM    5  C11 UNL     1      22.555   2.744  51.494  1.00  0.00     0.122 A 
HETATM    6  C8  UNL     1      22.792   1.750  52.539  1.00  0.00     0.106 A 
HETATM    7  C9  UNL     1      22.109   0.796  51.648  1.00  0.00    -0.014 A 
HETATM    8  C10 UNL     1      21.909   1.697  50.739  1.00  0.00    -0.004 A 
BRANCH   6   9
HETATM    9  C7  UNL     1      24.177   1.270  52.792  1.00  0.00     0.136 A 
HETATM   10  N2  UNL     1      24.916   2.227  53.368  1.00  0.00    -0.245 NA
HETATM   11  C6  UNL     1      26.226   2.087  53.705  1.00  0.00     0.120 A 
HETATM   12  C5  UNL     1      26.839   0.901  53.444  1.00  0.00     0.047 A 
HETATM   13  C4  UNL     1      26.081  -0.083  52.852  1.00  0.00     0.042 A 
HETATM   14  N6  UNL     1      24.794   0.133  52.551  1.00  0.00    -0.237 NA
BRANCH  13  15
HETATM   15  C3  UNL     1      26.707  -1.388  52.534  1.00  0.00     0.105 C 
BRANCH  15  16
HETATM   16  C2  UNL     1      28.083  -1.358  53.155  1.00  0.00     0.251 C 
BRANCH  16  17
HETATM   17  N1  UNL     1      29.207  -1.397  53.730  1.00  0.00    -0.428 NA
HETATM   18  C1  UNL     1      30.081  -0.238  53.598  1.00  0.00     0.131 C 
ENDBRANCH  16  17
ENDBRANCH  15  16
ENDBRANCH  13  15
ENDBRANCH   6   9
ENDBRANCH   1   5
BRANCH   2  19
HETATM   19  C13 UNL     1      25.179   5.097  49.848  1.00  0.00     0.032 A 
HETATM   20  C14 UNL     1      25.534   6.350  49.386  1.00  0.00     0.017 A 
HETATM   21  C15 UNL     1      26.736   6.589  48.769  1.00  0.00     0.010 A 
HETATM   22  C16 UNL     1      27.676   5.587  48.570  1.00  0.00    -0.030 A 
HETATM   23  C23 UNL     1      27.333   4.353  49.021  1.00  0.00     0.010 A 
HETATM   24  C24 UNL     1      26.122   4.108  49.642  1.00  0.00     0.017 A 
BRANCH  22  25
HETATM   25  C17 UNL     1      28.916   6.031  47.886  1.00  0.00     0.311 C 
BRANCH  25  26
HETATM   26  N4  UNL     1      29.055   7.452  47.872  1.00  0.00     0.096 N 
HETATM   27  C18 UNL     1      30.072   7.933  48.751  1.00  0.00     0.303 C 
HETATM   28  C19 UNL     1      31.470   7.709  48.231  1.00  0.00     0.302 C 
HETATM   29  N5  UNL     1      31.648   8.148  46.875  1.00  0.00     0.087 N 
HETATM   30  C20 UNL     1      32.865   7.552  46.332  1.00  0.00     0.310 C 
HETATM   31  C21 UNL     1      30.561   7.804  45.988  1.00  0.00     0.302 C 
HETATM   32  C22 UNL     1      29.193   8.040  46.580  1.00  0.00     0.303 C 
ENDBRANCH  25  26
ENDBRANCH  22  25
ENDBRANCH   2  19
TORSDOF 8
ENDMDL
MODEL 3
REMARK VINA RESULT:      -7.8      4.156      6.929
REMARK  8 active torsions:
REMARK  status: ('A' for Active; 'I' for Inactive)
REMARK    1  A    between atoms: N1_2  and  C2_3 
REMARK    2  A    between atoms: C2_3  and  C3_4 
REMARK    3  A    between atoms: C3_4  and  C4_5 
REMARK    4  A    between atoms: C7_9  and  C8_10 
REMARK    5  A    between atoms: C11_13  and  N3_14 
REMARK       I    between atoms: N3_14  and  C12_15 
REMARK    6  A    between atoms: C12_15  and  C13_17 
REMARK    7  A    between atoms: C16_20  and  C17_21 
REMARK    8  A    between atoms: C17_21  and  N4_22 
ROOT
HETATM    1  N3  UNL     1      25.964   1.154  52.313  1.00  0.00    -0.348 N 
HETATM    2  C12 UNL     1      26.628   2.292  51.747  1.00  0.00     0.252 C 
HETATM    3  O1  UNL     1      27.833   2.457  52.058  1.00  0.00    -0.268 OA
HETATM    4  H13 UNL     1      24.964   0.929  52.121  1.00  0.00     0.163 HD
ENDROOT
BRANCH   1   5
HETATM    5  C11 UNL     1      26.492   0.140  53.225  1.00  0.00     0.122 A 
HETATM    6  C8  UNL     1      25.554  -0.788  53.855  1.00  0.00     0.106 A 
HETATM    7  C9  UNL     1      25.982  -0.195  55.134  1.00  0.00    -0.014 A 
HETATM    8  C10 UNL     1      26.808   0.614  54.551  1.00  0.00    -0.004 A 
BRANCH   6   9
HETATM    9  C7  UNL     1      24.091  -0.575  53.688  1.00  0.00     0.136 A 
HETATM   10  N2  UNL     1      23.422  -0.989  54.772  1.00  0.00    -0.245 NA
HETATM   11  C6  UNL     1      22.070  -0.936  54.906  1.00  0.00     0.120 A 
HETATM   12  C5  UNL     1      21.336  -0.431  53.879  1.00  0.00     0.047 A 
HETATM   13  C4  UNL     1      22.022  -0.005  52.765  1.00  0.00     0.042 A 
HETATM   14  N6  UNL     1      23.357  -0.091  52.710  1.00  0.00    -0.237 NA
BRANCH  13  15
HETATM   15  C3  UNL     1      21.266   0.540  51.612  1.00  0.00     0.105 C 
BRANCH  15  16
HETATM   16  C2  UNL     1      20.609   1.807  52.101  1.00  0.00     0.251 C 
BRANCH  16  17
HETATM   17  N1  UNL     1      20.039   2.825  52.586  1.00  0.00    -0.428 NA
HETATM   18  C1  UNL     1      19.284   3.681  51.679  1.00  0.00     0.131 C 
ENDBRANCH  16  17
ENDBRANCH  15  16
ENDBRANCH  13  15
ENDBRANCH   6   9
ENDBRANCH   1   5
BRANCH   2  19
HETATM   19  C13 UNL     1      25.872   3.168  50.863  1.00  0.00     0.032 A 
HETATM   20  C14 UNL     1      26.390   4.018  49.904  1.00  0.00     0.017 A 
HETATM   21  C15 UNL     1      25.589   4.806  49.116  1.00  0.00     0.010 A 
HETATM   22  C16 UNL     1      24.206   4.798  49.228  1.00  0.00    -0.030 A 
HETATM   23  C23 UNL     1      23.690   3.965  50.168  1.00  0.00     0.010 A 
HETATM   24  C24 UNL     1      24.494   3.171  50.965  1.00  0.00     0.017 A 
BRANCH  22  25
HETATM   25  C17 UNL     1      23.505   5.714  48.294  1.00  0.00     0.311 C 
BRANCH  25  26
HETATM   26  N4  UNL     1      23.762   7.089  48.580  1.00  0.00     0.096 N 
HETATM   27  C18 UNL     1      23.227   7.984  47.604  1.00  0.00     0.303 C 
HETATM   28  C19 UNL     1      21.733   8.158  47.704  1.00  0.00     0.302 C 
HETATM   29  N5  UNL     1      21.284   8.450  49.037  1.00  0.00     0.087 N 
HETATM   30  C20 UNL     1      19.846   8.214  49.123  1.00  0.00     0.310 C 
HETATM   31  C21 UNL     1      21.918   7.660  50.067  1.00  0.00     0.302 C 
HETATM   32  C22 UNL     1      23.410   7.516  49.894  1.00  0.00     0.303 C 
ENDBRANCH  25  26
ENDBRANCH  22  25
ENDBRANCH   2  19
TORSDOF 8
ENDMDL
MODEL 4
REMARK VINA RESULT:      -7.5      1.985      2.439
REMARK  8 active torsions:
REMARK  status: ('A' for Active; 'I' for Inactive)
REMARK    1  A    between atoms: N1_2  and  C2_3 
REMARK    2  A    between atoms: C2_3  and  C3_4 
REMARK    3  A    between atoms: C3_4  and  C4_5 
REMARK    4  A    between atoms: C7_9  and  C8_10 
REMARK    5  A    between atoms: C11_13  and  N3_14 
REMARK       I    between atoms: N3_14  and  C12_15 
REMARK    6  A    between atoms: C12_15  and  C13_17 
REMARK    7  A    between atoms: C16_20  and  C17_21 
REMARK    8  A    between atoms: C17_21  and  N4_22 
ROOT
HETATM    1  N3  UNL     1      22.510   3.089  50.736  1.00  0.00    -0.348 N 
HETATM    2  C12 UNL     1      22.764   4.483  50.956  1.00  0.00     0.252 C 
HETATM    3  O1  UNL     1      22.063   5.056  51.825  1.00  0.00    -0.268 OA
HETATM    4  H13 UNL     1      23.034   2.523  50.035  1.00  0.00     0.163 HD
ENDROOT
BRANCH   1   5
HETATM    5  C11 UNL     1      21.528   2.219  51.382  1.00  0.00     0.122 A 
HETATM    6  C8  UNL     1      22.007   1.194  52.307  1.00  0.00     0.106 A 
HETATM    7  C9  UNL     1      21.441   0.218  51.360  1.00  0.00    -0.014 A 
HETATM    8  C10 UNL     1      21.025   1.146  50.559  1.00  0.00    -0.004 A 
BRANCH   6   9
HETATM    9  C7  UNL     1      23.468   0.952  52.438  1.00  0.00     0.136 A 
HETATM   10  N2  UNL     1      23.706  -0.161  53.145  1.00  0.00    -0.245 NA
HETATM   11  C6  UNL     1      24.947  -0.630  53.443  1.00  0.00     0.120 A 
HETATM   12  C5  UNL     1      26.028   0.066  52.999  1.00  0.00     0.047 A 
HETATM   13  C4  UNL     1      25.785   1.210  52.273  1.00  0.00     0.042 A 
HETATM   14  N6  UNL     1      24.531   1.606  52.021  1.00  0.00    -0.237 NA
BRANCH  13  15
HETATM   15  C3  UNL     1      26.929   2.012  51.780  1.00  0.00     0.105 C 
BRANCH  15  16
HETATM   16  C2  UNL     1      27.824   2.246  52.972  1.00  0.00     0.251 C 
BRANCH  16  17
HETATM   17  N1  UNL     1      28.546   2.527  53.970  1.00  0.00    -0.428 NA
HETATM   18  C1  UNL     1      29.278   1.441  54.610  1.00  0.00     0.131 C 
ENDBRANCH  16  17
ENDBRANCH  15  16
ENDBRANCH  13  15
ENDBRANCH   6   9
ENDBRANCH   1   5
BRANCH   2  19
HETATM   19  C13 UNL     1      23.803   5.132  50.169  1.00  0.00     0.032 A 
HETATM   20  C14 UNL     1      25.121   4.731  50.051  1.00  0.00     0.017 A 
HETATM   21  C15 UNL     1      26.026   5.414  49.279  1.00  0.00     0.010 A 
HETATM   22  C16 UNL     1      25.678   6.551  48.564  1.00  0.00    -0.030 A 
HETATM   23  C23 UNL     1      24.385   6.951  48.676  1.00  0.00     0.010 A 
HETATM   24  C24 UNL     1      23.470   6.266  49.454  1.00  0.00     0.017 A 
BRANCH  22  25
HETATM   25  C17 UNL     1      26.788   7.156  47.786  1.00  0.00     0.311 C 
BRANCH  25  26
HETATM   26  N4  UNL     1      27.988   7.278  48.549  1.00  0.00     0.096 N 
HETATM   27  C18 UNL     1      29.144   6.778  47.876  1.00  0.00     0.303 C 
HETATM   28  C19 UNL     1      29.647   7.692  46.788  1.00  0.00     0.302 C 
HETATM   29  N5  UNL     1      29.793   9.056  47.214  1.00  0.00     0.087 N 
HETATM   30  C20 UNL     1      29.893   9.919  46.041  1.00  0.00     0.310 C 
HETATM   31  C21 UNL     1      28.704   9.548  48.025  1.00  0.00     0.302 C 
HETATM   32  C22 UNL     1      28.244   8.576  49.083  1.00  0.00     0.303 C 
ENDBRANCH  25  26
ENDBRANCH  22  25
ENDBRANCH   2  19
TORSDOF 8
ENDMDL
MODEL 5
REMARK VINA RESULT:      -7.3      2.769      4.738
REMARK  8 active torsions:
REMARK  status: ('A' for Active; 'I' for Inactive)
REMARK    1  A    between atoms: N1_2  and  C2_3 
REMARK    2  A    between atoms: C2_3  and  C3_4 
REMARK    3  A    between atoms: C3_4  and  C4_5 
REMARK    4  A    between atoms: C7_9  and  C8_10 
REMARK    5  A    between atoms: C11_13  and  N3_14 
REMARK       I    between atoms: N3_14  and  C12_15 
REMARK    6  A    between atoms: C12_15  and  C13_17 
REMARK    7  A    between atoms: C16_20  and  C17_21 
REMARK    8  A    between atoms: C17_21  and  N4_22 
ROOT
HETATM    1  N3  UNL     1      25.516   3.932  50.811  1.00  0.00    -0.348 N 
HETATM    2  C12 UNL     1      26.479   3.811  49.756  1.00  0.00     0.252 C 
HETATM    3  O1  UNL     1      26.914   2.658  49.515  1.00  0.00    -0.268 OA
HETATM    4  H13 UNL     1      25.096   4.844  51.091  1.00  0.00     0.163 HD
ENDROOT
BRANCH   1   5
HETATM    5  C11 UNL     1      24.958   2.890  51.672  1.00  0.00     0.122 A 
HETATM    6  C8  UNL     1      23.787   2.151  51.204  1.00  0.00     0.106 A 
HETATM    7  C9  UNL     1      23.085   2.726  52.364  1.00  0.00    -0.014 A 
HETATM    8  C10 UNL     1      24.138   3.368  52.759  1.00  0.00    -0.004 A 
BRANCH   6   9
HETATM    9  C7  UNL     1      23.099   2.584  49.958  1.00  0.00     0.136 A 
HETATM   10  N2  UNL     1      22.345   1.594  49.461  1.00  0.00    -0.245 NA
HETATM   11  C6  UNL     1      21.610   1.688  48.321  1.00  0.00     0.120 A 
HETATM   12  C5  UNL     1      21.633   2.859  47.629  1.00  0.00     0.047 A 
HETATM   13  C4  UNL     1      22.408   3.875  48.138  1.00  0.00     0.042 A 
HETATM   14  N6  UNL     1      23.103   3.705  49.269  1.00  0.00    -0.237 NA
BRANCH  13  15
HETATM   15  C3  UNL     1      22.477   5.166  47.413  1.00  0.00     0.105 C 
BRANCH  15  16
HETATM   16  C2  UNL     1      22.411   6.245  48.467  1.00  0.00     0.251 C 
BRANCH  16  17
HETATM   17  N1  UNL     1      22.434   7.177  49.319  1.00  0.00    -0.428 NA
HETATM   18  C1  UNL     1      22.849   6.850  50.677  1.00  0.00     0.131 C 
ENDBRANCH  16  17
ENDBRANCH  15  16
ENDBRANCH  13  15
ENDBRANCH   6   9
ENDBRANCH   1   5
BRANCH   2  19
HETATM   19  C13 UNL     1      26.884   5.015  49.043  1.00  0.00     0.032 A 
HETATM   20  C14 UNL     1      26.089   6.107  48.751  1.00  0.00     0.017 A 
HETATM   21  C15 UNL     1      26.569   7.199  48.072  1.00  0.00     0.010 A 
HETATM   22  C16 UNL     1      27.884   7.279  47.638  1.00  0.00    -0.030 A 
HETATM   23  C23 UNL     1      28.671   6.209  47.921  1.00  0.00     0.010 A 
HETATM   24  C24 UNL     1      28.191   5.106  48.604  1.00  0.00     0.017 A 
BRANCH  22  25
HETATM   25  C17 UNL     1      28.222   8.535  46.921  1.00  0.00     0.311 C 
BRANCH  25  26
HETATM   26  N4  UNL     1      28.075   9.692  47.744  1.00  0.00     0.096 N 
HETATM   27  C18 UNL     1      28.990   9.733  48.839  1.00  0.00     0.303 C 
HETATM   28  C19 UNL     1      30.395  10.101  48.433  1.00  0.00     0.302 C 
HETATM   29  N5  UNL     1      30.457  11.274  47.606  1.00  0.00     0.087 N 
HETATM   30  C20 UNL     1      31.759  11.330  46.948  1.00  0.00     0.310 C 
HETATM   31  C21 UNL     1      29.446  11.334  46.577  1.00  0.00     0.302 C 
HETATM   32  C22 UNL     1      28.069  10.938  47.051  1.00  0.00     0.303 C 
ENDBRANCH  25  26
ENDBRANCH  22  25
ENDBRANCH   2  19
TORSDOF 8
ENDMDL
MODEL 6
REMARK VINA RESULT:      -7.3      2.145      9.065
REMARK  8 active torsions:
REMARK  status: ('A' for Active; 'I' for Inactive)
REMARK    1  A    between atoms: N1_2  and  C2_3 
REMARK    2  A    between atoms: C2_3  and  C3_4 
REMARK    3  A    between atoms: C3_4  and  C4_5 
REMARK    4  A    between atoms: C7_9  and  C8_10 
REMARK    5  A    between atoms: C11_13  and  N3_14 
REMARK       I    between atoms: N3_14  and  C12_15 
REMARK    6  A    between atoms: C12_15  and  C13_17 
REMARK    7  A    between atoms: C16_20  and  C17_21 
REMARK    8  A    between atoms: C17_21  and  N4_22 
ROOT
HETATM    1  N3  UNL     1      28.732   8.386  47.919  1.00  0.00    -0.348 N 
HETATM    2  C12 UNL     1      27.415   7.995  47.508  1.00  0.00     0.252 C 
HETATM    3  O1  UNL     1      26.859   8.706  46.636  1.00  0.00    -0.268 OA
HETATM    4  H13 UNL     1      29.279   7.866  48.637  1.00  0.00     0.163 HD
ENDROOT
BRANCH   1   5
HETATM    5  C11 UNL     1      29.537   9.521  47.467  1.00  0.00     0.122 A 
HETATM    6  C8  UNL     1      30.956   9.302  47.188  1.00  0.00     0.106 A 
HETATM    7  C9  UNL     1      31.215  10.252  48.285  1.00  0.00    -0.014 A 
HETATM    8  C10 UNL     1      29.952  10.430  48.509  1.00  0.00    -0.004 A 
BRANCH   6   9
HETATM    9  C7  UNL     1      31.574   7.993  47.525  1.00  0.00     0.136 A 
HETATM   10  N2  UNL     1      32.713   8.165  48.210  1.00  0.00    -0.245 NA
HETATM   11  C6  UNL     1      33.509   7.151  48.643  1.00  0.00     0.120 A 
HETATM   12  C5  UNL     1      33.136   5.871  48.370  1.00  0.00     0.047 A 
HETATM   13  C4  UNL     1      31.967   5.694  47.666  1.00  0.00     0.042 A 
HETATM   14  N6  UNL     1      31.237   6.746  47.275  1.00  0.00    -0.237 NA
BRANCH  13  15
HETATM   15  C3  UNL     1      31.524   4.319  47.331  1.00  0.00     0.105 C 
BRANCH  15  16
HETATM   16  C2  UNL     1      32.763   3.570  46.903  1.00  0.00     0.251 C 
BRANCH  16  17
HETATM   17  N1  UNL     1      33.778   2.881  46.605  1.00  0.00    -0.428 NA
HETATM   18  C1  UNL     1      34.966   3.583  46.135  1.00  0.00     0.131 C 
ENDBRANCH  16  17
ENDBRANCH  15  16
ENDBRANCH  13  15
ENDBRANCH   6   9
ENDBRANCH   1   5
BRANCH   2  19
HETATM   19  C13 UNL     1      26.819   6.816  48.121  1.00  0.00     0.032 A 
HETATM   20  C14 UNL     1      25.482   6.626  48.416  1.00  0.00     0.017 A 
HETATM   21  C15 UNL     1      25.019   5.471  48.995  1.00  0.00     0.010 A 
HETATM   22  C16 UNL     1      25.861   4.418  49.319  1.00  0.00    -0.030 A 
HETATM   23  C23 UNL     1      27.176   4.598  49.032  1.00  0.00     0.010 A 
HETATM   24  C24 UNL     1      27.648   5.760  48.450  1.00  0.00     0.017 A 
BRANCH  22  25
HETATM   25  C17 UNL     1      25.181   3.252  49.938  1.00  0.00     0.311 C 
BRANCH  25  26
HETATM   26  N4  UNL     1      25.184   3.310  51.365  1.00  0.00     0.096 N 
HETATM   27  C18 UNL     1      23.981   3.847  51.915  1.00  0.00     0.303 C 
HETATM   28  C19 UNL     1      22.821   2.885  51.876  1.00  0.00     0.302 C 
HETATM   29  N5  UNL     1      23.144   1.586  52.396  1.00  0.00     0.087 N 
HETATM   30  C20 UNL     1      22.128   0.629  51.968  1.00  0.00     0.310 C 
HETATM   31  C21 UNL     1      24.428   1.075  51.974  1.00  0.00     0.302 C 
HETATM   32  C22 UNL     1      25.537   2.096  52.025  1.00  0.00     0.303 C 
ENDBRANCH  25  26
ENDBRANCH  22  25
ENDBRANCH   2  19
TORSDOF 8
ENDMDL
MODEL 7
REMARK VINA RESULT:      -7.3      2.014      2.645
REMARK  8 active torsions:
REMARK  status: ('A' for Active; 'I' for Inactive)
REMARK    1  A    between atoms: N1_2  and  C2_3 
REMARK    2  A    between atoms: C2_3  and  C3_4 
REMARK    3  A    between atoms: C3_4  and  C4_5 
REMARK    4  A    between atoms: C7_9  and  C8_10 
REMARK    5  A    between atoms: C11_13  and  N3_14 
REMARK       I    between atoms: N3_14  and  C12_15 
REMARK    6  A    between atoms: C12_15  and  C13_17 
REMARK    7  A    between atoms: C16_20  and  C17_21 
REMARK    8  A    between atoms: C17_21  and  N4_22 
ROOT
HETATM    1  N3  UNL     1      22.185   3.130  50.567  1.00  0.00    -0.348 N 
HETATM    2  C12 UNL     1      22.989   2.952  49.393  1.00  0.00     0.252 C 
HETATM    3  O1  UNL     1      22.623   2.066  48.583  1.00  0.00    -0.268 OA
HETATM    4  H13 UNL     1      22.404   3.835  51.301  1.00  0.00     0.163 HD
ENDROOT
BRANCH   1   5
HETATM    5  C11 UNL     1      20.978   2.409  50.973  1.00  0.00     0.122 A 
HETATM    6  C8  UNL     1      21.084   1.422  52.046  1.00  0.00     0.106 A 
HETATM    7  C9  UNL     1      20.682   0.428  51.036  1.00  0.00    -0.014 A 
HETATM    8  C10 UNL     1      20.593   1.322  50.104  1.00  0.00    -0.004 A 
BRANCH   6   9
HETATM    9  C7  UNL     1      22.425   1.059  52.577  1.00  0.00     0.136 A 
HETATM   10  N2  UNL     1      22.441  -0.211  53.004  1.00  0.00    -0.245 NA
HETATM   11  C6  UNL     1      23.524  -0.821  53.554  1.00  0.00     0.120 A 
HETATM   12  C5  UNL     1      24.675  -0.107  53.686  1.00  0.00     0.047 A 
HETATM   13  C4  UNL     1      24.659   1.197  53.247  1.00  0.00     0.042 A 
HETATM   14  N6  UNL     1      23.550   1.726  52.715  1.00  0.00    -0.237 NA
BRANCH  13  15
HETATM   15  C3  UNL     1      25.883   2.022  53.382  1.00  0.00     0.105 C 
BRANCH  15  16
HETATM   16  C2  UNL     1      26.849   1.211  54.211  1.00  0.00     0.251 C 
BRANCH  16  17
HETATM   17  N1  UNL     1      27.653   0.597  54.966  1.00  0.00    -0.428 NA
HETATM   18  C1  UNL     1      28.729  -0.165  54.343  1.00  0.00     0.131 C 
ENDBRANCH  16  17
ENDBRANCH  15  16
ENDBRANCH  13  15
ENDBRANCH   6   9
ENDBRANCH   1   5
BRANCH   2  19
HETATM   19  C13 UNL     1      24.161   3.800  49.220  1.00  0.00     0.032 A 
HETATM   20  C14 UNL     1      25.474   3.456  49.480  1.00  0.00     0.017 A 
HETATM   21  C15 UNL     1      26.512   4.331  49.282  1.00  0.00     0.010 A 
HETATM   22  C16 UNL     1      26.311   5.618  48.805  1.00  0.00    -0.030 A 
HETATM   23  C23 UNL     1      25.023   5.964  48.548  1.00  0.00     0.010 A 
HETATM   24  C24 UNL     1      23.974   5.085  48.748  1.00  0.00     0.017 A 
BRANCH  22  25
HETATM   25  C17 UNL     1      27.551   6.421  48.654  1.00  0.00     0.311 C 
BRANCH  25  26
HETATM   26  N4  UNL     1      27.307   7.701  48.070  1.00  0.00     0.096 N 
HETATM   27  C18 UNL     1      27.363   8.775  49.009  1.00  0.00     0.303 C 
HETATM   28  C19 UNL     1      28.766   9.140  49.420  1.00  0.00     0.302 C 
HETATM   29  N5  UNL     1      29.655   9.323  48.307  1.00  0.00     0.087 N 
HETATM   30  C20 UNL     1      31.036   9.278  48.781  1.00  0.00     0.310 C 
HETATM   31  C21 UNL     1      29.520   8.331  47.266  1.00  0.00     0.302 C 
HETATM   32  C22 UNL     1      28.089   8.005  46.916  1.00  0.00     0.303 C 
ENDBRANCH  25  26
ENDBRANCH  22  25
ENDBRANCH   2  19
TORSDOF 8
ENDMDL
MODEL 8
REMARK VINA RESULT:      -7.3      3.407      9.731
REMARK  8 active torsions:
REMARK  status: ('A' for Active; 'I' for Inactive)
REMARK    1  A    between atoms: N1_2  and  C2_3 
REMARK    2  A    between atoms: C2_3  and  C3_4 
REMARK    3  A    between atoms: C3_4  and  C4_5 
REMARK    4  A    between atoms: C7_9  and  C8_10 
REMARK    5  A    between atoms: C11_13  and  N3_14 
REMARK       I    between atoms: N3_14  and  C12_15 
REMARK    6  A    between atoms: C12_15  and  C13_17 
REMARK    7  A    between atoms: C16_20  and  C17_21 
REMARK    8  A    between atoms: C17_21  and  N4_22 
ROOT
HETATM    1  N3  UNL     1      29.677   6.967  48.683  1.00  0.00    -0.348 N 
HETATM    2  C12 UNL     1      29.073   5.705  48.369  1.00  0.00     0.252 C 
HETATM    3  O1  UNL     1      29.826   4.817  47.901  1.00  0.00    -0.268 OA
HETATM    4  H13 UNL     1      29.139   7.770  49.074  1.00  0.00     0.163 HD
ENDROOT
BRANCH   1   5
HETATM    5  C11 UNL     1      31.070   7.385  48.526  1.00  0.00     0.122 A 
HETATM    6  C8  UNL     1      31.384   8.810  48.607  1.00  0.00     0.106 A 
HETATM    7  C9  UNL     1      31.831   8.688  47.209  1.00  0.00    -0.014 A 
HETATM    8  C10 UNL     1      31.547   7.426  47.165  1.00  0.00    -0.004 A 
BRANCH   6   9
HETATM    9  C7  UNL     1      30.276   9.800  48.676  1.00  0.00     0.136 A 
HETATM   10  N2  UNL     1      30.755  11.043  48.822  1.00  0.00    -0.245 NA
HETATM   11  C6  UNL     1      29.982  12.156  48.930  1.00  0.00     0.120 A 
HETATM   12  C5  UNL     1      28.629  12.013  48.889  1.00  0.00     0.047 A 
HETATM   13  C4  UNL     1      28.136  10.737  48.740  1.00  0.00     0.042 A 
HETATM   14  N6  UNL     1      28.965   9.690  48.640  1.00  0.00    -0.237 NA
BRANCH  13  15
HETATM   15  C3  UNL     1      26.670  10.526  48.705  1.00  0.00     0.105 C 
BRANCH  15  16
HETATM   16  C2  UNL     1      26.345  10.058  47.307  1.00  0.00     0.251 C 
BRANCH  16  17
HETATM   17  N1  UNL     1      26.128   9.597  46.151  1.00  0.00    -0.428 NA
HETATM   18  C1  UNL     1      27.167   8.781  45.536  1.00  0.00     0.131 C 
ENDBRANCH  16  17
ENDBRANCH  15  16
ENDBRANCH  13  15
ENDBRANCH   6   9
ENDBRANCH   1   5
BRANCH   2  19
HETATM   19  C13 UNL     1      27.646   5.539  48.612  1.00  0.00     0.032 A 
HETATM   20  C14 UNL     1      26.660   6.488  48.416  1.00  0.00     0.017 A 
HETATM   21  C15 UNL     1      25.337   6.230  48.675  1.00  0.00     0.010 A 
HETATM   22  C16 UNL     1      24.903   5.000  49.147  1.00  0.00    -0.030 A 
HETATM   23  C23 UNL     1      25.867   4.064  49.343  1.00  0.00     0.010 A 
HETATM   24  C24 UNL     1      27.201   4.320  49.085  1.00  0.00     0.017 A 
BRANCH  22  25
HETATM   25  C17 UNL     1      23.438   4.906  49.369  1.00  0.00     0.311 C 
BRANCH  25  26
HETATM   26  N4  UNL     1      22.993   5.734  50.443  1.00  0.00     0.096 N 
HETATM   27  C18 UNL     1      21.586   5.981  50.427  1.00  0.00     0.303 C 
HETATM   28  C19 UNL     1      20.765   4.803  50.887  1.00  0.00     0.302 C 
HETATM   29  N5  UNL     1      21.221   4.244  52.129  1.00  0.00     0.087 N 
HETATM   30  C20 UNL     1      20.649   2.911  52.295  1.00  0.00     0.310 C 
HETATM   31  C21 UNL     1      22.656   4.118  52.236  1.00  0.00     0.302 C 
HETATM   32  C22 UNL     1      23.413   5.327  51.744  1.00  0.00     0.303 C 
ENDBRANCH  25  26
ENDBRANCH  22  25
ENDBRANCH   2  19
TORSDOF 8
ENDMDL
MODEL 9
REMARK VINA RESULT:      -7.2      2.964      5.559
REMARK  8 active torsions:
REMARK  status: ('A' for Active; 'I' for Inactive)
REMARK    1  A    between atoms: N1_2  and  C2_3 
REMARK    2  A    between atoms: C2_3  and  C3_4 
REMARK    3  A    between atoms: C3_4  and  C4_5 
REMARK    4  A    between atoms: C7_9  and  C8_10 
REMARK    5  A    between atoms: C11_13  and  N3_14 
REMARK       I    between atoms: N3_14  and  C12_15 
REMARK    6  A    between atoms: C12_15  and  C13_17 
REMARK    7  A    between atoms: C16_20  and  C17_21 
REMARK    8  A    between atoms: C17_21  and  N4_22 
ROOT
HETATM    1  N3  UNL     1      25.324   3.628  50.958  1.00  0.00    -0.348 N 
HETATM    2  C12 UNL     1      26.342   3.637  49.948  1.00  0.00     0.252 C 
HETATM    3  O1  UNL     1      26.981   2.570  49.778  1.00  0.00    -0.268 OA
HETATM    4  H13 UNL     1      24.739   4.461  51.179  1.00  0.00     0.163 HD
ENDROOT
BRANCH   1   5
HETATM    5  C11 UNL     1      24.918   2.538  51.845  1.00  0.00     0.122 A 
HETATM    6  C8  UNL     1      23.767   1.721  51.464  1.00  0.00     0.106 A 
HETATM    7  C9  UNL     1      23.127   2.231  52.689  1.00  0.00    -0.014 A 
HETATM    8  C10 UNL     1      24.161   2.943  53.005  1.00  0.00    -0.004 A 
BRANCH   6   9
HETATM    9  C7  UNL     1      22.947   2.116  50.288  1.00  0.00     0.136 A 
HETATM   10  N2  UNL     1      22.066   1.157  49.977  1.00  0.00    -0.245 NA
HETATM   11  C6  UNL     1      21.190   1.226  48.939  1.00  0.00     0.120 A 
HETATM   12  C5  UNL     1      21.198   2.339  48.157  1.00  0.00     0.047 A 
HETATM   13  C4  UNL     1      22.103   3.325  48.476  1.00  0.00     0.042 A 
HETATM   14  N6  UNL     1      22.933   3.181  49.516  1.00  0.00    -0.237 NA
BRANCH  13  15
HETATM   15  C3  UNL     1      22.161   4.551  47.645  1.00  0.00     0.105 C 
BRANCH  15  16
HETATM   16  C2  UNL     1      22.005   4.099  46.214  1.00  0.00     0.251 C 
BRANCH  16  17
HETATM   17  N1  UNL     1      21.962   3.705  45.014  1.00  0.00    -0.428 NA
HETATM   18  C1  UNL     1      20.742   3.956  44.257  1.00  0.00     0.131 C 
ENDBRANCH  16  17
ENDBRANCH  15  16
ENDBRANCH  13  15
ENDBRANCH   6   9
ENDBRANCH   1   5
BRANCH   2  19
HETATM   19  C13 UNL     1      26.563   4.864  49.196  1.00  0.00     0.032 A 
HETATM   20  C14 UNL     1      27.755   5.288  48.641  1.00  0.00     0.017 A 
HETATM   21  C15 UNL     1      27.859   6.467  47.946  1.00  0.00     0.010 A 
HETATM   22  C16 UNL     1      26.774   7.309  47.753  1.00  0.00    -0.030 A 
HETATM   23  C23 UNL     1      25.599   6.899  48.297  1.00  0.00     0.010 A 
HETATM   24  C24 UNL     1      25.490   5.713  48.999  1.00  0.00     0.017 A 
BRANCH  22  25
HETATM   25  C17 UNL     1      27.076   8.538  46.978  1.00  0.00     0.311 C 
BRANCH  25  26
HETATM   26  N4  UNL     1      28.228   9.225  47.467  1.00  0.00     0.096 N 
HETATM   27  C18 UNL     1      29.030   9.800  46.435  1.00  0.00     0.303 C 
HETATM   28  C19 UNL     1      28.436  11.052  45.841  1.00  0.00     0.302 C 
HETATM   29  N5  UNL     1      28.024  12.009  46.829  1.00  0.00     0.087 N 
HETATM   30  C20 UNL     1      27.125  12.981  46.214  1.00  0.00     0.310 C 
HETATM   31  C21 UNL     1      27.337  11.438  47.964  1.00  0.00     0.302 C 
HETATM   32  C22 UNL     1      27.979  10.181  48.496  1.00  0.00     0.303 C 
ENDBRANCH  25  26
ENDBRANCH  22  25
ENDBRANCH   2  19
TORSDOF 8
ENDMDL
