MODEL 1
REMARK VINA RESULT:      -6.8      0.000      0.000
REMARK  8 active torsions:
REMARK  status: ('A' for Active; 'I' for Inactive)
REMARK    1  A    between atoms: C3_3  and  N1_4 
REMARK    2  A    between atoms: N1_4  and  C4_5 
REMARK    3  A    between atoms: N1_4  and  C6_8 
REMARK    4  A    between atoms: C4_5  and  C5_6 
REMARK    5  A    between atoms: C5_6  and  O1_7 
REMARK    6  A    between atoms: C12_15  and  O3_16 
REMARK    7  A    between atoms: O3_16  and  O4_17 
REMARK    8  A    between atoms: C14_19  and  C15_20 
ROOT
HETATM    1  C15 UNL     1      21.499   0.519  51.551  1.00  0.00     0.038 C 
HETATM    2  C16 UNL     1      20.421   0.116  52.092  1.00  0.00     0.223 C 
HETATM    3 CL1  UNL     1      19.022  -0.530  53.015  1.00  0.00    -0.257 Cl
ENDROOT
BRANCH   1   4
HETATM    4  C14 UNL     1      22.758   0.252  52.235  1.00  0.00     0.005 C 
HETATM    5  C13 UNL     1      23.420   1.293  52.757  1.00  0.00    -0.021 C 
HETATM    6  C12 UNL     1      24.644   0.884  53.411  1.00  0.00     0.221 C 
HETATM    7  C17 UNL     1      23.409   2.781  52.694  1.00  0.00     0.205 C 
HETATM    8  C11 UNL     1      25.820   1.210  52.488  1.00  0.00    -0.033 A 
HETATM    9  C10 UNL     1      26.895   1.652  51.515  1.00  0.00     0.036 A 
HETATM   10  O2  UNL     1      25.836   2.126  51.630  1.00  0.00     0.000 OA
HETATM   11  C9  UNL     1      26.312   2.540  50.779  1.00  0.00     0.034 A 
HETATM   12  C7  UNL     1      25.509   3.482  50.073  1.00  0.00    -0.053 C 
HETATM   13  C6  UNL     1      24.219   3.745  50.203  1.00  0.00     0.037 C 
HETATM   14  C8  UNL     1      26.348   4.508  49.341  1.00  0.00     0.046 C 
HETATM   15  C18 UNL     1      23.051   2.821  50.509  1.00  0.00     0.225 C 
HETATM   16  O5  UNL     1      22.426   3.180  51.730  1.00  0.00    -0.381 OA
BRANCH   6  17
HETATM   17  O3  UNL     1      24.668  -0.397  53.854  1.00  0.00    -0.229 OA
BRANCH  17  18
HETATM   18  O4  UNL     1      25.765  -0.818  54.409  1.00  0.00    -0.250 OA
HETATM   19  H17 UNL     1      25.642  -1.561  55.034  1.00  0.00     0.253 HD
ENDBRANCH  17  18
ENDBRANCH   6  17
BRANCH  13  20
HETATM   20  N1  UNL     1      23.564   4.910  49.750  1.00  0.00    -0.356 N 
BRANCH  20  21
HETATM   21  C3  UNL     1      22.985   4.712  48.436  1.00  0.00     0.087 C 
HETATM   22  C2  UNL     1      22.739   5.619  47.506  1.00  0.00    -0.014 C 
HETATM   23  C1  UNL     1      22.140   5.452  46.133  1.00  0.00     0.037 C 
ENDBRANCH  20  21
BRANCH  20  24
HETATM   24  C4  UNL     1      23.290   6.241  50.252  1.00  0.00     0.154 C 
BRANCH  24  25
HETATM   25  C5  UNL     1      24.350   6.888  51.051  1.00  0.00     0.184 C 
BRANCH  25  26
HETATM   26  O1  UNL     1      24.408   6.627  52.386  1.00  0.00    -0.399 OA
HETATM   27  H10 UNL     1      24.263   7.411  52.973  1.00  0.00     0.209 HD
ENDBRANCH  25  26
ENDBRANCH  24  25
ENDBRANCH  20  24
ENDBRANCH  13  20
ENDBRANCH   1   4
TORSDOF 8
ENDMDL
MODEL 2
REMARK VINA RESULT:      -6.5      3.967      5.596
REMARK  8 active torsions:
REMARK  status: ('A' for Active; 'I' for Inactive)
REMARK    1  A    between atoms: C3_3  and  N1_4 
REMARK    2  A    between atoms: N1_4  and  C4_5 
REMARK    3  A    between atoms: N1_4  and  C6_8 
REMARK    4  A    between atoms: C4_5  and  C5_6 
REMARK    5  A    between atoms: C5_6  and  O1_7 
REMARK    6  A    between atoms: C12_15  and  O3_16 
REMARK    7  A    between atoms: O3_16  and  O4_17 
REMARK    8  A    between atoms: C14_19  and  C15_20 
ROOT
HETATM    1  C15 UNL     1      22.099   7.996  49.404  1.00  0.00     0.038 C 
HETATM    2  C16 UNL     1      21.081   8.745  49.550  1.00  0.00     0.223 C 
HETATM    3 CL1  UNL     1      19.580   9.663  49.912  1.00  0.00    -0.257 Cl
ENDROOT
BRANCH   1   4
HETATM    4  C14 UNL     1      22.211   6.809  50.241  1.00  0.00     0.005 C 
HETATM    5  C13 UNL     1      23.317   6.671  50.986  1.00  0.00    -0.021 C 
HETATM    6  C12 UNL     1      23.293   5.456  51.771  1.00  0.00     0.221 C 
HETATM    7  C17 UNL     1      24.677   7.266  51.105  1.00  0.00     0.205 C 
HETATM    8  C11 UNL     1      24.195   4.422  51.094  1.00  0.00    -0.033 A 
HETATM    9  C10 UNL     1      25.173   3.522  50.366  1.00  0.00     0.036 A 
HETATM   10  O2  UNL     1      25.184   4.687  50.369  1.00  0.00     0.000 OA
HETATM   11  C9  UNL     1      25.888   4.333  49.661  1.00  0.00     0.034 A 
HETATM   12  C7  UNL     1      26.566   5.371  48.957  1.00  0.00    -0.053 C 
HETATM   13  C6  UNL     1      26.296   6.665  48.911  1.00  0.00     0.037 C 
HETATM   14  C8  UNL     1      27.943   4.941  48.500  1.00  0.00     0.046 C 
HETATM   15  C18 UNL     1      24.960   7.393  48.912  1.00  0.00     0.225 C 
HETATM   16  O5  UNL     1      24.837   8.227  50.053  1.00  0.00    -0.381 OA
BRANCH   6  17
HETATM   17  O3  UNL     1      22.059   4.968  52.052  1.00  0.00    -0.229 OA
BRANCH  17  18
HETATM   18  O4  UNL     1      21.959   3.694  52.291  1.00  0.00    -0.250 OA
HETATM   19  H17 UNL     1      21.895   3.138  51.488  1.00  0.00     0.253 HD
ENDBRANCH  17  18
ENDBRANCH   6  17
BRANCH  13  20
HETATM   20  N1  UNL     1      27.186   7.681  48.506  1.00  0.00    -0.356 N 
BRANCH  20  21
HETATM   21  C3  UNL     1      26.908   8.117  47.152  1.00  0.00     0.087 C 
HETATM   22  C2  UNL     1      27.759   8.273  46.152  1.00  0.00    -0.014 C 
HETATM   23  C1  UNL     1      27.509   8.722  44.736  1.00  0.00     0.037 C 
ENDBRANCH  20  21
BRANCH  20  24
HETATM   24  C4  UNL     1      28.286   8.426  49.084  1.00  0.00     0.154 C 
BRANCH  24  25
HETATM   25  C5  UNL     1      27.942   9.629  49.869  1.00  0.00     0.184 C 
BRANCH  25  26
HETATM   26  O1  UNL     1      27.528   9.467  51.156  1.00  0.00    -0.399 OA
HETATM   27  H10 UNL     1      26.566   9.263  51.266  1.00  0.00     0.209 HD
ENDBRANCH  25  26
ENDBRANCH  24  25
ENDBRANCH  20  24
ENDBRANCH  13  20
ENDBRANCH   1   4
TORSDOF 8
ENDMDL
MODEL 3
REMARK VINA RESULT:      -6.5      2.427      3.876
REMARK  8 active torsions:
REMARK  status: ('A' for Active; 'I' for Inactive)
REMARK    1  A    between atoms: C3_3  and  N1_4 
REMARK    2  A    between atoms: N1_4  and  C4_5 
REMARK    3  A    between atoms: N1_4  and  C6_8 
REMARK    4  A    between atoms: C4_5  and  C5_6 
REMARK    5  A    between atoms: C5_6  and  O1_7 
REMARK    6  A    between atoms: C12_15  and  O3_16 
REMARK    7  A    between atoms: O3_16  and  O4_17 
REMARK    8  A    between atoms: C14_19  and  C15_20 
ROOT
HETATM    1  C15 UNL     1      24.984   0.799  53.215  1.00  0.00     0.038 C 
HETATM    2  C16 UNL     1      25.804  -0.138  52.958  1.00  0.00     0.223 C 
HETATM    3 CL1  UNL     1      26.788  -1.593  52.583  1.00  0.00    -0.257 Cl
ENDROOT
BRANCH   1   4
HETATM    4  C14 UNL     1      23.565   0.478  53.286  1.00  0.00     0.005 C 
HETATM    5  C13 UNL     1      22.828   0.653  52.180  1.00  0.00    -0.021 C 
HETATM    6  C12 UNL     1      21.443   0.289  52.389  1.00  0.00     0.221 C 
HETATM    7  C17 UNL     1      22.932   1.314  50.849  1.00  0.00     0.205 C 
HETATM    8  C11 UNL     1      20.625   1.570  52.562  1.00  0.00    -0.033 A 
HETATM    9  C10 UNL     1      19.924   2.912  52.641  1.00  0.00     0.036 A 
HETATM   10  O2  UNL     1      20.918   2.689  52.076  1.00  0.00     0.000 OA
HETATM   11  C9  UNL     1      20.748   3.734  52.083  1.00  0.00     0.034 A 
HETATM   12  C7  UNL     1      21.775   4.488  51.444  1.00  0.00    -0.053 C 
HETATM   13  C6  UNL     1      22.975   4.098  51.045  1.00  0.00     0.037 C 
HETATM   14  C8  UNL     1      21.253   5.790  50.875  1.00  0.00     0.046 C 
HETATM   15  C18 UNL     1      23.944   3.105  51.668  1.00  0.00     0.225 C 
HETATM   16  O5  UNL     1      24.183   2.013  50.795  1.00  0.00    -0.381 OA
BRANCH   6  17
HETATM   17  O3  UNL     1      21.220  -0.610  53.379  1.00  0.00    -0.229 OA
BRANCH  17  18
HETATM   18  O4  UNL     1      20.378  -0.277  54.312  1.00  0.00    -0.250 OA
HETATM   19  H17 UNL     1      19.715   0.388  54.037  1.00  0.00     0.253 HD
ENDBRANCH  17  18
ENDBRANCH   6  17
BRANCH  13  20
HETATM   20  N1  UNL     1      23.794   4.769  50.114  1.00  0.00    -0.356 N 
BRANCH  20  21
HETATM   21  C3  UNL     1      23.255   4.673  48.771  1.00  0.00     0.087 C 
HETATM   22  C2  UNL     1      22.656   3.642  48.202  1.00  0.00    -0.014 C 
HETATM   23  C1  UNL     1      22.084   3.505  46.815  1.00  0.00     0.037 C 
ENDBRANCH  20  21
BRANCH  20  24
HETATM   24  C4  UNL     1      25.014   5.550  50.137  1.00  0.00     0.154 C 
BRANCH  24  25
HETATM   25  C5  UNL     1      24.938   6.894  50.743  1.00  0.00     0.184 C 
BRANCH  25  26
HETATM   26  O1  UNL     1      24.526   7.001  52.036  1.00  0.00    -0.399 OA
HETATM   27  H10 UNL     1      25.052   6.474  52.689  1.00  0.00     0.209 HD
ENDBRANCH  25  26
ENDBRANCH  24  25
ENDBRANCH  20  24
ENDBRANCH  13  20
ENDBRANCH   1   4
TORSDOF 8
ENDMDL
MODEL 4
REMARK VINA RESULT:      -6.4      1.709      2.336
REMARK  8 active torsions:
REMARK  status: ('A' for Active; 'I' for Inactive)
REMARK    1  A    between atoms: C3_3  and  N1_4 
REMARK    2  A    between atoms: N1_4  and  C4_5 
REMARK    3  A    between atoms: N1_4  and  C6_8 
REMARK    4  A    between atoms: C4_5  and  C5_6 
REMARK    5  A    between atoms: C5_6  and  O1_7 
REMARK    6  A    between atoms: C12_15  and  O3_16 
REMARK    7  A    between atoms: O3_16  and  O4_17 
REMARK    8  A    between atoms: C14_19  and  C15_20 
ROOT
HETATM    1  C15 UNL     1      19.940   0.072  51.703  1.00  0.00     0.038 C 
HETATM    2  C16 UNL     1      18.686  -0.129  51.773  1.00  0.00     0.223 C 
HETATM    3 CL1  UNL     1      16.955  -0.513  52.060  1.00  0.00    -0.257 Cl
ENDROOT
BRANCH   1   4
HETATM    4  C14 UNL     1      20.783  -0.437  52.777  1.00  0.00     0.005 C 
HETATM    5  C13 UNL     1      21.547   0.441  53.442  1.00  0.00    -0.021 C 
HETATM    6  C12 UNL     1      22.324  -0.197  54.482  1.00  0.00     0.221 C 
HETATM    7  C17 UNL     1      22.021   1.847  53.312  1.00  0.00     0.205 C 
HETATM    8  C11 UNL     1      23.764  -0.351  53.988  1.00  0.00    -0.033 A 
HETATM    9  C10 UNL     1      25.164  -0.373  53.408  1.00  0.00     0.036 A 
HETATM   10  O2  UNL     1      24.324   0.390  53.145  1.00  0.00     0.000 OA
HETATM   11  C9  UNL     1      25.139   0.527  52.482  1.00  0.00     0.034 A 
HETATM   12  C7  UNL     1      24.923   1.545  51.508  1.00  0.00    -0.053 C 
HETATM   13  C6  UNL     1      23.805   2.176  51.190  1.00  0.00     0.037 C 
HETATM   14  C8  UNL     1      26.221   2.177  51.051  1.00  0.00     0.046 C 
HETATM   15  C18 UNL     1      22.372   1.670  51.133  1.00  0.00     0.225 C 
HETATM   16  O5  UNL     1      21.551   2.363  52.059  1.00  0.00    -0.381 OA
BRANCH   6  17
HETATM   17  O3  UNL     1      21.811  -1.355  54.965  1.00  0.00    -0.229 OA
BRANCH  17  18
HETATM   18  O4  UNL     1      22.616  -2.139  55.619  1.00  0.00    -0.250 OA
HETATM   19  H17 UNL     1      23.334  -1.674  56.095  1.00  0.00     0.253 HD
ENDBRANCH  17  18
ENDBRANCH   6  17
BRANCH  13  20
HETATM   20  N1  UNL     1      23.716   3.399  50.494  1.00  0.00    -0.356 N 
BRANCH  20  21
HETATM   21  C3  UNL     1      23.284   3.197  49.125  1.00  0.00     0.087 C 
HETATM   22  C2  UNL     1      22.711   4.067  48.311  1.00  0.00    -0.014 C 
HETATM   23  C1  UNL     1      22.250   3.894  46.887  1.00  0.00     0.037 C 
ENDBRANCH  20  21
BRANCH  20  24
HETATM   24  C4  UNL     1      23.912   4.805  50.782  1.00  0.00     0.154 C 
BRANCH  24  25
HETATM   25  C5  UNL     1      22.861   5.481  51.569  1.00  0.00     0.184 C 
BRANCH  25  26
HETATM   26  O1  UNL     1      22.712   5.142  52.879  1.00  0.00    -0.399 OA
HETATM   27  H10 UNL     1      23.547   4.884  53.344  1.00  0.00     0.209 HD
ENDBRANCH  25  26
ENDBRANCH  24  25
ENDBRANCH  20  24
ENDBRANCH  13  20
ENDBRANCH   1   4
TORSDOF 8
ENDMDL
MODEL 5
REMARK VINA RESULT:      -6.3      2.991      4.683
REMARK  8 active torsions:
REMARK  status: ('A' for Active; 'I' for Inactive)
REMARK    1  A    between atoms: C3_3  and  N1_4 
REMARK    2  A    between atoms: N1_4  and  C4_5 
REMARK    3  A    between atoms: N1_4  and  C6_8 
REMARK    4  A    between atoms: C4_5  and  C5_6 
REMARK    5  A    between atoms: C5_6  and  O1_7 
REMARK    6  A    between atoms: C12_15  and  O3_16 
REMARK    7  A    between atoms: O3_16  and  O4_17 
REMARK    8  A    between atoms: C14_19  and  C15_20 
ROOT
HETATM    1  C15 UNL     1      25.780   2.190  53.649  1.00  0.00     0.038 C 
HETATM    2  C16 UNL     1      27.033   2.016  53.520  1.00  0.00     0.223 C 
HETATM    3 CL1  UNL     1      28.769   1.567  53.404  1.00  0.00    -0.257 Cl
ENDROOT
BRANCH   1   4
HETATM    4  C14 UNL     1      24.971   1.071  54.115  1.00  0.00     0.005 C 
HETATM    5  C13 UNL     1      24.168   0.468  53.227  1.00  0.00    -0.021 C 
HETATM    6  C12 UNL     1      23.430  -0.627  53.820  1.00  0.00     0.221 C 
HETATM    7  C17 UNL     1      23.621   0.701  51.862  1.00  0.00     0.205 C 
HETATM    8  C11 UNL     1      21.997  -0.161  54.085  1.00  0.00    -0.033 A 
HETATM    9  C10 UNL     1      20.596   0.401  54.223  1.00  0.00     0.036 A 
HETATM   10  O2  UNL     1      21.395   0.732  53.441  1.00  0.00     0.000 OA
HETATM   11  C9  UNL     1      20.570   1.394  53.398  1.00  0.00     0.034 A 
HETATM   12  C7  UNL     1      20.726   2.447  52.449  1.00  0.00    -0.053 C 
HETATM   13  C6  UNL     1      21.809   2.824  51.790  1.00  0.00     0.037 C 
HETATM   14  C8  UNL     1      19.396   2.938  51.921  1.00  0.00     0.046 C 
HETATM   15  C18 UNL     1      23.266   2.857  52.225  1.00  0.00     0.225 C 
HETATM   16  O5  UNL     1      24.055   1.995  51.422  1.00  0.00    -0.381 OA
BRANCH   6  17
HETATM   17  O3  UNL     1      24.005  -1.192  54.911  1.00  0.00    -0.229 OA
BRANCH  17  18
HETATM   18  O4  UNL     1      23.213  -1.655  55.832  1.00  0.00    -0.250 OA
HETATM   19  H17 UNL     1      22.575  -2.326  55.516  1.00  0.00     0.253 HD
ENDBRANCH  17  18
ENDBRANCH   6  17
BRANCH  13  20
HETATM   20  N1  UNL     1      21.831   3.613  50.621  1.00  0.00    -0.356 N 
BRANCH  20  21
HETATM   21  C3  UNL     1      21.989   5.020  50.938  1.00  0.00     0.087 C 
HETATM   22  C2  UNL     1      21.282   6.043  50.490  1.00  0.00    -0.014 C 
HETATM   23  C1  UNL     1      21.416   7.513  50.795  1.00  0.00     0.037 C 
ENDBRANCH  20  21
BRANCH  20  24
HETATM   24  C4  UNL     1      21.766   3.400  49.190  1.00  0.00     0.154 C 
BRANCH  24  25
HETATM   25  C5  UNL     1      23.000   3.648  48.418  1.00  0.00     0.184 C 
BRANCH  25  26
HETATM   26  O1  UNL     1      24.174   3.143  48.891  1.00  0.00    -0.399 OA
HETATM   27  H10 UNL     1      24.911   3.106  48.231  1.00  0.00     0.209 HD
ENDBRANCH  25  26
ENDBRANCH  24  25
ENDBRANCH  20  24
ENDBRANCH  13  20
ENDBRANCH   1   4
TORSDOF 8
ENDMDL
MODEL 6
REMARK VINA RESULT:      -6.2      8.418      9.761
REMARK  8 active torsions:
REMARK  status: ('A' for Active; 'I' for Inactive)
REMARK    1  A    between atoms: C3_3  and  N1_4 
REMARK    2  A    between atoms: N1_4  and  C4_5 
REMARK    3  A    between atoms: N1_4  and  C6_8 
REMARK    4  A    between atoms: C4_5  and  C5_6 
REMARK    5  A    between atoms: C5_6  and  O1_7 
REMARK    6  A    between atoms: C12_15  and  O3_16 
REMARK    7  A    between atoms: O3_16  and  O4_17 
REMARK    8  A    between atoms: C14_19  and  C15_20 
ROOT
HETATM    1  C15 UNL     1      31.656   4.018  46.998  1.00  0.00     0.038 C 
HETATM    2  C16 UNL     1      31.738   2.767  46.780  1.00  0.00     0.223 C 
HETATM    3 CL1  UNL     1      32.060   1.016  46.545  1.00  0.00    -0.257 Cl
ENDROOT
BRANCH   1   4
HETATM    4  C14 UNL     1      32.829   4.709  47.515  1.00  0.00     0.005 C 
HETATM    5  C13 UNL     1      32.643   5.627  48.474  1.00  0.00    -0.021 C 
HETATM    6  C12 UNL     1      33.888   6.228  48.898  1.00  0.00     0.221 C 
HETATM    7  C17 UNL     1      31.529   6.392  49.099  1.00  0.00     0.205 C 
HETATM    8  C11 UNL     1      34.004   7.613  48.258  1.00  0.00    -0.033 A 
HETATM    9  C10 UNL     1      33.957   8.988  47.624  1.00  0.00     0.036 A 
HETATM   10  O2  UNL     1      33.037   8.336  47.916  1.00  0.00     0.000 OA
HETATM   11  C9  UNL     1      32.706   9.176  47.362  1.00  0.00     0.034 A 
HETATM   12  C7  UNL     1      31.298   9.203  47.147  1.00  0.00    -0.053 C 
HETATM   13  C6  UNL     1      30.401   8.252  47.349  1.00  0.00     0.037 C 
HETATM   14  C8  UNL     1      30.775  10.615  46.988  1.00  0.00     0.046 C 
HETATM   15  C18 UNL     1      30.506   6.746  47.167  1.00  0.00     0.225 C 
HETATM   16  O5  UNL     1      30.318   6.071  48.400  1.00  0.00    -0.381 OA
BRANCH   6  17
HETATM   17  O3  UNL     1      34.996   5.470  48.705  1.00  0.00    -0.229 OA
BRANCH  17  18
HETATM   18  O4  UNL     1      35.452   4.805  49.725  1.00  0.00    -0.250 OA
HETATM   19  H17 UNL     1      34.999   3.953  49.885  1.00  0.00     0.253 HD
ENDBRANCH  17  18
ENDBRANCH   6  17
BRANCH  13  20
HETATM   20  N1  UNL     1      29.008   8.440  47.464  1.00  0.00    -0.356 N 
BRANCH  20  21
HETATM   21  C3  UNL     1      28.324   8.077  46.239  1.00  0.00     0.087 C 
HETATM   22  C2  UNL     1      27.651   8.861  45.414  1.00  0.00    -0.014 C 
HETATM   23  C1  UNL     1      26.929   8.521  44.136  1.00  0.00     0.037 C 
ENDBRANCH  20  21
BRANCH  20  24
HETATM   24  C4  UNL     1      28.072   8.873  48.482  1.00  0.00     0.154 C 
BRANCH  24  25
HETATM   25  C5  UNL     1      28.640   9.304  49.775  1.00  0.00     0.184 C 
BRANCH  25  26
HETATM   26  O1  UNL     1      27.796   9.476  50.829  1.00  0.00    -0.399 OA
HETATM   27  H10 UNL     1      27.133  10.204  50.722  1.00  0.00     0.209 HD
ENDBRANCH  25  26
ENDBRANCH  24  25
ENDBRANCH  20  24
ENDBRANCH  13  20
ENDBRANCH   1   4
TORSDOF 8
ENDMDL
MODEL 7
REMARK VINA RESULT:      -6.1      7.422      9.517
REMARK  8 active torsions:
REMARK  status: ('A' for Active; 'I' for Inactive)
REMARK    1  A    between atoms: C3_3  and  N1_4 
REMARK    2  A    between atoms: N1_4  and  C4_5 
REMARK    3  A    between atoms: N1_4  and  C6_8 
REMARK    4  A    between atoms: C4_5  and  C5_6 
REMARK    5  A    between atoms: C5_6  and  O1_7 
REMARK    6  A    between atoms: C12_15  and  O3_16 
REMARK    7  A    between atoms: O3_16  and  O4_17 
REMARK    8  A    between atoms: C14_19  and  C15_20 
ROOT
HETATM    1  C15 UNL     1      28.578   5.852  48.202  1.00  0.00     0.038 C 
HETATM    2  C16 UNL     1      27.649   5.126  48.680  1.00  0.00     0.223 C 
HETATM    3 CL1  UNL     1      26.479   3.937  49.348  1.00  0.00    -0.257 Cl
ENDROOT
BRANCH   1   4
HETATM    4  C14 UNL     1      29.866   5.231  47.922  1.00  0.00     0.005 C 
HETATM    5  C13 UNL     1      30.972   5.894  48.286  1.00  0.00    -0.021 C 
HETATM    6  C12 UNL     1      32.175   5.162  47.955  1.00  0.00     0.221 C 
HETATM    7  C17 UNL     1      31.373   7.257  48.734  1.00  0.00     0.205 C 
HETATM    8  C11 UNL     1      32.792   5.782  46.700  1.00  0.00    -0.033 A 
HETATM    9  C10 UNL     1      33.336   6.535  45.502  1.00  0.00     0.036 A 
HETATM   10  O2  UNL     1      32.661   6.978  46.343  1.00  0.00     0.000 OA
HETATM   11  C9  UNL     1      32.762   7.691  45.566  1.00  0.00     0.034 A 
HETATM   12  C7  UNL     1      32.038   8.897  45.794  1.00  0.00    -0.053 C 
HETATM   13  C6  UNL     1      31.117   9.160  46.707  1.00  0.00     0.037 C 
HETATM   14  C8  UNL     1      32.677  10.083  45.104  1.00  0.00     0.046 C 
HETATM   15  C18 UNL     1      30.031   8.272  47.294  1.00  0.00     0.225 C 
HETATM   16  O5  UNL     1      30.214   8.100  48.690  1.00  0.00    -0.381 OA
BRANCH   6  17
HETATM   17  O3  UNL     1      32.031   3.818  47.856  1.00  0.00    -0.229 OA
BRANCH  17  18
HETATM   18  O4  UNL     1      32.812   3.076  48.583  1.00  0.00    -0.250 OA
HETATM   19  H17 UNL     1      33.584   2.713  48.104  1.00  0.00     0.253 HD
ENDBRANCH  17  18
ENDBRANCH   6  17
BRANCH  13  20
HETATM   20  N1  UNL     1      30.703  10.444  47.117  1.00  0.00    -0.356 N 
BRANCH  20  21
HETATM   21  C3  UNL     1      29.417  10.792  46.545  1.00  0.00     0.087 C 
HETATM   22  C2  UNL     1      29.170  11.540  45.484  1.00  0.00    -0.014 C 
HETATM   23  C1  UNL     1      27.852  11.922  44.861  1.00  0.00     0.037 C 
ENDBRANCH  20  21
BRANCH  20  24
HETATM   24  C4  UNL     1      31.201  11.500  47.975  1.00  0.00     0.154 C 
BRANCH  24  25
HETATM   25  C5  UNL     1      30.588  11.620  49.314  1.00  0.00     0.184 C 
BRANCH  25  26
HETATM   26  O1  UNL     1      30.532  10.512  50.103  1.00  0.00    -0.399 OA
HETATM   27  H10 UNL     1      30.617   9.650  49.624  1.00  0.00     0.209 HD
ENDBRANCH  25  26
ENDBRANCH  24  25
ENDBRANCH  20  24
ENDBRANCH  13  20
ENDBRANCH   1   4
TORSDOF 8
ENDMDL
MODEL 8
REMARK VINA RESULT:      -6.1      3.445      6.154
REMARK  8 active torsions:
REMARK  status: ('A' for Active; 'I' for Inactive)
REMARK    1  A    between atoms: C3_3  and  N1_4 
REMARK    2  A    between atoms: N1_4  and  C4_5 
REMARK    3  A    between atoms: N1_4  and  C6_8 
REMARK    4  A    between atoms: C4_5  and  C5_6 
REMARK    5  A    between atoms: C5_6  and  O1_7 
REMARK    6  A    between atoms: C12_15  and  O3_16 
REMARK    7  A    between atoms: O3_16  and  O4_17 
REMARK    8  A    between atoms: C14_19  and  C15_20 
ROOT
HETATM    1  C15 UNL     1      22.004   1.906  47.946  1.00  0.00     0.038 C 
HETATM    2  C16 UNL     1      22.105   2.697  46.955  1.00  0.00     0.223 C 
HETATM    3 CL1  UNL     1      22.036   3.854  45.583  1.00  0.00    -0.257 Cl
ENDROOT
BRANCH   1   4
HETATM    4  C14 UNL     1      20.702   1.756  48.582  1.00  0.00     0.005 C 
HETATM    5  C13 UNL     1      20.520   2.328  49.780  1.00  0.00    -0.021 C 
HETATM    6  C12 UNL     1      19.185   2.106  50.289  1.00  0.00     0.221 C 
HETATM    7  C17 UNL     1      21.329   2.945  50.868  1.00  0.00     0.205 C 
HETATM    8  C11 UNL     1      19.246   1.009  51.353  1.00  0.00    -0.033 A 
HETATM    9  C10 UNL     1      19.457  -0.030  52.436  1.00  0.00     0.036 A 
HETATM   10  O2  UNL     1      20.246   0.742  52.063  1.00  0.00     0.000 OA
HETATM   11  C9  UNL     1      20.716   0.053  52.715  1.00  0.00     0.034 A 
HETATM   12  C7  UNL     1      22.112   0.282  52.885  1.00  0.00    -0.053 C 
HETATM   13  C6  UNL     1      22.919   1.077  52.201  1.00  0.00     0.037 C 
HETATM   14  C8  UNL     1      22.608  -0.205  54.229  1.00  0.00     0.046 C 
HETATM   15  C18 UNL     1      22.934   1.426  50.721  1.00  0.00     0.225 C 
HETATM   16  O5  UNL     1      22.715   2.813  50.524  1.00  0.00    -0.381 OA
BRANCH   6  17
HETATM   17  O3  UNL     1      18.235   1.870  49.351  1.00  0.00    -0.229 OA
BRANCH  17  18
HETATM   18  O4  UNL     1      17.642   0.714  49.376  1.00  0.00    -0.250 OA
HETATM   19  H17 UNL     1      18.238  -0.048  49.230  1.00  0.00     0.253 HD
ENDBRANCH  17  18
ENDBRANCH   6  17
BRANCH  13  20
HETATM   20  N1  UNL     1      24.183   1.535  52.626  1.00  0.00    -0.356 N 
BRANCH  20  21
HETATM   21  C3  UNL     1      25.234   0.610  52.248  1.00  0.00     0.087 C 
HETATM   22  C2  UNL     1      26.141   0.042  53.024  1.00  0.00    -0.014 C 
HETATM   23  C1  UNL     1      27.245  -0.920  52.669  1.00  0.00     0.037 C 
ENDBRANCH  20  21
BRANCH  20  24
HETATM   24  C4  UNL     1      24.721   2.691  53.314  1.00  0.00     0.154 C 
BRANCH  24  25
HETATM   25  C5  UNL     1      23.906   3.922  53.293  1.00  0.00     0.184 C 
BRANCH  25  26
HETATM   26  O1  UNL     1      24.097   4.809  52.278  1.00  0.00    -0.399 OA
HETATM   27  H10 UNL     1      24.480   4.424  51.450  1.00  0.00     0.209 HD
ENDBRANCH  25  26
ENDBRANCH  24  25
ENDBRANCH  20  24
ENDBRANCH  13  20
ENDBRANCH   1   4
TORSDOF 8
ENDMDL
MODEL 9
REMARK VINA RESULT:      -6.0      2.669      4.526
REMARK  8 active torsions:
REMARK  status: ('A' for Active; 'I' for Inactive)
REMARK    1  A    between atoms: C3_3  and  N1_4 
REMARK    2  A    between atoms: N1_4  and  C4_5 
REMARK    3  A    between atoms: N1_4  and  C6_8 
REMARK    4  A    between atoms: C4_5  and  C5_6 
REMARK    5  A    between atoms: C5_6  and  O1_7 
REMARK    6  A    between atoms: C12_15  and  O3_16 
REMARK    7  A    between atoms: O3_16  and  O4_17 
REMARK    8  A    between atoms: C14_19  and  C15_20 
ROOT
HETATM    1  C15 UNL     1      24.884   1.200  52.713  1.00  0.00     0.038 C 
HETATM    2  C16 UNL     1      25.736   0.261  52.608  1.00  0.00     0.223 C 
HETATM    3 CL1  UNL     1      26.776  -1.200  52.510  1.00  0.00    -0.257 Cl
ENDROOT
BRANCH   1   4
HETATM    4  C14 UNL     1      23.515   0.855  53.075  1.00  0.00     0.005 C 
HETATM    5  C13 UNL     1      22.603   0.803  52.094  1.00  0.00    -0.021 C 
HETATM    6  C12 UNL     1      21.293   0.443  52.592  1.00  0.00     0.221 C 
HETATM    7  C17 UNL     1      22.455   1.213  50.670  1.00  0.00     0.205 C 
HETATM    8  C11 UNL     1      20.438   1.710  52.672  1.00  0.00    -0.033 A 
HETATM    9  C10 UNL     1      19.681   3.022  52.630  1.00  0.00     0.036 A 
HETATM   10  O2  UNL     1      20.584   2.729  51.955  1.00  0.00     0.000 OA
HETATM   11  C9  UNL     1      20.356   3.753  51.806  1.00  0.00     0.034 A 
HETATM   12  C7  UNL     1      21.222   4.407  50.883  1.00  0.00    -0.053 C 
HETATM   13  C6  UNL     1      22.364   3.985  50.364  1.00  0.00     0.037 C 
HETATM   14  C8  UNL     1      20.541   5.567  50.189  1.00  0.00     0.046 C 
HETATM   15  C18 UNL     1      23.477   3.152  50.980  1.00  0.00     0.225 C 
HETATM   16  O5  UNL     1      23.638   1.927  50.286  1.00  0.00    -0.381 OA
BRANCH   6  17
HETATM   17  O3  UNL     1      21.283  -0.266  53.747  1.00  0.00    -0.229 OA
BRANCH  17  18
HETATM   18  O4  UNL     1      20.497   0.146  54.697  1.00  0.00    -0.250 OA
HETATM   19  H17 UNL     1      19.545   0.121  54.472  1.00  0.00     0.253 HD
ENDBRANCH  17  18
ENDBRANCH   6  17
BRANCH  13  20
HETATM   20  N1  UNL     1      22.984   4.499  49.206  1.00  0.00    -0.356 N 
BRANCH  20  21
HETATM   21  C3  UNL     1      24.144   5.302  49.541  1.00  0.00     0.087 C 
HETATM   22  C2  UNL     1      25.196   5.573  48.788  1.00  0.00    -0.014 C 
HETATM   23  C1  UNL     1      26.416   6.401  49.099  1.00  0.00     0.037 C 
ENDBRANCH  20  21
BRANCH  20  24
HETATM   24  C4  UNL     1      22.794   4.420  47.772  1.00  0.00     0.154 C 
BRANCH  24  25
HETATM   25  C5  UNL     1      22.054   3.250  47.258  1.00  0.00     0.184 C 
BRANCH  25  26
HETATM   26  O1  UNL     1      22.631   2.021  47.360  1.00  0.00    -0.399 OA
HETATM   27  H10 UNL     1      23.346   1.948  48.041  1.00  0.00     0.209 HD
ENDBRANCH  25  26
ENDBRANCH  24  25
ENDBRANCH  20  24
ENDBRANCH  13  20
ENDBRANCH   1   4
TORSDOF 8
ENDMDL
