MODEL 1
REMARK VINA RESULT:      -7.6      0.000      0.000
REMARK  2 active torsions:
REMARK  status: ('A' for Active; 'I' for Inactive)
REMARK    1  A    between atoms: C3_5  and  C5_7 
REMARK       I    between atoms: C5_7  and  N2_9 
REMARK    2  A    between atoms: N2_9  and  C6_10 
ROOT
HETATM    1  C1  UNL     1      22.957   2.340  50.803  1.00  0.00     0.156 C 
HETATM    2  N1  UNL     1      22.506   1.567  51.950  1.00  0.00    -0.348 N 
HETATM    3  C2  UNL     1      21.187   1.628  52.526  1.00  0.00     0.098 C 
HETATM    4  S1  UNL     1      20.076   2.781  52.343  1.00  0.00    -0.064 SA
HETATM    5  C3  UNL     1      21.023   0.393  53.350  1.00  0.00     0.103 C 
HETATM    6  C4  UNL     1      20.790   0.774  54.779  1.00  0.00     0.034 C 
HETATM    7  C12 UNL     1      22.316  -0.352  53.264  1.00  0.00     0.082 C 
HETATM    8  C13 UNL     1      22.813  -0.893  54.537  1.00  0.00    -0.018 C 
HETATM    9  C14 UNL     1      24.134  -1.008  54.776  1.00  0.00    -0.026 C 
HETATM   10  C15 UNL     1      25.117  -0.591  53.757  1.00  0.00     0.056 C 
HETATM   11  C16 UNL     1      24.586   0.530  52.914  1.00  0.00     0.003 C 
HETATM   12  C17 UNL     1      23.284   0.626  52.697  1.00  0.00     0.018 C 
ENDROOT
BRANCH   5  13
HETATM   13  C5  UNL     1      19.863  -0.350  52.798  1.00  0.00     0.238 C 
HETATM   14  O1  UNL     1      19.469  -0.504  51.594  1.00  0.00    -0.272 OA
HETATM   15  N2  UNL     1      19.009  -1.024  53.712  1.00  0.00    -0.326 N 
HETATM   16  H7  UNL     1      19.122  -1.048  54.748  1.00  0.00     0.169 HD
BRANCH  15  17
HETATM   17  C6  UNL     1      17.856  -1.781  53.362  1.00  0.00     0.034 A 
HETATM   18  C7  UNL     1      17.793  -3.115  53.755  1.00  0.00     0.029 A 
HETATM   19  C8  UNL     1      16.710  -3.914  53.454  1.00  0.00     0.002 A 
HETATM   20  C9  UNL     1      15.672  -3.315  52.731  1.00  0.00     0.000 A 
HETATM   21  C10 UNL     1      15.739  -2.008  52.349  1.00  0.00     0.002 A 
HETATM   22  C11 UNL     1      16.830  -1.226  52.658  1.00  0.00     0.029 A 
ENDBRANCH  15  17
ENDBRANCH   5  13
TORSDOF 2
ENDMDL
MODEL 2
REMARK VINA RESULT:      -7.5      6.256      8.565
REMARK  2 active torsions:
REMARK  status: ('A' for Active; 'I' for Inactive)
REMARK    1  A    between atoms: C3_5  and  C5_7 
REMARK       I    between atoms: C5_7  and  N2_9 
REMARK    2  A    between atoms: N2_9  and  C6_10 
ROOT
HETATM    1  C1  UNL     1      22.590   2.380  47.934  1.00  0.00     0.156 C 
HETATM    2  N1  UNL     1      23.249   3.195  48.945  1.00  0.00    -0.348 N 
HETATM    3  C2  UNL     1      23.577   2.759  50.279  1.00  0.00     0.098 C 
HETATM    4  S1  UNL     1      22.974   1.503  51.089  1.00  0.00    -0.064 SA
HETATM    5  C3  UNL     1      24.608   3.708  50.796  1.00  0.00     0.103 C 
HETATM    6  C4  UNL     1      24.083   4.399  52.016  1.00  0.00     0.034 C 
HETATM    7  C12 UNL     1      24.821   4.730  49.728  1.00  0.00     0.082 C 
HETATM    8  C13 UNL     1      24.893   6.121  50.197  1.00  0.00    -0.018 C 
HETATM    9  C14 UNL     1      24.462   7.140  49.426  1.00  0.00    -0.026 C 
HETATM   10  C15 UNL     1      23.906   6.877  48.084  1.00  0.00     0.056 C 
HETATM   11  C16 UNL     1      23.240   5.536  48.022  1.00  0.00     0.003 C 
HETATM   12  C17 UNL     1      23.677   4.552  48.792  1.00  0.00     0.018 C 
ENDROOT
BRANCH   5  13
HETATM   13  C5  UNL     1      25.817   2.908  51.113  1.00  0.00     0.238 C 
HETATM   14  O1  UNL     1      26.757   2.485  50.360  1.00  0.00    -0.272 OA
HETATM   15  N2  UNL     1      26.019   2.514  52.464  1.00  0.00    -0.326 N 
HETATM   16  H7  UNL     1      25.390   2.738  53.264  1.00  0.00     0.169 HD
BRANCH  15  17
HETATM   17  C6  UNL     1      27.117   1.749  52.946  1.00  0.00     0.034 A 
HETATM   18  C7  UNL     1      27.069   0.363  52.816  1.00  0.00     0.029 A 
HETATM   19  C8  UNL     1      28.093  -0.447  53.259  1.00  0.00     0.002 A 
HETATM   20  C9  UNL     1      29.188   0.194  53.847  1.00  0.00     0.000 A 
HETATM   21  C10 UNL     1      29.231   1.551  53.972  1.00  0.00     0.002 A 
HETATM   22  C11 UNL     1      28.197   2.345  53.525  1.00  0.00     0.029 A 
ENDBRANCH  15  17
ENDBRANCH   5  13
TORSDOF 2
ENDMDL
MODEL 3
REMARK VINA RESULT:      -7.5      2.940      6.289
REMARK  2 active torsions:
REMARK  status: ('A' for Active; 'I' for Inactive)
REMARK    1  A    between atoms: C3_5  and  C5_7 
REMARK       I    between atoms: C5_7  and  N2_9 
REMARK    2  A    between atoms: N2_9  and  C6_10 
ROOT
HETATM    1  C1  UNL     1      17.884  -0.858  53.149  1.00  0.00     0.156 C 
HETATM    2  N1  UNL     1      19.171  -0.317  52.739  1.00  0.00    -0.348 N 
HETATM    3  C2  UNL     1      19.400   0.485  51.564  1.00  0.00     0.098 C 
HETATM    4  S1  UNL     1      18.458   0.633  50.265  1.00  0.00    -0.064 SA
HETATM    5  C3  UNL     1      20.706   1.179  51.768  1.00  0.00     0.103 C 
HETATM    6  C4  UNL     1      21.662   0.769  50.692  1.00  0.00     0.034 C 
HETATM    7  C12 UNL     1      21.240   0.706  53.081  1.00  0.00     0.082 C 
HETATM    8  C13 UNL     1      22.670   0.367  53.090  1.00  0.00    -0.018 C 
HETATM    9  C14 UNL     1      23.152  -0.599  53.896  1.00  0.00    -0.026 C 
HETATM   10  C15 UNL     1      22.247  -1.343  54.794  1.00  0.00     0.056 C 
HETATM   11  C16 UNL     1      20.868  -1.446  54.215  1.00  0.00     0.003 C 
HETATM   12  C17 UNL     1      20.418  -0.487  53.422  1.00  0.00     0.018 C 
ENDROOT
BRANCH   5  13
HETATM   13  C5  UNL     1      20.438   2.638  51.718  1.00  0.00     0.238 C 
HETATM   14  O1  UNL     1      19.684   3.371  52.440  1.00  0.00    -0.272 OA
HETATM   15  N2  UNL     1      21.103   3.402  50.720  1.00  0.00    -0.326 N 
HETATM   16  H7  UNL     1      21.770   3.031  50.012  1.00  0.00     0.169 HD
BRANCH  15  17
HETATM   17  C6  UNL     1      20.965   4.805  50.526  1.00  0.00     0.034 A 
HETATM   18  C7  UNL     1      19.919   5.267  49.732  1.00  0.00     0.029 A 
HETATM   19  C8  UNL     1      19.720   6.611  49.497  1.00  0.00     0.002 A 
HETATM   20  C9  UNL     1      20.624   7.492  50.099  1.00  0.00     0.000 A 
HETATM   21  C10 UNL     1      21.647   7.035  50.876  1.00  0.00     0.002 A 
HETATM   22  C11 UNL     1      21.831   5.688  51.099  1.00  0.00     0.029 A 
ENDBRANCH  15  17
ENDBRANCH   5  13
TORSDOF 2
ENDMDL
MODEL 4
REMARK VINA RESULT:      -7.4     11.379     14.460
REMARK  2 active torsions:
REMARK  status: ('A' for Active; 'I' for Inactive)
REMARK    1  A    between atoms: C3_5  and  C5_7 
REMARK       I    between atoms: C5_7  and  N2_9 
REMARK    2  A    between atoms: N2_9  and  C6_10 
ROOT
HETATM    1  C1  UNL     1      33.292   7.060  43.925  1.00  0.00     0.156 C 
HETATM    2  N1  UNL     1      33.428   6.651  45.315  1.00  0.00    -0.348 N 
HETATM    3  C2  UNL     1      33.129   7.478  46.457  1.00  0.00     0.098 C 
HETATM    4  S1  UNL     1      32.985   9.082  46.510  1.00  0.00    -0.064 SA
HETATM    5  C3  UNL     1      32.972   6.557  47.622  1.00  0.00     0.103 C 
HETATM    6  C4  UNL     1      33.997   6.887  48.661  1.00  0.00     0.034 C 
HETATM    7  C12 UNL     1      33.240   5.177  47.114  1.00  0.00     0.082 C 
HETATM    8  C13 UNL     1      34.091   4.347  47.977  1.00  0.00    -0.018 C 
HETATM    9  C14 UNL     1      34.911   3.412  47.455  1.00  0.00    -0.026 C 
HETATM   10  C15 UNL     1      34.970   3.202  45.995  1.00  0.00     0.056 C 
HETATM   11  C16 UNL     1      34.681   4.470  45.249  1.00  0.00     0.003 C 
HETATM   12  C17 UNL     1      33.877   5.375  45.784  1.00  0.00     0.018 C 
ENDROOT
BRANCH   5  13
HETATM   13  C5  UNL     1      31.597   6.748  48.147  1.00  0.00     0.238 C 
HETATM   14  O1  UNL     1      31.185   7.304  49.220  1.00  0.00    -0.272 OA
HETATM   15  N2  UNL     1      30.514   6.252  47.372  1.00  0.00    -0.326 N 
HETATM   16  H7  UNL     1      30.594   5.761  46.457  1.00  0.00     0.169 HD
BRANCH  15  17
HETATM   17  C6  UNL     1      29.137   6.347  47.719  1.00  0.00     0.034 A 
HETATM   18  C7  UNL     1      28.543   5.274  48.379  1.00  0.00     0.029 A 
HETATM   19  C8  UNL     1      27.215   5.289  48.749  1.00  0.00     0.002 A 
HETATM   20  C9  UNL     1      26.490   6.442  48.428  1.00  0.00     0.000 A 
HETATM   21  C10 UNL     1      27.076   7.491  47.782  1.00  0.00     0.002 A 
HETATM   22  C11 UNL     1      28.405   7.456  47.420  1.00  0.00     0.029 A 
ENDBRANCH  15  17
ENDBRANCH   5  13
TORSDOF 2
ENDMDL
MODEL 5
REMARK VINA RESULT:      -7.0      2.708      3.908
REMARK  2 active torsions:
REMARK  status: ('A' for Active; 'I' for Inactive)
REMARK    1  A    between atoms: C3_5  and  C5_7 
REMARK       I    between atoms: C5_7  and  N2_9 
REMARK    2  A    between atoms: N2_9  and  C6_10 
ROOT
HETATM    1  C1  UNL     1      23.025   4.355  48.118  1.00  0.00     0.156 C 
HETATM    2  N1  UNL     1      23.180   4.090  49.540  1.00  0.00    -0.348 N 
HETATM    3  C2  UNL     1      22.265   4.514  50.569  1.00  0.00     0.098 C 
HETATM    4  S1  UNL     1      21.140   5.665  50.484  1.00  0.00    -0.064 SA
HETATM    5  C3  UNL     1      22.551   3.672  51.769  1.00  0.00     0.103 C 
HETATM    6  C4  UNL     1      22.975   4.550  52.905  1.00  0.00     0.034 C 
HETATM    7  C12 UNL     1      23.697   2.785  51.404  1.00  0.00     0.082 C 
HETATM    8  C13 UNL     1      24.742   2.658  52.429  1.00  0.00    -0.018 C 
HETATM    9  C14 UNL     1      26.032   2.464  52.088  1.00  0.00    -0.026 C 
HETATM   10  C15 UNL     1      26.424   2.374  50.668  1.00  0.00     0.056 C 
HETATM   11  C16 UNL     1      25.517   3.193  49.799  1.00  0.00     0.003 C 
HETATM   12  C17 UNL     1      24.255   3.373  50.156  1.00  0.00     0.018 C 
ENDROOT
BRANCH   5  13
HETATM   13  C5  UNL     1      21.303   2.939  52.096  1.00  0.00     0.238 C 
HETATM   14  O1  UNL     1      20.272   3.303  52.755  1.00  0.00    -0.272 OA
HETATM   15  N2  UNL     1      21.172   1.605  51.625  1.00  0.00    -0.326 N 
HETATM   16  H7  UNL     1      21.878   1.085  51.063  1.00  0.00     0.169 HD
BRANCH  15  17
HETATM   17  C6  UNL     1      20.050   0.758  51.843  1.00  0.00     0.034 A 
HETATM   18  C7  UNL     1      20.028  -0.035  52.988  1.00  0.00     0.029 A 
HETATM   19  C8  UNL     1      18.977  -0.881  53.270  1.00  0.00     0.002 A 
HETATM   20  C9  UNL     1      17.927  -0.904  52.345  1.00  0.00     0.000 A 
HETATM   21  C10 UNL     1      17.952  -0.126  51.225  1.00  0.00     0.002 A 
HETATM   22  C11 UNL     1      19.012   0.713  50.960  1.00  0.00     0.029 A 
ENDBRANCH  15  17
ENDBRANCH   5  13
TORSDOF 2
ENDMDL
MODEL 6
REMARK VINA RESULT:      -7.0      4.346      7.732
REMARK  2 active torsions:
REMARK  status: ('A' for Active; 'I' for Inactive)
REMARK    1  A    between atoms: C3_5  and  C5_7 
REMARK       I    between atoms: C5_7  and  N2_9 
REMARK    2  A    between atoms: N2_9  and  C6_10 
ROOT
HETATM    1  C1  UNL     1      22.409   6.429  50.902  1.00  0.00     0.156 C 
HETATM    2  N1  UNL     1      22.457   4.983  51.054  1.00  0.00    -0.348 N 
HETATM    3  C2  UNL     1      23.619   4.161  50.824  1.00  0.00     0.098 C 
HETATM    4  S1  UNL     1      24.949   4.534  49.995  1.00  0.00    -0.064 SA
HETATM    5  C3  UNL     1      23.365   2.860  51.512  1.00  0.00     0.103 C 
HETATM    6  C4  UNL     1      23.376   1.753  50.504  1.00  0.00     0.034 C 
HETATM    7  C12 UNL     1      21.995   2.950  52.101  1.00  0.00     0.082 C 
HETATM    8  C13 UNL     1      21.154   1.758  51.916  1.00  0.00    -0.018 C 
HETATM    9  C14 UNL     1      19.815   1.862  51.798  1.00  0.00    -0.026 C 
HETATM   10  C15 UNL     1      19.161   3.184  51.853  1.00  0.00     0.056 C 
HETATM   11  C16 UNL     1      20.062   4.261  51.327  1.00  0.00     0.003 C 
HETATM   12  C17 UNL     1      21.374   4.135  51.451  1.00  0.00     0.018 C 
ENDROOT
BRANCH   5  13
HETATM   13  C5  UNL     1      24.442   2.680  52.516  1.00  0.00     0.238 C 
HETATM   14  O1  UNL     1      24.631   3.245  53.645  1.00  0.00    -0.272 OA
HETATM   15  N2  UNL     1      25.465   1.735  52.233  1.00  0.00    -0.326 N 
HETATM   16  H7  UNL     1      25.531   1.147  51.375  1.00  0.00     0.169 HD
BRANCH  15  17
HETATM   17  C6  UNL     1      26.569   1.434  53.078  1.00  0.00     0.034 A 
HETATM   18  C7  UNL     1      27.726   2.200  52.957  1.00  0.00     0.029 A 
HETATM   19  C8  UNL     1      28.838   1.971  53.739  1.00  0.00     0.002 A 
HETATM   20  C9  UNL     1      28.747   0.926  54.665  1.00  0.00     0.000 A 
HETATM   21  C10 UNL     1      27.612   0.178  54.780  1.00  0.00     0.002 A 
HETATM   22  C11 UNL     1      26.511   0.422  53.989  1.00  0.00     0.029 A 
ENDBRANCH  15  17
ENDBRANCH   5  13
TORSDOF 2
ENDMDL
MODEL 7
REMARK VINA RESULT:      -7.0      5.266      7.695
REMARK  2 active torsions:
REMARK  status: ('A' for Active; 'I' for Inactive)
REMARK    1  A    between atoms: C3_5  and  C5_7 
REMARK       I    between atoms: C5_7  and  N2_9 
REMARK    2  A    between atoms: N2_9  and  C6_10 
ROOT
HETATM    1  C1  UNL     1      25.953   7.510  50.194  1.00  0.00     0.156 C 
HETATM    2  N1  UNL     1      24.908   6.499  50.138  1.00  0.00    -0.348 N 
HETATM    3  C2  UNL     1      25.126   5.089  49.931  1.00  0.00     0.098 C 
HETATM    4  S1  UNL     1      26.435   4.365  49.332  1.00  0.00    -0.064 SA
HETATM    5  C3  UNL     1      23.885   4.394  50.386  1.00  0.00     0.103 C 
HETATM    6  C4  UNL     1      23.281   3.650  49.237  1.00  0.00     0.034 C 
HETATM    7  C12 UNL     1      22.931   5.461  50.813  1.00  0.00     0.082 C 
HETATM    8  C13 UNL     1      21.545   5.282  50.356  1.00  0.00    -0.018 C 
HETATM    9  C14 UNL     1      20.756   6.343  50.094  1.00  0.00    -0.026 C 
HETATM   10  C15 UNL     1      21.270   7.716  50.263  1.00  0.00     0.056 C 
HETATM   11  C16 UNL     1      22.746   7.781  50.013  1.00  0.00     0.003 C 
HETATM   12  C17 UNL     1      23.501   6.725  50.273  1.00  0.00     0.018 C 
ENDROOT
BRANCH   5  13
HETATM   13  C5  UNL     1      24.279   3.467  51.476  1.00  0.00     0.238 C 
HETATM   14  O1  UNL     1      24.492   3.681  52.716  1.00  0.00    -0.272 OA
HETATM   15  N2  UNL     1      24.464   2.096  51.149  1.00  0.00    -0.326 N 
HETATM   16  H7  UNL     1      24.349   1.674  50.203  1.00  0.00     0.169 HD
BRANCH  15  17
HETATM   17  C6  UNL     1      24.840   1.072  52.062  1.00  0.00     0.034 A 
HETATM   18  C7  UNL     1      26.160   0.627  52.056  1.00  0.00     0.029 A 
HETATM   19  C8  UNL     1      26.601  -0.361  52.910  1.00  0.00     0.002 A 
HETATM   20  C9  UNL     1      25.653  -0.898  53.788  1.00  0.00     0.000 A 
HETATM   21  C10 UNL     1      24.361  -0.460  53.790  1.00  0.00     0.002 A 
HETATM   22  C11 UNL     1      23.939   0.529  52.928  1.00  0.00     0.029 A 
ENDBRANCH  15  17
ENDBRANCH   5  13
TORSDOF 2
ENDMDL
MODEL 8
REMARK VINA RESULT:      -7.0      4.882      7.539
REMARK  2 active torsions:
REMARK  status: ('A' for Active; 'I' for Inactive)
REMARK    1  A    between atoms: C3_5  and  C5_7 
REMARK       I    between atoms: C5_7  and  N2_9 
REMARK    2  A    between atoms: N2_9  and  C6_10 
ROOT
HETATM    1  C1  UNL     1      20.765   3.105  52.571  1.00  0.00     0.156 C 
HETATM    2  N1  UNL     1      21.770   3.255  51.529  1.00  0.00    -0.348 N 
HETATM    3  C2  UNL     1      23.044   3.909  51.690  1.00  0.00     0.098 C 
HETATM    4  S1  UNL     1      23.491   4.938  52.847  1.00  0.00    -0.064 SA
HETATM    5  C3  UNL     1      23.906   3.449  50.561  1.00  0.00     0.103 C 
HETATM    6  C4  UNL     1      24.313   4.627  49.732  1.00  0.00     0.034 C 
HETATM    7  C12 UNL     1      23.062   2.547  49.720  1.00  0.00     0.082 C 
HETATM    8  C13 UNL     1      23.173   2.758  48.270  1.00  0.00    -0.018 C 
HETATM    9  C14 UNL     1      22.126   2.535  47.451  1.00  0.00    -0.026 C 
HETATM   10  C15 UNL     1      20.836   2.070  47.999  1.00  0.00     0.056 C 
HETATM   11  C16 UNL     1      20.623   2.571  49.395  1.00  0.00     0.003 C 
HETATM   12  C17 UNL     1      21.668   2.788  50.179  1.00  0.00     0.018 C 
ENDROOT
BRANCH   5  13
HETATM   13  C5  UNL     1      25.089   2.782  51.159  1.00  0.00     0.238 C 
HETATM   14  O1  UNL     1      26.333   3.054  51.069  1.00  0.00    -0.272 OA
HETATM   15  N2  UNL     1      24.867   1.643  51.980  1.00  0.00    -0.326 N 
HETATM   16  H7  UNL     1      23.939   1.226  52.205  1.00  0.00     0.169 HD
BRANCH  15  17
HETATM   17  C6  UNL     1      25.878   0.883  52.630  1.00  0.00     0.034 A 
HETATM   18  C7  UNL     1      26.243   1.234  53.928  1.00  0.00     0.029 A 
HETATM   19  C8  UNL     1      27.214   0.547  54.624  1.00  0.00     0.002 A 
HETATM   20  C9  UNL     1      27.818  -0.527  53.961  1.00  0.00     0.000 A 
HETATM   21  C10 UNL     1      27.458  -0.868  52.691  1.00  0.00     0.002 A 
HETATM   22  C11 UNL     1      26.485  -0.168  52.010  1.00  0.00     0.029 A 
ENDBRANCH  15  17
ENDBRANCH   5  13
TORSDOF 2
ENDMDL
MODEL 9
REMARK VINA RESULT:      -6.9      5.519      8.184
REMARK  2 active torsions:
REMARK  status: ('A' for Active; 'I' for Inactive)
REMARK    1  A    between atoms: C3_5  and  C5_7 
REMARK       I    between atoms: C5_7  and  N2_9 
REMARK    2  A    between atoms: N2_9  and  C6_10 
ROOT
HETATM    1  C1  UNL     1      21.977   5.772  46.989  1.00  0.00     0.156 C 
HETATM    2  N1  UNL     1      22.922   5.846  48.093  1.00  0.00    -0.348 N 
HETATM    3  C2  UNL     1      22.710   5.295  49.407  1.00  0.00     0.098 C 
HETATM    4  S1  UNL     1      21.315   4.858  50.087  1.00  0.00    -0.064 SA
HETATM    5  C3  UNL     1      24.053   5.196  50.052  1.00  0.00     0.103 C 
HETATM    6  C4  UNL     1      24.078   6.040  51.287  1.00  0.00     0.034 C 
HETATM    7  C12 UNL     1      25.036   5.757  49.076  1.00  0.00     0.082 C 
HETATM    8  C13 UNL     1      26.045   6.658  49.651  1.00  0.00    -0.018 C 
HETATM    9  C14 UNL     1      26.555   7.680  48.934  1.00  0.00    -0.026 C 
HETATM   10  C15 UNL     1      26.109   7.915  47.547  1.00  0.00     0.056 C 
HETATM   11  C16 UNL     1      24.691   7.474  47.348  1.00  0.00     0.003 C 
HETATM   12  C17 UNL     1      24.210   6.472  48.066  1.00  0.00     0.018 C 
ENDROOT
BRANCH   5  13
HETATM   13  C5  UNL     1      24.277   3.766  50.377  1.00  0.00     0.238 C 
HETATM   14  O1  UNL     1      23.893   2.705  49.779  1.00  0.00    -0.272 OA
HETATM   15  N2  UNL     1      25.040   3.458  51.536  1.00  0.00    -0.326 N 
HETATM   16  H7  UNL     1      25.463   4.152  52.188  1.00  0.00     0.169 HD
BRANCH  15  17
HETATM   17  C6  UNL     1      25.352   2.149  51.997  1.00  0.00     0.034 A 
HETATM   18  C7  UNL     1      24.452   1.513  52.849  1.00  0.00     0.029 A 
HETATM   19  C8  UNL     1      24.683   0.245  53.338  1.00  0.00     0.002 A 
HETATM   20  C9  UNL     1      25.871  -0.375  52.935  1.00  0.00     0.000 A 
HETATM   21  C10 UNL     1      26.749   0.251  52.100  1.00  0.00     0.002 A 
HETATM   22  C11 UNL     1      26.501   1.520  51.622  1.00  0.00     0.029 A 
ENDBRANCH  15  17
ENDBRANCH   5  13
TORSDOF 2
ENDMDL
