MODEL 1
REMARK VINA RESULT:      -8.6      0.000      0.000
REMARK  2 active torsions:
REMARK  status: ('A' for Active; 'I' for Inactive)
REMARK    1  A    between atoms: C7_7  and  N1_8 
REMARK    2  A    between atoms: N1_8  and  C8_9 
ROOT
HETATM    1  C1  UNL     1      17.829   0.016  51.752  1.00  0.00     0.018 C 
HETATM    2  C2  UNL     1      18.900  -0.108  52.326  1.00  0.00    -0.078 C 
HETATM    3  C3  UNL     1      20.154  -0.242  53.024  1.00  0.00     0.019 A 
HETATM    4  C4  UNL     1      20.313  -1.352  53.835  1.00  0.00     0.021 A 
HETATM    5  C5  UNL     1      21.506  -1.541  54.543  1.00  0.00     0.004 A 
HETATM    6  C6  UNL     1      22.536  -0.630  54.447  1.00  0.00     0.029 A 
HETATM    7  C7  UNL     1      22.385   0.468  53.647  1.00  0.00     0.035 A 
HETATM    8  C16 UNL     1      21.190   0.660  52.936  1.00  0.00     0.050 A 
ENDROOT
BRANCH   7   9
HETATM    9  N1  UNL     1      23.251   1.560  53.363  1.00  0.00    -0.341 N 
HETATM   10  H5  UNL     1      23.092   2.583  53.244  1.00  0.00     0.167 HD
BRANCH   9  11
HETATM   11  C8  UNL     1      24.669   1.321  53.150  1.00  0.00     0.133 C 
HETATM   12  N2  UNL     1      25.195   2.335  52.441  1.00  0.00    -0.223 NA
HETATM   13  C9  UNL     1      26.571   2.329  51.878  1.00  0.00     0.217 A 
HETATM   14  N3  UNL     1      27.128   3.257  51.083  1.00  0.00    -0.210 NA
HETATM   15  N4  UNL     1      26.503   2.244  50.401  1.00  0.00    -0.210 NA
HETATM   16  C10 UNL     1      27.281   1.122  52.526  1.00  0.00     0.004 C 
HETATM   17  H6  UNL     1      26.750   4.199  50.998  1.00  0.00     0.145 HD
HETATM   18  H7  UNL     1      25.612   2.332  49.915  1.00  0.00     0.145 HD
HETATM   19  C11 UNL     1      27.982   1.197  53.675  1.00  0.00     0.024 C 
HETATM   20  C15 UNL     1      27.096  -0.275  51.934  1.00  0.00     0.069 C 
HETATM   21 CL1  UNL     1      29.345   1.584  54.755  1.00  0.00    -0.088 Cl
HETATM   22  C12 UNL     1      26.860   0.541  54.516  1.00  0.00     0.093 C 
HETATM   23  C13 UNL     1      25.742   0.299  53.464  1.00  0.00    -0.011 C 
HETATM   24  C14 UNL     1      25.974  -0.893  52.786  1.00  0.00    -0.011 C 
ENDBRANCH   9  11
ENDBRANCH   7   9
TORSDOF 2
ENDMDL
MODEL 2
REMARK VINA RESULT:      -8.4      3.547      5.263
REMARK  2 active torsions:
REMARK  status: ('A' for Active; 'I' for Inactive)
REMARK    1  A    between atoms: C7_7  and  N1_8 
REMARK    2  A    between atoms: N1_8  and  C8_9 
ROOT
HETATM    1  C1  UNL     1      27.202   0.139  52.679  1.00  0.00     0.018 C 
HETATM    2  C2  UNL     1      25.994   0.280  52.787  1.00  0.00    -0.078 C 
HETATM    3  C3  UNL     1      24.565   0.439  52.891  1.00  0.00     0.019 A 
HETATM    4  C4  UNL     1      23.838  -0.647  53.344  1.00  0.00     0.021 A 
HETATM    5  C5  UNL     1      22.446  -0.562  53.465  1.00  0.00     0.004 A 
HETATM    6  C6  UNL     1      21.779   0.599  53.135  1.00  0.00     0.029 A 
HETATM    7  C7  UNL     1      22.492   1.675  52.687  1.00  0.00     0.035 A 
HETATM    8  C16 UNL     1      23.888   1.592  52.565  1.00  0.00     0.050 A 
ENDROOT
BRANCH   7   9
HETATM    9  N1  UNL     1      22.087   2.974  52.272  1.00  0.00    -0.341 N 
HETATM   10  H5  UNL     1      21.259   3.567  52.492  1.00  0.00     0.167 HD
BRANCH   9  11
HETATM   11  C8  UNL     1      22.905   3.718  51.327  1.00  0.00     0.133 C 
HETATM   12  N2  UNL     1      23.404   4.813  51.928  1.00  0.00    -0.223 NA
HETATM   13  C9  UNL     1      24.123   5.898  51.211  1.00  0.00     0.217 A 
HETATM   14  N3  UNL     1      24.562   7.059  51.723  1.00  0.00    -0.210 NA
HETATM   15  N4  UNL     1      23.293   7.125  51.205  1.00  0.00    -0.210 NA
HETATM   16  C10 UNL     1      24.407   5.348  49.797  1.00  0.00     0.004 C 
HETATM   17  H6  UNL     1      24.679   7.202  52.725  1.00  0.00     0.145 HD
HETATM   18  H7  UNL     1      22.439   7.178  51.758  1.00  0.00     0.145 HD
HETATM   19  C11 UNL     1      25.530   4.678  49.468  1.00  0.00     0.024 C 
HETATM   20  C15 UNL     1      23.326   5.432  48.719  1.00  0.00     0.069 C 
HETATM   21 CL1  UNL     1      27.246   4.435  49.059  1.00  0.00    -0.088 Cl
HETATM   22  C12 UNL     1      24.828   3.298  49.483  1.00  0.00     0.093 C 
HETATM   23  C13 UNL     1      23.372   3.660  49.887  1.00  0.00    -0.011 C 
HETATM   24  C14 UNL     1      22.648   4.052  48.766  1.00  0.00    -0.011 C 
ENDBRANCH   9  11
ENDBRANCH   7   9
TORSDOF 2
ENDMDL
MODEL 3
REMARK VINA RESULT:      -8.2      3.899      5.323
REMARK  2 active torsions:
REMARK  status: ('A' for Active; 'I' for Inactive)
REMARK    1  A    between atoms: C7_7  and  N1_8 
REMARK    2  A    between atoms: N1_8  and  C8_9 
ROOT
HETATM    1  C1  UNL     1      21.718  -1.741  54.323  1.00  0.00     0.018 C 
HETATM    2  C2  UNL     1      22.542  -0.964  53.866  1.00  0.00    -0.078 C 
HETATM    3  C3  UNL     1      23.523  -0.042  53.349  1.00  0.00     0.019 A 
HETATM    4  C4  UNL     1      24.764  -0.557  53.020  1.00  0.00     0.021 A 
HETATM    5  C5  UNL     1      25.764   0.284  52.515  1.00  0.00     0.004 A 
HETATM    6  C6  UNL     1      25.530   1.632  52.341  1.00  0.00     0.029 A 
HETATM    7  C7  UNL     1      24.306   2.145  52.665  1.00  0.00     0.035 A 
HETATM    8  C16 UNL     1      23.302   1.304  53.171  1.00  0.00     0.050 A 
ENDROOT
BRANCH   7   9
HETATM    9  N1  UNL     1      23.786   3.469  52.604  1.00  0.00    -0.341 N 
HETATM   10  H5  UNL     1      23.190   4.030  53.248  1.00  0.00     0.167 HD
BRANCH   9  11
HETATM   11  C8  UNL     1      24.055   4.297  51.440  1.00  0.00     0.133 C 
HETATM   12  N2  UNL     1      24.094   5.590  51.807  1.00  0.00    -0.223 NA
HETATM   13  C9  UNL     1      24.156   6.724  50.848  1.00  0.00     0.217 A 
HETATM   14  N3  UNL     1      24.100   8.035  51.134  1.00  0.00    -0.210 NA
HETATM   15  N4  UNL     1      22.876   7.470  50.878  1.00  0.00    -0.210 NA
HETATM   16  C10 UNL     1      24.459   6.092  49.474  1.00  0.00     0.004 C 
HETATM   17  H6  UNL     1      24.276   8.395  52.070  1.00  0.00     0.145 HD
HETATM   18  H7  UNL     1      22.170   7.264  51.584  1.00  0.00     0.145 HD
HETATM   19  C11 UNL     1      25.707   5.902  48.998  1.00  0.00     0.024 C 
HETATM   20  C15 UNL     1      23.319   5.519  48.633  1.00  0.00     0.069 C 
HETATM   21 CL1  UNL     1      27.281   6.325  48.280  1.00  0.00    -0.088 Cl
HETATM   22  C12 UNL     1      25.697   4.384  49.302  1.00  0.00     0.093 C 
HETATM   23  C13 UNL     1      24.300   4.176  49.950  1.00  0.00    -0.011 C 
HETATM   24  C14 UNL     1      23.334   4.016  48.962  1.00  0.00    -0.011 C 
ENDBRANCH   9  11
ENDBRANCH   7   9
TORSDOF 2
ENDMDL
MODEL 4
REMARK VINA RESULT:      -8.0     10.761     12.347
REMARK  2 active torsions:
REMARK  status: ('A' for Active; 'I' for Inactive)
REMARK    1  A    between atoms: C7_7  and  N1_8 
REMARK    2  A    between atoms: N1_8  and  C8_9 
ROOT
HETATM    1  C1  UNL     1      32.002   0.251  46.615  1.00  0.00     0.018 C 
HETATM    2  C2  UNL     1      32.480   1.355  46.824  1.00  0.00    -0.078 C 
HETATM    3  C3  UNL     1      33.055   2.650  47.091  1.00  0.00     0.019 A 
HETATM    4  C4  UNL     1      34.319   2.898  46.589  1.00  0.00     0.021 A 
HETATM    5  C5  UNL     1      34.937   4.134  46.815  1.00  0.00     0.004 A 
HETATM    6  C6  UNL     1      34.300   5.119  47.540  1.00  0.00     0.029 A 
HETATM    7  C7  UNL     1      33.050   4.879  48.038  1.00  0.00     0.035 A 
HETATM    8  C16 UNL     1      32.428   3.641  47.813  1.00  0.00     0.050 A 
ENDROOT
BRANCH   7   9
HETATM    9  N1  UNL     1      32.169   5.683  48.814  1.00  0.00    -0.341 N 
HETATM   10  H5  UNL     1      31.671   5.528  49.716  1.00  0.00     0.167 HD
BRANCH   9  11
HETATM   11  C8  UNL     1      31.791   7.004  48.340  1.00  0.00     0.133 C 
HETATM   12  N2  UNL     1      31.482   7.787  49.389  1.00  0.00    -0.223 NA
HETATM   13  C9  UNL     1      30.871   9.137  49.267  1.00  0.00     0.217 A 
HETATM   14  N3  UNL     1      30.449   9.931  50.263  1.00  0.00    -0.210 NA
HETATM   15  N4  UNL     1      29.478   9.099  49.768  1.00  0.00    -0.210 NA
HETATM   16  C10 UNL     1      30.971   9.506  47.772  1.00  0.00     0.004 C 
HETATM   17  H6  UNL     1      30.748   9.800  51.228  1.00  0.00     0.145 HD
HETATM   18  H7  UNL     1      29.119   8.273  50.245  1.00  0.00     0.145 HD
HETATM   19  C11 UNL     1      32.016  10.165  47.234  1.00  0.00     0.024 C 
HETATM   20  C15 UNL     1      29.910   9.001  46.793  1.00  0.00     0.069 C 
HETATM   21 CL1  UNL     1      33.072  11.545  46.842  1.00  0.00    -0.088 Cl
HETATM   22  C12 UNL     1      32.620   8.889  46.598  1.00  0.00     0.093 C 
HETATM   23  C13 UNL     1      31.628   7.782  47.050  1.00  0.00    -0.011 C 
HETATM   24  C14 UNL     1      30.538   7.734  46.187  1.00  0.00    -0.011 C 
ENDBRANCH   9  11
ENDBRANCH   7   9
TORSDOF 2
ENDMDL
MODEL 5
REMARK VINA RESULT:      -8.0      3.098      4.031
REMARK  2 active torsions:
REMARK  status: ('A' for Active; 'I' for Inactive)
REMARK    1  A    between atoms: C7_7  and  N1_8 
REMARK    2  A    between atoms: N1_8  and  C8_9 
ROOT
HETATM    1  C1  UNL     1      18.252   0.209  51.021  1.00  0.00     0.018 C 
HETATM    2  C2  UNL     1      19.267   0.130  51.696  1.00  0.00    -0.078 C 
HETATM    3  C3  UNL     1      20.460   0.059  52.501  1.00  0.00     0.019 A 
HETATM    4  C4  UNL     1      20.326  -0.415  53.793  1.00  0.00     0.021 A 
HETATM    5  C5  UNL     1      21.445  -0.507  54.630  1.00  0.00     0.004 A 
HETATM    6  C6  UNL     1      22.692  -0.127  54.183  1.00  0.00     0.029 A 
HETATM    7  C7  UNL     1      22.831   0.342  52.908  1.00  0.00     0.035 A 
HETATM    8  C16 UNL     1      21.711   0.435  52.066  1.00  0.00     0.050 A 
ENDROOT
BRANCH   7   9
HETATM    9  N1  UNL     1      23.967   0.807  52.186  1.00  0.00    -0.341 N 
HETATM   10  H5  UNL     1      24.912   0.406  52.011  1.00  0.00     0.167 HD
BRANCH   9  11
HETATM   11  C8  UNL     1      23.926   2.107  51.537  1.00  0.00     0.133 C 
HETATM   12  N2  UNL     1      24.033   3.076  52.463  1.00  0.00    -0.223 NA
HETATM   13  C9  UNL     1      23.837   4.522  52.178  1.00  0.00     0.217 A 
HETATM   14  N3  UNL     1      23.831   5.531  53.064  1.00  0.00    -0.210 NA
HETATM   15  N4  UNL     1      22.592   4.992  52.829  1.00  0.00    -0.210 NA
HETATM   16  C10 UNL     1      23.803   4.643  50.641  1.00  0.00     0.004 C 
HETATM   17  H6  UNL     1      24.227   5.438  53.998  1.00  0.00     0.145 HD
HETATM   18  H7  UNL     1      22.085   4.391  53.478  1.00  0.00     0.145 HD
HETATM   19  C11 UNL     1      24.898   4.862  49.885  1.00  0.00     0.024 C 
HETATM   20  C15 UNL     1      22.500   4.378  49.886  1.00  0.00     0.069 C 
HETATM   21 CL1  UNL     1      26.239   5.774  49.148  1.00  0.00    -0.088 Cl
HETATM   22  C12 UNL     1      24.989   3.390  49.416  1.00  0.00     0.093 C 
HETATM   23  C13 UNL     1      23.798   2.722  50.158  1.00  0.00    -0.011 C 
HETATM   24  C14 UNL     1      22.621   2.910  49.442  1.00  0.00    -0.011 C 
ENDBRANCH   9  11
ENDBRANCH   7   9
TORSDOF 2
ENDMDL
MODEL 6
REMARK VINA RESULT:      -7.8      3.741      4.995
REMARK  2 active torsions:
REMARK  status: ('A' for Active; 'I' for Inactive)
REMARK    1  A    between atoms: C7_7  and  N1_8 
REMARK    2  A    between atoms: N1_8  and  C8_9 
ROOT
HETATM    1  C1  UNL     1      21.888  -0.872  54.890  1.00  0.00     0.018 C 
HETATM    2  C2  UNL     1      21.282  -0.211  54.060  1.00  0.00    -0.078 C 
HETATM    3  C3  UNL     1      20.584   0.563  53.064  1.00  0.00     0.019 A 
HETATM    4  C4  UNL     1      19.633  -0.094  52.303  1.00  0.00     0.021 A 
HETATM    5  C5  UNL     1      18.921   0.598  51.316  1.00  0.00     0.004 A 
HETATM    6  C6  UNL     1      19.155   1.938  51.086  1.00  0.00     0.029 A 
HETATM    7  C7  UNL     1      20.092   2.591  51.835  1.00  0.00     0.035 A 
HETATM    8  C16 UNL     1      20.808   1.900  52.825  1.00  0.00     0.050 A 
ENDROOT
BRANCH   7   9
HETATM    9  N1  UNL     1      20.547   3.939  51.819  1.00  0.00    -0.341 N 
HETATM   10  H5  UNL     1      20.158   4.827  52.201  1.00  0.00     0.167 HD
BRANCH   9  11
HETATM   11  C8  UNL     1      21.787   4.275  51.139  1.00  0.00     0.133 C 
HETATM   12  N2  UNL     1      22.490   5.144  51.887  1.00  0.00    -0.223 NA
HETATM   13  C9  UNL     1      23.712   5.846  51.415  1.00  0.00     0.217 A 
HETATM   14  N3  UNL     1      24.407   6.793  52.066  1.00  0.00    -0.210 NA
HETATM   15  N4  UNL     1      23.423   7.290  51.250  1.00  0.00    -0.210 NA
HETATM   16  C10 UNL     1      24.111   5.150  50.098  1.00  0.00     0.004 C 
HETATM   17  H6  UNL     1      24.319   6.940  53.070  1.00  0.00     0.145 HD
HETATM   18  H7  UNL     1      22.540   7.684  51.573  1.00  0.00     0.145 HD
HETATM   19  C11 UNL     1      24.951   4.097  50.034  1.00  0.00     0.024 C 
HETATM   20  C15 UNL     1      23.440   5.562  48.788  1.00  0.00     0.069 C 
HETATM   21 CL1  UNL     1      26.501   3.219  50.058  1.00  0.00    -0.088 Cl
HETATM   22  C12 UNL     1      23.810   3.074  49.819  1.00  0.00     0.093 C 
HETATM   23  C13 UNL     1      22.539   3.968  49.860  1.00  0.00    -0.011 C 
HETATM   24  C14 UNL     1      22.311   4.532  48.609  1.00  0.00    -0.011 C 
ENDBRANCH   9  11
ENDBRANCH   7   9
TORSDOF 2
ENDMDL
MODEL 7
REMARK VINA RESULT:      -7.7      9.402     11.790
REMARK  2 active torsions:
REMARK  status: ('A' for Active; 'I' for Inactive)
REMARK    1  A    between atoms: C7_7  and  N1_8 
REMARK    2  A    between atoms: N1_8  and  C8_9 
ROOT
HETATM    1  C1  UNL     1      32.622   1.829  47.087  1.00  0.00     0.018 C 
HETATM    2  C2  UNL     1      32.792   3.015  47.320  1.00  0.00    -0.078 C 
HETATM    3  C3  UNL     1      33.006   4.410  47.615  1.00  0.00     0.019 A 
HETATM    4  C4  UNL     1      34.118   5.013  47.055  1.00  0.00     0.021 A 
HETATM    5  C5  UNL     1      34.387   6.365  47.303  1.00  0.00     0.004 A 
HETATM    6  C6  UNL     1      33.553   7.114  48.106  1.00  0.00     0.029 A 
HETATM    7  C7  UNL     1      32.452   6.524  48.661  1.00  0.00     0.035 A 
HETATM    8  C16 UNL     1      32.181   5.169  48.414  1.00  0.00     0.050 A 
ENDROOT
BRANCH   7   9
HETATM    9  N1  UNL     1      31.437   7.030  49.520  1.00  0.00    -0.341 N 
HETATM   10  H5  UNL     1      31.369   7.142  50.554  1.00  0.00     0.167 HD
BRANCH   9  11
HETATM   11  C8  UNL     1      30.180   7.493  48.957  1.00  0.00     0.133 C 
HETATM   12  N2  UNL     1      29.886   8.709  49.451  1.00  0.00    -0.223 NA
HETATM   13  C9  UNL     1      28.586   9.398  49.243  1.00  0.00     0.217 A 
HETATM   14  N3  UNL     1      28.187  10.562  49.781  1.00  0.00    -0.210 NA
HETATM   15  N4  UNL     1      27.845   9.461  50.524  1.00  0.00    -0.210 NA
HETATM   16  C10 UNL     1      27.853   8.587  48.155  1.00  0.00     0.004 C 
HETATM   17  H6  UNL     1      28.844  11.228  50.184  1.00  0.00     0.145 HD
HETATM   18  H7  UNL     1      28.292   9.185  51.398  1.00  0.00     0.145 HD
HETATM   19  C11 UNL     1      27.957   8.843  46.835  1.00  0.00     0.024 C 
HETATM   20  C15 UNL     1      27.062   7.338  48.543  1.00  0.00     0.069 C 
HETATM   21 CL1  UNL     1      27.679   9.686  45.291  1.00  0.00    -0.088 Cl
HETATM   22  C12 UNL     1      28.915   7.654  46.580  1.00  0.00     0.093 C 
HETATM   23  C13 UNL     1      29.093   7.049  48.000  1.00  0.00    -0.011 C 
HETATM   24  C14 UNL     1      28.043   6.182  48.284  1.00  0.00    -0.011 C 
ENDBRANCH   9  11
ENDBRANCH   7   9
TORSDOF 2
ENDMDL
MODEL 8
REMARK VINA RESULT:      -7.1      4.697      6.527
REMARK  2 active torsions:
REMARK  status: ('A' for Active; 'I' for Inactive)
REMARK    1  A    between atoms: C7_7  and  N1_8 
REMARK    2  A    between atoms: N1_8  and  C8_9 
ROOT
HETATM    1  C1  UNL     1      26.750  -0.575  52.641  1.00  0.00     0.018 C 
HETATM    2  C2  UNL     1      25.803   0.194  52.581  1.00  0.00    -0.078 C 
HETATM    3  C3  UNL     1      24.686   1.101  52.486  1.00  0.00     0.019 A 
HETATM    4  C4  UNL     1      23.424   0.544  52.386  1.00  0.00     0.021 A 
HETATM    5  C5  UNL     1      22.296   1.368  52.288  1.00  0.00     0.004 A 
HETATM    6  C6  UNL     1      22.424   2.741  52.286  1.00  0.00     0.029 A 
HETATM    7  C7  UNL     1      23.669   3.297  52.384  1.00  0.00     0.035 A 
HETATM    8  C16 UNL     1      24.801   2.473  52.484  1.00  0.00     0.050 A 
ENDROOT
BRANCH   7   9
HETATM    9  N1  UNL     1      24.104   4.651  52.399  1.00  0.00    -0.341 N 
HETATM   10  H5  UNL     1      24.446   5.282  53.155  1.00  0.00     0.167 HD
BRANCH   9  11
HETATM   11  C8  UNL     1      24.091   5.427  51.169  1.00  0.00     0.133 C 
HETATM   12  N2  UNL     1      25.208   5.172  50.465  1.00  0.00    -0.223 NA
HETATM   13  C9  UNL     1      25.617   5.931  49.254  1.00  0.00     0.217 A 
HETATM   14  N3  UNL     1      26.758   5.798  48.558  1.00  0.00    -0.210 NA
HETATM   15  N4  UNL     1      26.822   6.737  49.556  1.00  0.00    -0.210 NA
HETATM   16  C10 UNL     1      24.394   6.786  48.864  1.00  0.00     0.004 C 
HETATM   17  H6  UNL     1      27.350   4.973  48.637  1.00  0.00     0.145 HD
HETATM   18  H7  UNL     1      27.320   6.619  50.438  1.00  0.00     0.145 HD
HETATM   19  C11 UNL     1      23.431   6.370  48.016  1.00  0.00     0.024 C 
HETATM   20  C15 UNL     1      24.156   8.129  49.554  1.00  0.00     0.069 C 
HETATM   21 CL1  UNL     1      22.664   5.967  46.460  1.00  0.00    -0.088 Cl
HETATM   22  C12 UNL     1      22.422   6.075  49.152  1.00  0.00     0.093 C 
HETATM   23  C13 UNL     1      23.232   6.431  50.429  1.00  0.00    -0.011 C 
HETATM   24  C14 UNL     1      23.157   7.799  50.676  1.00  0.00    -0.011 C 
ENDBRANCH   9  11
ENDBRANCH   7   9
TORSDOF 2
ENDMDL
MODEL 9
REMARK VINA RESULT:      -7.1      6.300      8.603
REMARK  2 active torsions:
REMARK  status: ('A' for Active; 'I' for Inactive)
REMARK    1  A    between atoms: C7_7  and  N1_8 
REMARK    2  A    between atoms: N1_8  and  C8_9 
ROOT
HETATM    1  C1  UNL     1      22.820   2.361  49.854  1.00  0.00     0.018 C 
HETATM    2  C2  UNL     1      23.583   3.279  49.595  1.00  0.00    -0.078 C 
HETATM    3  C3  UNL     1      24.479   4.359  49.265  1.00  0.00     0.019 A 
HETATM    4  C4  UNL     1      23.923   5.613  49.088  1.00  0.00     0.021 A 
HETATM    5  C5  UNL     1      24.738   6.705  48.763  1.00  0.00     0.004 A 
HETATM    6  C6  UNL     1      26.099   6.549  48.613  1.00  0.00     0.029 A 
HETATM    7  C7  UNL     1      26.654   5.313  48.787  1.00  0.00     0.035 A 
HETATM    8  C16 UNL     1      25.840   4.216  49.113  1.00  0.00     0.050 A 
ENDROOT
BRANCH   7   9
HETATM    9  N1  UNL     1      27.997   4.854  48.690  1.00  0.00    -0.341 N 
HETATM   10  H5  UNL     1      28.433   3.909  48.740  1.00  0.00     0.167 HD
BRANCH   9  11
HETATM   11  C8  UNL     1      29.076   5.812  48.509  1.00  0.00     0.133 C 
HETATM   12  N2  UNL     1      30.247   5.237  48.836  1.00  0.00    -0.223 NA
HETATM   13  C9  UNL     1      31.531   5.978  48.954  1.00  0.00     0.217 A 
HETATM   14  N3  UNL     1      32.713   5.494  49.368  1.00  0.00    -0.210 NA
HETATM   15  N4  UNL     1      31.948   6.026  50.375  1.00  0.00    -0.210 NA
HETATM   16  C10 UNL     1      31.265   7.372  48.350  1.00  0.00     0.004 C 
HETATM   17  H6  UNL     1      32.914   4.496  49.393  1.00  0.00     0.145 HD
HETATM   18  H7  UNL     1      31.454   5.482  51.081  1.00  0.00     0.145 HD
HETATM   19  C11 UNL     1      31.458   7.672  47.050  1.00  0.00     0.024 C 
HETATM   20  C15 UNL     1      30.625   8.462  49.210  1.00  0.00     0.069 C 
HETATM   21 CL1  UNL     1      32.357   8.059  45.562  1.00  0.00    -0.088 Cl
HETATM   22  C12 UNL     1      29.948   7.625  46.713  1.00  0.00     0.093 C 
HETATM   23  C13 UNL     1      29.307   7.245  48.076  1.00  0.00    -0.011 C 
HETATM   24  C14 UNL     1      29.130   8.384  48.856  1.00  0.00    -0.011 C 
ENDBRANCH   9  11
ENDBRANCH   7   9
TORSDOF 2
ENDMDL
