MODEL 1
REMARK VINA RESULT:      -8.1      0.000      0.000
REMARK  7 active torsions:
REMARK  status: ('A' for Active; 'I' for Inactive)
REMARK    1  A    between atoms: O1_2  and  C2_3 
REMARK    2  A    between atoms: C6_9  and  C7_10 
REMARK    3  A    between atoms: C14_19  and  O2_20 
REMARK    4  A    between atoms: O2_20  and  C15_21 
REMARK    5  A    between atoms: C15_21  and  C16_22 
REMARK    6  A    between atoms: C16_22  and  C17_23 
REMARK    7  A    between atoms: C17_23  and  N3_24 
ROOT
HETATM    1  C2  UNL     1      20.767   0.797  52.489  1.00  0.00     0.103 A 
HETATM    2  C3  UNL     1      20.795   0.002  53.614  1.00  0.00     0.072 A 
HETATM    3  C4  UNL     1      22.007  -0.392  54.118  1.00  0.00     0.073 A 
HETATM    4  N1  UNL     1      22.096  -1.170  55.216  1.00  0.00    -0.241 NA
HETATM    5  C5  UNL     1      23.276  -1.558  55.713  1.00  0.00     0.234 A 
HETATM    6  N2  UNL     1      24.404  -1.162  55.101  1.00  0.00    -0.240 NA
HETATM    7  C6  UNL     1      24.368  -0.374  53.988  1.00  0.00     0.082 A 
HETATM    8  C12 UNL     1      23.154   0.027  53.473  1.00  0.00     0.025 A 
HETATM    9  C13 UNL     1      23.156   0.821  52.347  1.00  0.00     0.055 A 
HETATM   10  C14 UNL     1      21.922   1.208  51.855  1.00  0.00     0.103 A 
ENDROOT
BRANCH  10  11
HETATM   11  O2  UNL     1      21.783   1.999  50.740  1.00  0.00    -0.348 OA
BRANCH  11  12
HETATM   12  C15 UNL     1      22.283   1.744  49.463  1.00  0.00     0.177 C 
BRANCH  12  13
HETATM   13  C16 UNL     1      22.905   2.994  48.841  1.00  0.00     0.057 C 
BRANCH  13  14
HETATM   14  C17 UNL     1      24.108   3.369  49.705  1.00  0.00     0.274 C 
BRANCH  14  15
HETATM   15  N3  UNL     1      23.958   4.675  50.270  1.00  0.00     0.092 N 
HETATM   16  C18 UNL     1      23.838   4.697  51.706  1.00  0.00     0.298 C 
HETATM   17  C19 UNL     1      22.446   4.897  52.213  1.00  0.00     0.198 C 
HETATM   18  O3  UNL     1      21.704   5.821  51.520  1.00  0.00    -0.388 OA
HETATM   19  C20 UNL     1      22.385   6.517  50.551  1.00  0.00     0.198 C 
HETATM   20  C21 UNL     1      22.980   5.492  49.610  1.00  0.00     0.298 C 
ENDBRANCH  14  15
ENDBRANCH  13  14
ENDBRANCH  12  13
ENDBRANCH  11  12
ENDBRANCH  10  11
BRANCH   1  21
HETATM   21  O1  UNL     1      19.519   1.183  51.997  1.00  0.00    -0.353 OA
HETATM   22  C1  UNL     1      18.671   0.194  51.440  1.00  0.00     0.210 C 
ENDBRANCH   1  21
BRANCH   7  23
HETATM   23  C7  UNL     1      25.666  -0.008  53.408  1.00  0.00     0.010 C 
HETATM   24  C8  UNL     1      26.592  -0.488  52.600  1.00  0.00     0.031 C 
HETATM   25  C9  UNL     1      27.817  -0.113  52.928  1.00  0.00     0.150 C 
HETATM   26  F1  UNL     1      29.088  -0.616  52.895  1.00  0.00    -0.203 F 
HETATM   27  C10 UNL     1      27.567   1.243  53.463  1.00  0.00     0.074 C 
HETATM   28 CL1  UNL     1      28.679   2.570  53.707  1.00  0.00    -0.081 Cl
HETATM   29  C11 UNL     1      26.259   1.301  53.753  1.00  0.00     0.042 C 
ENDBRANCH   7  23
TORSDOF 7
ENDMDL
MODEL 2
REMARK VINA RESULT:      -8.1      1.422      1.879
REMARK  7 active torsions:
REMARK  status: ('A' for Active; 'I' for Inactive)
REMARK    1  A    between atoms: O1_2  and  C2_3 
REMARK    2  A    between atoms: C6_9  and  C7_10 
REMARK    3  A    between atoms: C14_19  and  O2_20 
REMARK    4  A    between atoms: O2_20  and  C15_21 
REMARK    5  A    between atoms: C15_21  and  C16_22 
REMARK    6  A    between atoms: C16_22  and  C17_23 
REMARK    7  A    between atoms: C17_23  and  N3_24 
ROOT
HETATM    1  C2  UNL     1      20.665   0.921  52.321  1.00  0.00     0.103 A 
HETATM    2  C3  UNL     1      20.659   0.115  53.440  1.00  0.00     0.072 A 
HETATM    3  C4  UNL     1      21.854  -0.306  53.960  1.00  0.00     0.073 A 
HETATM    4  N1  UNL     1      21.909  -1.096  55.052  1.00  0.00    -0.241 NA
HETATM    5  C5  UNL     1      23.073  -1.511  55.566  1.00  0.00     0.234 A 
HETATM    6  N2  UNL     1      24.218  -1.131  54.978  1.00  0.00    -0.240 NA
HETATM    7  C6  UNL     1      24.217  -0.333  53.871  1.00  0.00     0.082 A 
HETATM    8  C12 UNL     1      23.020   0.096  53.340  1.00  0.00     0.025 A 
HETATM    9  C13 UNL     1      23.056   0.901  52.221  1.00  0.00     0.055 A 
HETATM   10  C14 UNL     1      21.838   1.315  51.712  1.00  0.00     0.103 A 
ENDROOT
BRANCH  10  11
HETATM   11  O2  UNL     1      21.734   2.119  50.602  1.00  0.00    -0.348 OA
BRANCH  11  12
HETATM   12  C15 UNL     1      22.051   1.779  49.287  1.00  0.00     0.177 C 
BRANCH  12  13
HETATM   13  C16 UNL     1      23.047   2.763  48.675  1.00  0.00     0.057 C 
BRANCH  13  14
HETATM   14  C17 UNL     1      23.092   3.981  49.595  1.00  0.00     0.274 C 
BRANCH  14  15
HETATM   15  N3  UNL     1      24.404   4.181  50.132  1.00  0.00     0.092 N 
HETATM   16  C18 UNL     1      24.865   5.546  50.094  1.00  0.00     0.298 C 
HETATM   17  C19 UNL     1      25.843   5.844  49.003  1.00  0.00     0.198 C 
HETATM   18  O3  UNL     1      26.786   4.870  48.788  1.00  0.00    -0.388 OA
HETATM   19  C20 UNL     1      26.775   3.830  49.685  1.00  0.00     0.198 C 
HETATM   20  C21 UNL     1      25.381   3.242  49.660  1.00  0.00     0.298 C 
ENDBRANCH  14  15
ENDBRANCH  13  14
ENDBRANCH  12  13
ENDBRANCH  11  12
ENDBRANCH  10  11
BRANCH   1  21
HETATM   21  O1  UNL     1      19.433   1.336  51.813  1.00  0.00    -0.353 OA
HETATM   22  C1  UNL     1      18.643   0.401  51.098  1.00  0.00     0.210 C 
ENDBRANCH   1  21
BRANCH   7  23
HETATM   23  C7  UNL     1      25.531   0.014  53.317  1.00  0.00     0.010 C 
HETATM   24  C8  UNL     1      26.464  -0.479  52.523  1.00  0.00     0.031 C 
HETATM   25  C9  UNL     1      27.689  -0.127  52.876  1.00  0.00     0.150 C 
HETATM   26  F1  UNL     1      28.951  -0.653  52.862  1.00  0.00    -0.203 F 
HETATM   27  C10 UNL     1      27.453   1.230  53.414  1.00  0.00     0.074 C 
HETATM   28 CL1  UNL     1      28.584   2.536  53.686  1.00  0.00    -0.081 Cl
HETATM   29  C11 UNL     1      26.141   1.310  53.681  1.00  0.00     0.042 C 
ENDBRANCH   7  23
TORSDOF 7
ENDMDL
MODEL 3
REMARK VINA RESULT:      -8.0      3.180      5.042
REMARK  7 active torsions:
REMARK  status: ('A' for Active; 'I' for Inactive)
REMARK    1  A    between atoms: O1_2  and  C2_3 
REMARK    2  A    between atoms: C6_9  and  C7_10 
REMARK    3  A    between atoms: C14_19  and  O2_20 
REMARK    4  A    between atoms: O2_20  and  C15_21 
REMARK    5  A    between atoms: C15_21  and  C16_22 
REMARK    6  A    between atoms: C16_22  and  C17_23 
REMARK    7  A    between atoms: C17_23  and  N3_24 
ROOT
HETATM    1  C2  UNL     1      27.039   0.377  53.243  1.00  0.00     0.103 A 
HETATM    2  C3  UNL     1      26.570  -0.338  54.325  1.00  0.00     0.072 A 
HETATM    3  C4  UNL     1      25.221  -0.546  54.448  1.00  0.00     0.073 A 
HETATM    4  N1  UNL     1      24.705  -1.237  55.485  1.00  0.00    -0.241 NA
HETATM    5  C5  UNL     1      23.390  -1.444  55.612  1.00  0.00     0.234 A 
HETATM    6  N2  UNL     1      22.559  -0.949  54.680  1.00  0.00    -0.240 NA
HETATM    7  C6  UNL     1      23.030  -0.243  53.613  1.00  0.00     0.082 A 
HETATM    8  C12 UNL     1      24.385  -0.028  53.479  1.00  0.00     0.025 A 
HETATM    9  C13 UNL     1      24.825   0.690  52.388  1.00  0.00     0.055 A 
HETATM   10  C14 UNL     1      26.191   0.889  52.283  1.00  0.00     0.103 A 
ENDROOT
BRANCH  10  11
HETATM   11  O2  UNL     1      26.760   1.586  51.245  1.00  0.00    -0.348 OA
BRANCH  11  12
HETATM   12  C15 UNL     1      26.669   2.958  51.005  1.00  0.00     0.177 C 
BRANCH  12  13
HETATM   13  C16 UNL     1      26.336   3.254  49.544  1.00  0.00     0.057 C 
BRANCH  13  14
HETATM   14  C17 UNL     1      26.272   4.774  49.402  1.00  0.00     0.274 C 
BRANCH  14  15
HETATM   15  N3  UNL     1      24.919   5.237  49.358  1.00  0.00     0.092 N 
HETATM   16  C18 UNL     1      24.550   6.113  50.442  1.00  0.00     0.298 C 
HETATM   17  C19 UNL     1      23.734   5.468  51.516  1.00  0.00     0.198 C 
HETATM   18  O3  UNL     1      22.767   4.602  51.068  1.00  0.00    -0.388 OA
HETATM   19  C20 UNL     1      22.604   4.554  49.705  1.00  0.00     0.198 C 
HETATM   20  C21 UNL     1      23.952   4.206  49.113  1.00  0.00     0.298 C 
ENDBRANCH  14  15
ENDBRANCH  13  14
ENDBRANCH  12  13
ENDBRANCH  11  12
ENDBRANCH  10  11
BRANCH   1  21
HETATM   21  O1  UNL     1      28.417   0.574  53.143  1.00  0.00    -0.353 OA
HETATM   22  C1  UNL     1      29.285  -0.462  53.569  1.00  0.00     0.210 C 
ENDBRANCH   1  21
BRANCH   7  23
HETATM   23  C7  UNL     1      22.025   0.249  52.662  1.00  0.00     0.010 C 
HETATM   24  C8  UNL     1      21.546  -0.014  51.460  1.00  0.00     0.031 C 
HETATM   25  C9  UNL     1      21.170   1.069  50.801  1.00  0.00     0.150 C 
HETATM   26  F1  UNL     1      21.134   1.525  49.511  1.00  0.00    -0.203 F 
HETATM   27  C10 UNL     1      20.678   1.920  51.905  1.00  0.00     0.074 C 
HETATM   28 CL1  UNL     1      19.628   3.318  51.856  1.00  0.00    -0.081 Cl
HETATM   29  C11 UNL     1      21.201   1.418  53.034  1.00  0.00     0.042 C 
ENDBRANCH   7  23
TORSDOF 7
ENDMDL
MODEL 4
REMARK VINA RESULT:      -8.0      3.277      4.115
REMARK  7 active torsions:
REMARK  status: ('A' for Active; 'I' for Inactive)
REMARK    1  A    between atoms: O1_2  and  C2_3 
REMARK    2  A    between atoms: C6_9  and  C7_10 
REMARK    3  A    between atoms: C14_19  and  O2_20 
REMARK    4  A    between atoms: O2_20  and  C15_21 
REMARK    5  A    between atoms: C15_21  and  C16_22 
REMARK    6  A    between atoms: C16_22  and  C17_23 
REMARK    7  A    between atoms: C17_23  and  N3_24 
ROOT
HETATM    1  C2  UNL     1      23.551   2.970  50.657  1.00  0.00     0.103 A 
HETATM    2  C3  UNL     1      22.584   2.074  51.062  1.00  0.00     0.072 A 
HETATM    3  C4  UNL     1      22.924   1.089  51.952  1.00  0.00     0.073 A 
HETATM    4  N1  UNL     1      22.021   0.184  52.383  1.00  0.00    -0.241 NA
HETATM    5  C5  UNL     1      22.346  -0.779  53.252  1.00  0.00     0.234 A 
HETATM    6  N2  UNL     1      23.607  -0.848  53.708  1.00  0.00    -0.240 NA
HETATM    7  C6  UNL     1      24.557   0.043  53.304  1.00  0.00     0.082 A 
HETATM    8  C12 UNL     1      24.226   1.036  52.409  1.00  0.00     0.025 A 
HETATM    9  C13 UNL     1      25.212   1.918  52.022  1.00  0.00     0.055 A 
HETATM   10  C14 UNL     1      24.848   2.905  51.122  1.00  0.00     0.103 A 
ENDROOT
BRANCH  10  11
HETATM   11  O2  UNL     1      25.734   3.846  50.657  1.00  0.00    -0.348 OA
BRANCH  11  12
HETATM   12  C15 UNL     1      26.672   3.684  49.637  1.00  0.00     0.177 C 
BRANCH  12  13
HETATM   13  C16 UNL     1      26.873   4.975  48.845  1.00  0.00     0.057 C 
BRANCH  13  14
HETATM   14  C17 UNL     1      26.057   6.059  49.548  1.00  0.00     0.274 C 
BRANCH  14  15
HETATM   15  N3  UNL     1      26.377   7.361  49.046  1.00  0.00     0.092 N 
HETATM   16  C18 UNL     1      27.420   7.380  48.052  1.00  0.00     0.298 C 
HETATM   17  C19 UNL     1      28.755   7.828  48.556  1.00  0.00     0.198 C 
HETATM   18  O3  UNL     1      28.718   8.887  49.430  1.00  0.00    -0.388 OA
HETATM   19  C20 UNL     1      27.482   9.459  49.611  1.00  0.00     0.198 C 
HETATM   20  C21 UNL     1      26.549   8.357  50.064  1.00  0.00     0.298 C 
ENDBRANCH  14  15
ENDBRANCH  13  14
ENDBRANCH  12  13
ENDBRANCH  11  12
ENDBRANCH  10  11
BRANCH   1  21
HETATM   21  O1  UNL     1      23.177   3.962  49.750  1.00  0.00    -0.353 OA
HETATM   22  C1  UNL     1      22.927   3.595  48.404  1.00  0.00     0.210 C 
ENDBRANCH   1  21
BRANCH   7  23
HETATM   23  C7  UNL     1      25.899  -0.135  53.871  1.00  0.00     0.010 C 
HETATM   24  C8  UNL     1      26.637   0.269  54.890  1.00  0.00     0.031 C 
HETATM   25  C9  UNL     1      27.921   0.376  54.594  1.00  0.00     0.150 C 
HETATM   26  F1  UNL     1      28.989   1.162  54.930  1.00  0.00    -0.203 F 
HETATM   27  C10 UNL     1      28.084  -0.725  53.622  1.00  0.00     0.074 C 
HETATM   28 CL1  UNL     1      29.538  -1.533  53.081  1.00  0.00    -0.081 Cl
HETATM   29  C11 UNL     1      26.853  -1.032  53.185  1.00  0.00     0.042 C 
ENDBRANCH   7  23
TORSDOF 7
ENDMDL
MODEL 5
REMARK VINA RESULT:      -7.6      2.332      2.985
REMARK  7 active torsions:
REMARK  status: ('A' for Active; 'I' for Inactive)
REMARK    1  A    between atoms: O1_2  and  C2_3 
REMARK    2  A    between atoms: C6_9  and  C7_10 
REMARK    3  A    between atoms: C14_19  and  O2_20 
REMARK    4  A    between atoms: O2_20  and  C15_21 
REMARK    5  A    between atoms: C15_21  and  C16_22 
REMARK    6  A    between atoms: C16_22  and  C17_23 
REMARK    7  A    between atoms: C17_23  and  N3_24 
ROOT
HETATM    1  C2  UNL     1      23.190   2.830  51.482  1.00  0.00     0.103 A 
HETATM    2  C3  UNL     1      22.473   2.137  52.433  1.00  0.00     0.072 A 
HETATM    3  C4  UNL     1      23.043   1.040  53.024  1.00  0.00     0.073 A 
HETATM    4  N1  UNL     1      22.388   0.323  53.961  1.00  0.00    -0.241 NA
HETATM    5  C5  UNL     1      22.939  -0.749  54.542  1.00  0.00     0.234 A 
HETATM    6  N2  UNL     1      24.177  -1.121  54.183  1.00  0.00    -0.240 NA
HETATM    7  C6  UNL     1      24.881  -0.430  53.241  1.00  0.00     0.082 A 
HETATM    8  C12 UNL     1      24.317   0.674  52.640  1.00  0.00     0.025 A 
HETATM    9  C13 UNL     1      25.057   1.348  51.693  1.00  0.00     0.055 A 
HETATM   10  C14 UNL     1      24.462   2.453  51.108  1.00  0.00     0.103 A 
ENDROOT
BRANCH  10  11
HETATM   11  O2  UNL     1      25.091   3.212  50.150  1.00  0.00    -0.348 OA
BRANCH  11  12
HETATM   12  C15 UNL     1      26.458   3.249  49.873  1.00  0.00     0.177 C 
BRANCH  12  13
HETATM   13  C16 UNL     1      26.839   4.499  49.081  1.00  0.00     0.057 C 
BRANCH  13  14
HETATM   14  C17 UNL     1      25.601   5.394  49.043  1.00  0.00     0.274 C 
BRANCH  14  15
HETATM   15  N3  UNL     1      25.751   6.528  49.904  1.00  0.00     0.092 N 
HETATM   16  C18 UNL     1      24.661   6.728  50.826  1.00  0.00     0.298 C 
HETATM   17  C19 UNL     1      23.709   7.815  50.440  1.00  0.00     0.198 C 
HETATM   18  O3  UNL     1      24.296   8.944  49.927  1.00  0.00    -0.388 OA
HETATM   19  C20 UNL     1      25.669   8.964  49.963  1.00  0.00     0.198 C 
HETATM   20  C21 UNL     1      26.146   7.731  49.228  1.00  0.00     0.298 C 
ENDBRANCH  14  15
ENDBRANCH  13  14
ENDBRANCH  12  13
ENDBRANCH  11  12
ENDBRANCH  10  11
BRANCH   1  21
HETATM   21  O1  UNL     1      22.584   3.943  50.896  1.00  0.00    -0.353 OA
HETATM   22  C1  UNL     1      21.569   3.736  49.929  1.00  0.00     0.210 C 
ENDBRANCH   1  21
BRANCH   7  23
HETATM   23  C7  UNL     1      26.224  -0.935  52.932  1.00  0.00     0.010 C 
HETATM   24  C8  UNL     1      26.820  -1.987  52.400  1.00  0.00     0.031 C 
HETATM   25  C9  UNL     1      27.988  -2.261  52.955  1.00  0.00     0.150 C 
HETATM   26  F1  UNL     1      28.751  -3.357  53.253  1.00  0.00    -0.203 F 
HETATM   27  C10 UNL     1      28.473  -0.904  53.287  1.00  0.00     0.074 C 
HETATM   28 CL1  UNL     1      30.094  -0.352  53.644  1.00  0.00    -0.081 Cl
HETATM   29  C11 UNL     1      27.397  -0.103  53.272  1.00  0.00     0.042 C 
ENDBRANCH   7  23
TORSDOF 7
ENDMDL
MODEL 6
REMARK VINA RESULT:      -7.4      3.997      5.726
REMARK  7 active torsions:
REMARK  status: ('A' for Active; 'I' for Inactive)
REMARK    1  A    between atoms: O1_2  and  C2_3 
REMARK    2  A    between atoms: C6_9  and  C7_10 
REMARK    3  A    between atoms: C14_19  and  O2_20 
REMARK    4  A    between atoms: O2_20  and  C15_21 
REMARK    5  A    between atoms: C15_21  and  C16_22 
REMARK    6  A    between atoms: C16_22  and  C17_23 
REMARK    7  A    between atoms: C17_23  and  N3_24 
ROOT
HETATM    1  C2  UNL     1      27.218   1.030  53.130  1.00  0.00     0.103 A 
HETATM    2  C3  UNL     1      26.892   0.191  54.174  1.00  0.00     0.072 A 
HETATM    3  C4  UNL     1      25.590  -0.205  54.326  1.00  0.00     0.073 A 
HETATM    4  N1  UNL     1      25.213  -1.024  55.329  1.00  0.00    -0.241 NA
HETATM    5  C5  UNL     1      23.943  -1.414  55.484  1.00  0.00     0.234 A 
HETATM    6  N2  UNL     1      23.016  -0.978  54.616  1.00  0.00    -0.240 NA
HETATM    7  C6  UNL     1      23.346  -0.148  53.584  1.00  0.00     0.082 A 
HETATM    8  C12 UNL     1      24.653   0.256  53.423  1.00  0.00     0.025 A 
HETATM    9  C13 UNL     1      24.949   1.095  52.370  1.00  0.00     0.055 A 
HETATM   10  C14 UNL     1      26.271   1.483  52.235  1.00  0.00     0.103 A 
ENDROOT
BRANCH  10  11
HETATM   11  O2  UNL     1      26.699   2.315  51.229  1.00  0.00    -0.348 OA
BRANCH  11  12
HETATM   12  C15 UNL     1      25.902   3.076  50.373  1.00  0.00     0.177 C 
BRANCH  12  13
HETATM   13  C16 UNL     1      26.743   3.846  49.356  1.00  0.00     0.057 C 
BRANCH  13  14
HETATM   14  C17 UNL     1      26.063   5.198  49.149  1.00  0.00     0.274 C 
BRANCH  14  15
HETATM   15  N3  UNL     1      27.023   6.256  49.052  1.00  0.00     0.092 N 
HETATM   16  C18 UNL     1      26.459   7.553  48.776  1.00  0.00     0.298 C 
HETATM   17  C19 UNL     1      26.604   8.008  47.359  1.00  0.00     0.198 C 
HETATM   18  O3  UNL     1      27.819   7.729  46.783  1.00  0.00    -0.388 OA
HETATM   19  C20 UNL     1      28.762   7.195  47.626  1.00  0.00     0.198 C 
HETATM   20  C21 UNL     1      28.156   5.947  48.229  1.00  0.00     0.298 C 
ENDBRANCH  14  15
ENDBRANCH  13  14
ENDBRANCH  12  13
ENDBRANCH  11  12
ENDBRANCH  10  11
BRANCH   1  21
HETATM   21  O1  UNL     1      28.552   1.417  52.999  1.00  0.00    -0.353 OA
HETATM   22  C1  UNL     1      29.420   1.255  54.108  1.00  0.00     0.210 C 
ENDBRANCH   1  21
BRANCH   7  23
HETATM   23  C7  UNL     1      22.246   0.263  52.703  1.00  0.00     0.010 C 
HETATM   24  C8  UNL     1      21.626  -0.121  51.602  1.00  0.00     0.031 C 
HETATM   25  C9  UNL     1      21.195   0.890  50.866  1.00  0.00     0.150 C 
HETATM   26  F1  UNL     1      21.019   1.196  49.545  1.00  0.00    -0.203 F 
HETATM   27  C10 UNL     1      20.851   1.878  51.912  1.00  0.00     0.074 C 
HETATM   28 CL1  UNL     1      19.827   3.293  51.818  1.00  0.00    -0.081 Cl
HETATM   29  C11 UNL     1      21.492   1.492  53.025  1.00  0.00     0.042 C 
ENDBRANCH   7  23
TORSDOF 7
ENDMDL
MODEL 7
REMARK VINA RESULT:      -7.2      1.629      2.065
REMARK  7 active torsions:
REMARK  status: ('A' for Active; 'I' for Inactive)
REMARK    1  A    between atoms: O1_2  and  C2_3 
REMARK    2  A    between atoms: C6_9  and  C7_10 
REMARK    3  A    between atoms: C14_19  and  O2_20 
REMARK    4  A    between atoms: O2_20  and  C15_21 
REMARK    5  A    between atoms: C15_21  and  C16_22 
REMARK    6  A    between atoms: C16_22  and  C17_23 
REMARK    7  A    between atoms: C17_23  and  N3_24 
ROOT
HETATM    1  C2  UNL     1      19.917  -0.397  53.161  1.00  0.00     0.103 A 
HETATM    2  C3  UNL     1      20.480  -1.186  54.141  1.00  0.00     0.072 A 
HETATM    3  C4  UNL     1      21.818  -1.060  54.406  1.00  0.00     0.073 A 
HETATM    4  N1  UNL     1      22.424  -1.806  55.353  1.00  0.00    -0.241 NA
HETATM    5  C5  UNL     1      23.729  -1.688  55.617  1.00  0.00     0.234 A 
HETATM    6  N2  UNL     1      24.459  -0.803  54.920  1.00  0.00    -0.240 NA
HETATM    7  C6  UNL     1      23.895  -0.025  53.952  1.00  0.00     0.082 A 
HETATM    8  C12 UNL     1      22.550  -0.144  53.677  1.00  0.00     0.025 A 
HETATM    9  C13 UNL     1      22.013   0.657  52.692  1.00  0.00     0.055 A 
HETATM   10  C14 UNL     1      20.660   0.514  52.440  1.00  0.00     0.103 A 
ENDROOT
BRANCH  10  11
HETATM   11  O2  UNL     1      20.003   1.252  51.486  1.00  0.00    -0.348 OA
BRANCH  11  12
HETATM   12  C15 UNL     1      20.328   1.355  50.133  1.00  0.00     0.177 C 
BRANCH  12  13
HETATM   13  C16 UNL     1      21.306   2.500  49.874  1.00  0.00     0.057 C 
BRANCH  13  14
HETATM   14  C17 UNL     1      20.537   3.801  50.099  1.00  0.00     0.274 C 
BRANCH  14  15
HETATM   15  N3  UNL     1      21.296   4.727  50.883  1.00  0.00     0.092 N 
HETATM   16  C18 UNL     1      22.034   5.698  50.114  1.00  0.00     0.298 C 
HETATM   17  C19 UNL     1      23.498   5.417  49.994  1.00  0.00     0.198 C 
HETATM   18  O3  UNL     1      24.096   4.957  51.141  1.00  0.00    -0.388 OA
HETATM   19  C20 UNL     1      23.297   4.946  52.259  1.00  0.00     0.198 C 
HETATM   20  C21 UNL     1      22.078   4.117  51.919  1.00  0.00     0.298 C 
ENDBRANCH  14  15
ENDBRANCH  13  14
ENDBRANCH  12  13
ENDBRANCH  11  12
ENDBRANCH  10  11
BRANCH   1  21
HETATM   21  O1  UNL     1      18.552  -0.547  52.912  1.00  0.00    -0.353 OA
HETATM   22  C1  UNL     1      17.912  -1.743  53.320  1.00  0.00     0.210 C 
ENDBRANCH   1  21
BRANCH   7  23
HETATM   23  C7  UNL     1      24.794   0.904  53.257  1.00  0.00     0.010 C 
HETATM   24  C8  UNL     1      24.912   1.537  52.104  1.00  0.00     0.031 C 
HETATM   25  C9  UNL     1      26.167   1.686  51.717  1.00  0.00     0.150 C 
HETATM   26  F1  UNL     1      26.886   1.719  50.553  1.00  0.00    -0.203 F 
HETATM   27  C10 UNL     1      26.850   1.850  53.018  1.00  0.00     0.074 C 
HETATM   28 CL1  UNL     1      28.428   2.517  53.376  1.00  0.00    -0.081 Cl
HETATM   29  C11 UNL     1      26.012   1.373  53.950  1.00  0.00     0.042 C 
ENDBRANCH   7  23
TORSDOF 7
ENDMDL
MODEL 8
REMARK VINA RESULT:      -7.2      1.661      2.105
REMARK  7 active torsions:
REMARK  status: ('A' for Active; 'I' for Inactive)
REMARK    1  A    between atoms: O1_2  and  C2_3 
REMARK    2  A    between atoms: C6_9  and  C7_10 
REMARK    3  A    between atoms: C14_19  and  O2_20 
REMARK    4  A    between atoms: O2_20  and  C15_21 
REMARK    5  A    between atoms: C15_21  and  C16_22 
REMARK    6  A    between atoms: C16_22  and  C17_23 
REMARK    7  A    between atoms: C17_23  and  N3_24 
ROOT
HETATM    1  C2  UNL     1      22.478   1.255  51.539  1.00  0.00     0.103 A 
HETATM    2  C3  UNL     1      21.925   0.394  52.462  1.00  0.00     0.072 A 
HETATM    3  C4  UNL     1      22.735  -0.167  53.415  1.00  0.00     0.073 A 
HETATM    4  N1  UNL     1      22.250  -1.016  54.343  1.00  0.00    -0.241 NA
HETATM    5  C5  UNL     1      23.035  -1.567  55.275  1.00  0.00     0.234 A 
HETATM    6  N2  UNL     1      24.343  -1.266  55.288  1.00  0.00    -0.240 NA
HETATM    7  C6  UNL     1      24.883  -0.413  54.371  1.00  0.00     0.082 A 
HETATM    8  C12 UNL     1      24.077   0.156  53.409  1.00  0.00     0.025 A 
HETATM    9  C13 UNL     1      24.657   1.013  52.498  1.00  0.00     0.055 A 
HETATM   10  C14 UNL     1      23.822   1.568  51.545  1.00  0.00     0.103 A 
ENDROOT
BRANCH  10  11
HETATM   11  O2  UNL     1      24.272   2.438  50.581  1.00  0.00    -0.348 OA
BRANCH  11  12
HETATM   12  C15 UNL     1      25.568   2.934  50.439  1.00  0.00     0.177 C 
BRANCH  12  13
HETATM   13  C16 UNL     1      25.606   4.158  49.525  1.00  0.00     0.057 C 
BRANCH  13  14
HETATM   14  C17 UNL     1      24.175   4.687  49.431  1.00  0.00     0.274 C 
BRANCH  14  15
HETATM   15  N3  UNL     1      24.000   5.862  50.230  1.00  0.00     0.092 N 
HETATM   16  C18 UNL     1      23.055   5.718  51.308  1.00  0.00     0.298 C 
HETATM   17  C19 UNL     1      21.718   6.336  51.053  1.00  0.00     0.198 C 
HETATM   18  O3  UNL     1      21.754   7.557  50.426  1.00  0.00    -0.388 OA
HETATM   19  C20 UNL     1      23.007   8.088  50.242  1.00  0.00     0.198 C 
HETATM   20  C21 UNL     1      23.810   7.065  49.471  1.00  0.00     0.298 C 
ENDBRANCH  14  15
ENDBRANCH  13  14
ENDBRANCH  12  13
ENDBRANCH  11  12
ENDBRANCH  10  11
BRANCH   1  21
HETATM   21  O1  UNL     1      21.630   1.811  50.580  1.00  0.00    -0.353 OA
HETATM   22  C1  UNL     1      21.170   0.991  49.520  1.00  0.00     0.210 C 
ENDBRANCH   1  21
BRANCH   7  23
HETATM   23  C7  UNL     1      26.325  -0.163  54.485  1.00  0.00     0.010 C 
HETATM   24  C8  UNL     1      27.169   0.720  54.988  1.00  0.00     0.031 C 
HETATM   25  C9  UNL     1      28.267   0.862  54.265  1.00  0.00     0.150 C 
HETATM   26  F1  UNL     1      29.153   1.848  53.927  1.00  0.00    -0.203 F 
HETATM   27  C10 UNL     1      28.451  -0.512  53.751  1.00  0.00     0.074 C 
HETATM   28 CL1  UNL     1      29.877  -1.273  53.083  1.00  0.00    -0.081 Cl
HETATM   29  C11 UNL     1      27.269  -1.130  53.887  1.00  0.00     0.042 C 
ENDBRANCH   7  23
TORSDOF 7
ENDMDL
MODEL 9
REMARK VINA RESULT:      -7.2      1.735      2.842
REMARK  7 active torsions:
REMARK  status: ('A' for Active; 'I' for Inactive)
REMARK    1  A    between atoms: O1_2  and  C2_3 
REMARK    2  A    between atoms: C6_9  and  C7_10 
REMARK    3  A    between atoms: C14_19  and  O2_20 
REMARK    4  A    between atoms: O2_20  and  C15_21 
REMARK    5  A    between atoms: C15_21  and  C16_22 
REMARK    6  A    between atoms: C16_22  and  C17_23 
REMARK    7  A    between atoms: C17_23  and  N3_24 
ROOT
HETATM    1  C2  UNL     1      21.586   3.144  52.132  1.00  0.00     0.103 A 
HETATM    2  C3  UNL     1      21.013   1.993  52.630  1.00  0.00     0.072 A 
HETATM    3  C4  UNL     1      21.825   0.952  52.994  1.00  0.00     0.073 A 
HETATM    4  N1  UNL     1      21.321  -0.198  53.486  1.00  0.00    -0.241 NA
HETATM    5  C5  UNL     1      22.108  -1.219  53.844  1.00  0.00     0.234 A 
HETATM    6  N2  UNL     1      23.438  -1.095  53.709  1.00  0.00    -0.240 NA
HETATM    7  C6  UNL     1      23.998   0.047  53.216  1.00  0.00     0.082 A 
HETATM    8  C12 UNL     1      23.190   1.100  52.846  1.00  0.00     0.025 A 
HETATM    9  C13 UNL     1      23.790   2.238  52.352  1.00  0.00     0.055 A 
HETATM   10  C14 UNL     1      22.951   3.278  51.990  1.00  0.00     0.103 A 
ENDROOT
BRANCH  10  11
HETATM   11  O2  UNL     1      23.421   4.466  51.485  1.00  0.00    -0.348 OA
BRANCH  11  12
HETATM   12  C15 UNL     1      24.538   4.649  50.670  1.00  0.00     0.177 C 
BRANCH  12  13
HETATM   13  C16 UNL     1      24.496   3.738  49.444  1.00  0.00     0.057 C 
BRANCH  13  14
HETATM   14  C17 UNL     1      23.341   4.224  48.569  1.00  0.00     0.274 C 
BRANCH  14  15
HETATM   15  N3  UNL     1      22.627   3.126  47.991  1.00  0.00     0.092 N 
HETATM   16  C18 UNL     1      21.388   3.488  47.351  1.00  0.00     0.298 C 
HETATM   17  C19 UNL     1      20.161   3.177  48.147  1.00  0.00     0.198 C 
HETATM   18  O3  UNL     1      20.186   1.971  48.802  1.00  0.00    -0.388 OA
HETATM   19  C20 UNL     1      21.270   1.174  48.530  1.00  0.00     0.198 C 
HETATM   20  C21 UNL     1      22.505   1.986  48.853  1.00  0.00     0.298 C 
ENDBRANCH  14  15
ENDBRANCH  13  14
ENDBRANCH  12  13
ENDBRANCH  11  12
ENDBRANCH  10  11
BRANCH   1  21
HETATM   21  O1  UNL     1      20.734   4.189  51.769  1.00  0.00    -0.353 OA
HETATM   22  C1  UNL     1      19.353   3.916  51.605  1.00  0.00     0.210 C 
ENDBRANCH   1  21
BRANCH   7  23
HETATM   23  C7  UNL     1      25.462   0.062  53.114  1.00  0.00     0.010 C 
HETATM   24  C8  UNL     1      26.431  -0.314  52.299  1.00  0.00     0.031 C 
HETATM   25  C9  UNL     1      27.528  -0.692  52.932  1.00  0.00     0.150 C 
HETATM   26  F1  UNL     1      28.541  -1.599  52.778  1.00  0.00    -0.203 F 
HETATM   27  C10 UNL     1      27.507   0.208  54.105  1.00  0.00     0.074 C 
HETATM   28 CL1  UNL     1      28.799   0.653  55.196  1.00  0.00    -0.081 Cl
HETATM   29  C11 UNL     1      26.249   0.663  54.211  1.00  0.00     0.042 C 
ENDBRANCH   7  23
TORSDOF 7
ENDMDL
