MODEL 1
REMARK VINA RESULT:      -9.2      0.000      0.000
REMARK  5 active torsions:
REMARK  status: ('A' for Active; 'I' for Inactive)
REMARK    1  A    between atoms: C2_2  and  C3_3 
REMARK    2  A    between atoms: C4_5  and  C5_6 
REMARK    3  A    between atoms: C8_9  and  C9_10 
REMARK    4  A    between atoms: N2_18  and  C15_19 
REMARK    5  A    between atoms: C16_21  and  O1_22 
ROOT
HETATM    1  C5  UNL     1      24.674  -0.328  53.329  1.00  0.00     0.029 C 
HETATM    2  C6  UNL     1      25.316   0.569  52.643  1.00  0.00     0.044 A 
HETATM    3  C7  UNL     1      24.644   1.675  51.938  1.00  0.00     0.121 A 
HETATM    4  C8  UNL     1      25.806   2.383  51.333  1.00  0.00     0.071 A 
HETATM    5  N1  UNL     1      26.930   1.791  51.636  1.00  0.00    -0.169 NA
HETATM    6  N2  UNL     1      26.691   0.691  52.426  1.00  0.00    -0.213 N 
ENDROOT
BRANCH   4   7
HETATM    7  C9  UNL     1      25.757   3.582  50.502  1.00  0.00    -0.009 A 
HETATM    8  C10 UNL     1      26.811   3.871  49.667  1.00  0.00     0.015 A 
HETATM    9  C11 UNL     1      26.809   5.000  48.859  1.00  0.00     0.020 A 
HETATM   10  C12 UNL     1      25.752   5.860  48.872  1.00  0.00     0.011 A 
HETATM   11 BR1  UNL     1      25.730   7.422  47.766  1.00  0.00    -0.051 Br
HETATM   12  C13 UNL     1      24.684   5.570  49.716  1.00  0.00     0.020 A 
HETATM   13  C14 UNL     1      24.679   4.435  50.532  1.00  0.00     0.015 A 
ENDBRANCH   4   7
BRANCH   6  14
HETATM   14  C15 UNL     1      27.746  -0.152  52.910  1.00  0.00     0.196 A 
HETATM   15  N3  UNL     1      27.724  -1.496  52.898  1.00  0.00    -0.198 NA
HETATM   16  C16 UNL     1      28.831  -2.048  53.407  1.00  0.00     0.171 A 
HETATM   17  C17 UNL     1      29.907  -1.354  53.903  1.00  0.00     0.111 A 
HETATM   18  S1  UNL     1      29.252   0.326  53.604  1.00  0.00    -0.058 SA
BRANCH  16  19
HETATM   19  O1  UNL     1      28.767  -3.461  53.375  1.00  0.00    -0.344 OA
HETATM   20  H12 UNL     1      27.902  -3.970  53.415  1.00  0.00     0.219 HD
ENDBRANCH  16  19
ENDBRANCH   6  14
BRANCH   1  21
HETATM   21  C4  UNL     1      23.203  -0.194  53.378  1.00  0.00     0.026 C 
HETATM   22  C3  UNL     1      22.524  -0.681  54.430  1.00  0.00     0.033 C 
HETATM   23 CL1  UNL     1      23.399  -1.463  55.722  1.00  0.00    -0.084 Cl
BRANCH  22  24
HETATM   24  C2  UNL     1      21.080  -0.564  54.504  1.00  0.00     0.013 C 
HETATM   25  C1  UNL     1      20.428   0.284  53.726  1.00  0.00     0.013 C 
ENDBRANCH  22  24
ENDBRANCH   1  21
TORSDOF 5
ENDMDL
MODEL 2
REMARK VINA RESULT:      -8.8      3.053      5.046
REMARK  5 active torsions:
REMARK  status: ('A' for Active; 'I' for Inactive)
REMARK    1  A    between atoms: C2_2  and  C3_3 
REMARK    2  A    between atoms: C4_5  and  C5_6 
REMARK    3  A    between atoms: C8_9  and  C9_10 
REMARK    4  A    between atoms: N2_18  and  C15_19 
REMARK    5  A    between atoms: C16_21  and  O1_22 
ROOT
HETATM    1  C5  UNL     1      25.585  -0.117  52.643  1.00  0.00     0.029 C 
HETATM    2  C6  UNL     1      25.280   0.969  51.999  1.00  0.00     0.044 A 
HETATM    3  C7  UNL     1      26.290   1.846  51.380  1.00  0.00     0.121 A 
HETATM    4  C8  UNL     1      25.430   2.911  50.794  1.00  0.00     0.071 A 
HETATM    5  N1  UNL     1      24.166   2.684  51.035  1.00  0.00    -0.169 NA
HETATM    6  N2  UNL     1      24.020   1.524  51.759  1.00  0.00    -0.213 N 
ENDROOT
BRANCH   4   7
HETATM    7  C9  UNL     1      25.881   4.077  50.042  1.00  0.00    -0.009 A 
HETATM    8  C10 UNL     1      27.026   3.994  49.286  1.00  0.00     0.015 A 
HETATM    9  C11 UNL     1      27.494   5.077  48.553  1.00  0.00     0.020 A 
HETATM   10  C12 UNL     1      26.824   6.263  48.564  1.00  0.00     0.011 A 
HETATM   11 BR1  UNL     1      27.451   7.768  47.562  1.00  0.00    -0.051 Br
HETATM   12  C13 UNL     1      25.663   6.350  49.328  1.00  0.00     0.020 A 
HETATM   13  C14 UNL     1      25.187   5.264  50.068  1.00  0.00     0.015 A 
ENDBRANCH   4   7
BRANCH   6  14
HETATM   14  C15 UNL     1      22.738   1.027  52.166  1.00  0.00     0.196 A 
HETATM   15  N3  UNL     1      22.365   0.813  53.441  1.00  0.00    -0.198 NA
HETATM   16  C16 UNL     1      21.117   0.347  53.556  1.00  0.00     0.171 A 
HETATM   17  C17 UNL     1      20.264   0.097  52.508  1.00  0.00     0.111 A 
HETATM   18  S1  UNL     1      21.400   0.597  51.165  1.00  0.00    -0.058 SA
BRANCH  16  19
HETATM   19  O1  UNL     1      20.765   0.136  54.909  1.00  0.00    -0.344 OA
HETATM   20  H12 UNL     1      19.820  -0.015  55.211  1.00  0.00     0.219 HD
ENDBRANCH  16  19
ENDBRANCH   6  14
BRANCH   1  21
HETATM   21  C4  UNL     1      27.022  -0.451  52.734  1.00  0.00     0.026 C 
HETATM   22  C3  UNL     1      27.669  -0.304  53.901  1.00  0.00     0.033 C 
HETATM   23 CL1  UNL     1      26.793   0.281  55.293  1.00  0.00    -0.084 Cl
BRANCH  22  24
HETATM   24  C2  UNL     1      29.078  -0.623  54.018  1.00  0.00     0.013 C 
HETATM   25  C1  UNL     1      29.613  -1.603  53.309  1.00  0.00     0.013 C 
ENDBRANCH  22  24
ENDBRANCH   1  21
TORSDOF 5
ENDMDL
MODEL 3
REMARK VINA RESULT:      -8.6      1.986      2.327
REMARK  5 active torsions:
REMARK  status: ('A' for Active; 'I' for Inactive)
REMARK    1  A    between atoms: C2_2  and  C3_3 
REMARK    2  A    between atoms: C4_5  and  C5_6 
REMARK    3  A    between atoms: C8_9  and  C9_10 
REMARK    4  A    between atoms: N2_18  and  C15_19 
REMARK    5  A    between atoms: C16_21  and  O1_22 
ROOT
HETATM    1  C5  UNL     1      24.333   0.010  53.268  1.00  0.00     0.029 C 
HETATM    2  C6  UNL     1      24.694   0.994  52.500  1.00  0.00     0.044 A 
HETATM    3  C7  UNL     1      23.757   1.704  51.611  1.00  0.00     0.121 A 
HETATM    4  C8  UNL     1      24.660   2.705  50.979  1.00  0.00     0.071 A 
HETATM    5  N1  UNL     1      25.882   2.588  51.424  1.00  0.00    -0.169 NA
HETATM    6  N2  UNL     1      25.958   1.570  52.345  1.00  0.00    -0.213 N 
ENDROOT
BRANCH   4   7
HETATM    7  C9  UNL     1      24.286   3.709  49.988  1.00  0.00    -0.009 A 
HETATM    8  C10 UNL     1      23.188   3.496  49.188  1.00  0.00     0.015 A 
HETATM    9  C11 UNL     1      22.793   4.422  48.232  1.00  0.00     0.020 A 
HETATM   10  C12 UNL     1      23.491   5.579  48.058  1.00  0.00     0.011 A 
HETATM   11 BR1  UNL     1      22.966   6.868  46.745  1.00  0.00    -0.051 Br
HETATM   12  C13 UNL     1      24.604   5.798  48.866  1.00  0.00     0.020 A 
HETATM   13  C14 UNL     1      25.006   4.870  49.830  1.00  0.00     0.015 A 
ENDBRANCH   4   7
BRANCH   6  14
HETATM   14  C15 UNL     1      27.183   1.215  53.001  1.00  0.00     0.196 A 
HETATM   15  N3  UNL     1      27.971   2.072  53.675  1.00  0.00    -0.198 NA
HETATM   16  C16 UNL     1      29.058   1.493  54.195  1.00  0.00     0.171 A 
HETATM   17  C17 UNL     1      29.380   0.163  54.080  1.00  0.00     0.111 A 
HETATM   18  S1  UNL     1      27.929  -0.339  53.088  1.00  0.00    -0.058 SA
BRANCH  16  19
HETATM   19  O1  UNL     1      29.857   2.426  54.895  1.00  0.00    -0.344 OA
HETATM   20  H12 UNL     1      30.353   3.171  54.440  1.00  0.00     0.219 HD
ENDBRANCH  16  19
ENDBRANCH   6  14
BRANCH   1  21
HETATM   21  C4  UNL     1      22.910  -0.381  53.216  1.00  0.00     0.026 C 
HETATM   22  C3  UNL     1      22.361  -1.042  54.249  1.00  0.00     0.033 C 
HETATM   23 CL1  UNL     1      23.348  -1.424  55.637  1.00  0.00    -0.084 Cl
BRANCH  22  24
HETATM   24  C2  UNL     1      20.967  -1.439  54.225  1.00  0.00     0.013 C 
HETATM   25  C1  UNL     1      20.073  -0.734  53.550  1.00  0.00     0.013 C 
ENDBRANCH  22  24
ENDBRANCH   1  21
TORSDOF 5
ENDMDL
MODEL 4
REMARK VINA RESULT:      -8.6      3.876      6.552
REMARK  5 active torsions:
REMARK  status: ('A' for Active; 'I' for Inactive)
REMARK    1  A    between atoms: C2_2  and  C3_3 
REMARK    2  A    between atoms: C4_5  and  C5_6 
REMARK    3  A    between atoms: C8_9  and  C9_10 
REMARK    4  A    between atoms: N2_18  and  C15_19 
REMARK    5  A    between atoms: C16_21  and  O1_22 
ROOT
HETATM    1  C5  UNL     1      25.747   3.154  51.402  1.00  0.00     0.029 C 
HETATM    2  C6  UNL     1      25.093   2.196  51.987  1.00  0.00     0.044 A 
HETATM    3  C7  UNL     1      23.637   2.015  51.849  1.00  0.00     0.121 A 
HETATM    4  C8  UNL     1      23.412   0.812  52.696  1.00  0.00     0.071 A 
HETATM    5  N1  UNL     1      24.529   0.386  53.219  1.00  0.00    -0.169 NA
HETATM    6  N2  UNL     1      25.576   1.186  52.824  1.00  0.00    -0.213 N 
ENDROOT
BRANCH   4   7
HETATM    7  C9  UNL     1      22.134   0.151  52.945  1.00  0.00    -0.009 A 
HETATM    8  C10 UNL     1      21.020   0.544  52.242  1.00  0.00     0.015 A 
HETATM    9  C11 UNL     1      19.784  -0.056  52.444  1.00  0.00     0.020 A 
HETATM   10  C12 UNL     1      19.641  -1.060  53.355  1.00  0.00     0.011 A 
HETATM   11 BR1  UNL     1      17.947  -1.899  53.650  1.00  0.00    -0.051 Br
HETATM   12  C13 UNL     1      20.768  -1.460  54.068  1.00  0.00     0.020 A 
HETATM   13  C14 UNL     1      22.015  -0.861  53.869  1.00  0.00     0.015 A 
ENDBRANCH   4   7
BRANCH   6  14
HETATM   14  C15 UNL     1      26.926   0.953  53.249  1.00  0.00     0.196 A 
HETATM   15  N3  UNL     1      27.710   1.864  53.853  1.00  0.00    -0.198 NA
HETATM   16  C16 UNL     1      28.929   1.399  54.150  1.00  0.00     0.171 A 
HETATM   17  C17 UNL     1      29.379   0.128  53.884  1.00  0.00     0.111 A 
HETATM   18  S1  UNL     1      27.850  -0.496  53.100  1.00  0.00    -0.058 SA
BRANCH  16  19
HETATM   19  O1  UNL     1      29.719   2.385  54.783  1.00  0.00    -0.344 OA
HETATM   20  H12 UNL     1      30.539   2.783  54.361  1.00  0.00     0.219 HD
ENDBRANCH  16  19
ENDBRANCH   6  14
BRANCH   1  21
HETATM   21  C4  UNL     1      24.955   4.081  50.568  1.00  0.00     0.026 C 
HETATM   22  C3  UNL     1      25.507   4.637  49.478  1.00  0.00     0.033 C 
HETATM   23 CL1  UNL     1      27.159   4.248  49.068  1.00  0.00    -0.084 Cl
BRANCH  22  24
HETATM   24  C2  UNL     1      24.754   5.551  48.642  1.00  0.00     0.013 C 
HETATM   25  C1  UNL     1      23.483   5.317  48.356  1.00  0.00     0.013 C 
ENDBRANCH  22  24
ENDBRANCH   1  21
TORSDOF 5
ENDMDL
MODEL 5
REMARK VINA RESULT:      -8.5      4.655      7.538
REMARK  5 active torsions:
REMARK  status: ('A' for Active; 'I' for Inactive)
REMARK    1  A    between atoms: C2_2  and  C3_3 
REMARK    2  A    between atoms: C4_5  and  C5_6 
REMARK    3  A    between atoms: C8_9  and  C9_10 
REMARK    4  A    between atoms: N2_18  and  C15_19 
REMARK    5  A    between atoms: C16_21  and  O1_22 
ROOT
HETATM    1  C5  UNL     1      26.377   2.058  52.072  1.00  0.00     0.029 C 
HETATM    2  C6  UNL     1      25.079   2.049  52.019  1.00  0.00     0.044 A 
HETATM    3  C7  UNL     1      24.265   0.902  52.456  1.00  0.00     0.121 A 
HETATM    4  C8  UNL     1      22.889   1.403  52.189  1.00  0.00     0.071 A 
HETATM    5  N1  UNL     1      22.913   2.610  51.692  1.00  0.00    -0.169 NA
HETATM    6  N2  UNL     1      24.212   3.048  51.569  1.00  0.00    -0.213 N 
ENDROOT
BRANCH   4   7
HETATM    7  C9  UNL     1      21.641   0.686  52.430  1.00  0.00    -0.009 A 
HETATM    8  C10 UNL     1      21.544  -0.163  53.508  1.00  0.00     0.015 A 
HETATM    9  C11 UNL     1      20.377  -0.866  53.778  1.00  0.00     0.020 A 
HETATM   10  C12 UNL     1      19.286  -0.732  52.973  1.00  0.00     0.011 A 
HETATM   11 BR1  UNL     1      17.668  -1.691  53.326  1.00  0.00    -0.051 Br
HETATM   12  C13 UNL     1      19.380   0.127  51.881  1.00  0.00     0.020 A 
HETATM   13  C14 UNL     1      20.552   0.838  51.604  1.00  0.00     0.015 A 
ENDBRANCH   4   7
BRANCH   6  14
HETATM   14  C15 UNL     1      24.540   4.344  51.048  1.00  0.00     0.196 A 
HETATM   15  N3  UNL     1      24.103   5.510  51.556  1.00  0.00    -0.198 NA
HETATM   16  C16 UNL     1      24.552   6.579  50.889  1.00  0.00     0.171 A 
HETATM   17  C17 UNL     1      25.379   6.539  49.793  1.00  0.00     0.111 A 
HETATM   18  S1  UNL     1      25.541   4.721  49.694  1.00  0.00    -0.058 SA
BRANCH  16  19
HETATM   19  O1  UNL     1      24.070   7.782  51.454  1.00  0.00    -0.344 OA
HETATM   20  H12 UNL     1      24.092   8.661  50.969  1.00  0.00     0.219 HD
ENDBRANCH  16  19
ENDBRANCH   6  14
BRANCH   1  21
HETATM   21  C4  UNL     1      27.026   0.841  52.602  1.00  0.00     0.026 C 
HETATM   22  C3  UNL     1      28.123   0.949  53.369  1.00  0.00     0.033 C 
HETATM   23 CL1  UNL     1      28.761   2.535  53.724  1.00  0.00    -0.084 Cl
BRANCH  22  24
HETATM   24  C2  UNL     1      28.780  -0.228  53.902  1.00  0.00     0.013 C 
HETATM   25  C1  UNL     1      29.900  -0.681  53.364  1.00  0.00     0.013 C 
ENDBRANCH  22  24
ENDBRANCH   1  21
TORSDOF 5
ENDMDL
MODEL 6
REMARK VINA RESULT:      -8.4      3.468      6.256
REMARK  5 active torsions:
REMARK  status: ('A' for Active; 'I' for Inactive)
REMARK    1  A    between atoms: C2_2  and  C3_3 
REMARK    2  A    between atoms: C4_5  and  C5_6 
REMARK    3  A    between atoms: C8_9  and  C9_10 
REMARK    4  A    between atoms: N2_18  and  C15_19 
REMARK    5  A    between atoms: C16_21  and  O1_22 
ROOT
HETATM    1  C5  UNL     1      26.021   2.363  51.930  1.00  0.00     0.029 C 
HETATM    2  C6  UNL     1      25.204   1.426  52.308  1.00  0.00     0.044 A 
HETATM    3  C7  UNL     1      23.739   1.561  52.238  1.00  0.00     0.121 A 
HETATM    4  C8  UNL     1      23.300   0.244  52.776  1.00  0.00     0.071 A 
HETATM    5  N1  UNL     1      24.324  -0.502  53.094  1.00  0.00    -0.169 NA
HETATM    6  N2  UNL     1      25.498   0.164  52.831  1.00  0.00    -0.213 N 
ENDROOT
BRANCH   4   7
HETATM    7  C9  UNL     1      21.924  -0.210  52.950  1.00  0.00    -0.009 A 
HETATM    8  C10 UNL     1      20.931   0.323  52.162  1.00  0.00     0.015 A 
HETATM    9  C11 UNL     1      19.607  -0.078  52.290  1.00  0.00     0.020 A 
HETATM   10  C12 UNL     1      19.254  -1.019  53.210  1.00  0.00     0.011 A 
HETATM   11 BR1  UNL     1      17.436  -1.585  53.404  1.00  0.00    -0.051 Br
HETATM   12  C13 UNL     1      20.257  -1.560  54.010  1.00  0.00     0.020 A 
HETATM   13  C14 UNL     1      21.591  -1.161  53.885  1.00  0.00     0.015 A 
ENDBRANCH   4   7
BRANCH   6  14
HETATM   14  C15 UNL     1      26.785  -0.417  53.084  1.00  0.00     0.196 A 
HETATM   15  N3  UNL     1      27.059  -1.732  53.032  1.00  0.00    -0.198 NA
HETATM   16  C16 UNL     1      28.336  -2.018  53.308  1.00  0.00     0.171 A 
HETATM   17  C17 UNL     1      29.306  -1.096  53.618  1.00  0.00     0.111 A 
HETATM   18  S1  UNL     1      28.251   0.392  53.500  1.00  0.00    -0.058 SA
BRANCH  16  19
HETATM   19  O1  UNL     1      28.581  -3.409  53.242  1.00  0.00    -0.344 OA
HETATM   20  H12 UNL     1      27.910  -4.097  53.532  1.00  0.00     0.219 HD
ENDBRANCH  16  19
ENDBRANCH   6  14
BRANCH   1  21
HETATM   21  C4  UNL     1      25.408   3.604  51.412  1.00  0.00     0.026 C 
HETATM   22  C3  UNL     1      25.716   4.036  50.178  1.00  0.00     0.033 C 
HETATM   23 CL1  UNL     1      26.840   3.117  49.209  1.00  0.00    -0.084 Cl
BRANCH  22  24
HETATM   24  C2  UNL     1      25.130   5.251  49.645  1.00  0.00     0.013 C 
HETATM   25  C1  UNL     1      24.133   5.198  48.778  1.00  0.00     0.013 C 
ENDBRANCH  22  24
ENDBRANCH   1  21
TORSDOF 5
ENDMDL
MODEL 7
REMARK VINA RESULT:      -7.9      1.775      1.944
REMARK  5 active torsions:
REMARK  status: ('A' for Active; 'I' for Inactive)
REMARK    1  A    between atoms: C2_2  and  C3_3 
REMARK    2  A    between atoms: C4_5  and  C5_6 
REMARK    3  A    between atoms: C8_9  and  C9_10 
REMARK    4  A    between atoms: N2_18  and  C15_19 
REMARK    5  A    between atoms: C16_21  and  O1_22 
ROOT
HETATM    1  C5  UNL     1      23.864   0.604  52.680  1.00  0.00     0.029 C 
HETATM    2  C6  UNL     1      24.523   1.557  52.092  1.00  0.00     0.044 A 
HETATM    3  C7  UNL     1      23.906   2.486  51.130  1.00  0.00     0.121 A 
HETATM    4  C8  UNL     1      25.067   3.348  50.772  1.00  0.00     0.071 A 
HETATM    5  N1  UNL     1      26.144   2.978  51.410  1.00  0.00    -0.169 NA
HETATM    6  N2  UNL     1      25.872   1.901  52.221  1.00  0.00    -0.213 N 
ENDROOT
BRANCH   4   7
HETATM    7  C9  UNL     1      25.062   4.470  49.839  1.00  0.00    -0.009 A 
HETATM    8  C10 UNL     1      26.250   5.071  49.497  1.00  0.00     0.015 A 
HETATM    9  C11 UNL     1      26.296   6.142  48.613  1.00  0.00     0.020 A 
HETATM   10  C12 UNL     1      25.152   6.629  48.055  1.00  0.00     0.011 A 
HETATM   11 BR1  UNL     1      25.192   8.103  46.836  1.00  0.00    -0.051 Br
HETATM   12  C13 UNL     1      23.947   6.021  48.399  1.00  0.00     0.020 A 
HETATM   13  C14 UNL     1      23.895   4.944  49.288  1.00  0.00     0.015 A 
ENDBRANCH   4   7
BRANCH   6  14
HETATM   14  C15 UNL     1      26.872   1.283  53.042  1.00  0.00     0.196 A 
HETATM   15  N3  UNL     1      28.190   1.276  52.775  1.00  0.00    -0.198 NA
HETATM   16  C16 UNL     1      28.914   0.633  53.697  1.00  0.00     0.171 A 
HETATM   17  C17 UNL     1      28.408   0.026  54.821  1.00  0.00     0.111 A 
HETATM   18  S1  UNL     1      26.649   0.427  54.524  1.00  0.00    -0.058 SA
BRANCH  16  19
HETATM   19  O1  UNL     1      30.292   0.649  53.378  1.00  0.00    -0.344 OA
HETATM   20  H12 UNL     1      31.015   0.591  54.073  1.00  0.00     0.219 HD
ENDBRANCH  16  19
ENDBRANCH   6  14
BRANCH   1  21
HETATM   21  C4  UNL     1      22.431   0.484  52.338  1.00  0.00     0.026 C 
HETATM   22  C3  UNL     1      21.585  -0.098  53.203  1.00  0.00     0.033 C 
HETATM   23 CL1  UNL     1      22.201  -0.703  54.721  1.00  0.00    -0.084 Cl
BRANCH  22  24
HETATM   24  C2  UNL     1      20.175  -0.230  52.894  1.00  0.00     0.013 C 
HETATM   25  C1  UNL     1      19.685   0.229  51.754  1.00  0.00     0.013 C 
ENDBRANCH  22  24
ENDBRANCH   1  21
TORSDOF 5
ENDMDL
MODEL 8
REMARK VINA RESULT:      -7.8      5.001      7.427
REMARK  5 active torsions:
REMARK  status: ('A' for Active; 'I' for Inactive)
REMARK    1  A    between atoms: C2_2  and  C3_3 
REMARK    2  A    between atoms: C4_5  and  C5_6 
REMARK    3  A    between atoms: C8_9  and  C9_10 
REMARK    4  A    between atoms: N2_18  and  C15_19 
REMARK    5  A    between atoms: C16_21  and  O1_22 
ROOT
HETATM    1  C5  UNL     1      21.193   3.427  52.090  1.00  0.00     0.029 C 
HETATM    2  C6  UNL     1      21.991   2.424  52.302  1.00  0.00     0.044 A 
HETATM    3  C7  UNL     1      23.451   2.574  52.436  1.00  0.00     0.121 A 
HETATM    4  C8  UNL     1      23.868   1.162  52.659  1.00  0.00     0.071 A 
HETATM    5  N1  UNL     1      22.840   0.358  52.653  1.00  0.00    -0.169 NA
HETATM    6  N2  UNL     1      21.681   1.069  52.441  1.00  0.00    -0.213 N 
ENDROOT
BRANCH   4   7
HETATM    7  C9  UNL     1      25.231   0.680  52.863  1.00  0.00    -0.009 A 
HETATM    8  C10 UNL     1      26.261   1.585  52.965  1.00  0.00     0.015 A 
HETATM    9  C11 UNL     1      27.573   1.174  53.160  1.00  0.00     0.020 A 
HETATM   10  C12 UNL     1      27.877  -0.151  53.256  1.00  0.00     0.011 A 
HETATM   11 BR1  UNL     1      29.679  -0.740  53.525  1.00  0.00    -0.051 Br
HETATM   12  C13 UNL     1      26.836  -1.070  53.154  1.00  0.00     0.020 A 
HETATM   13  C14 UNL     1      25.513  -0.662  52.958  1.00  0.00     0.015 A 
ENDBRANCH   4   7
BRANCH   6  14
HETATM   14  C15 UNL     1      20.393   0.441  52.385  1.00  0.00     0.196 A 
HETATM   15  N3  UNL     1      19.875  -0.340  53.349  1.00  0.00    -0.198 NA
HETATM   16  C16 UNL     1      18.656  -0.805  53.056  1.00  0.00     0.171 A 
HETATM   17  C17 UNL     1      17.963  -0.539  51.901  1.00  0.00     0.111 A 
HETATM   18  S1  UNL     1      19.225   0.527  51.117  1.00  0.00    -0.058 SA
BRANCH  16  19
HETATM   19  O1  UNL     1      18.149  -1.621  54.094  1.00  0.00    -0.344 OA
HETATM   20  H12 UNL     1      18.263  -1.401  55.067  1.00  0.00     0.219 HD
ENDBRANCH  16  19
ENDBRANCH   6  14
BRANCH   1  21
HETATM   21  C4  UNL     1      21.821   4.761  51.987  1.00  0.00     0.026 C 
HETATM   22  C3  UNL     1      21.465   5.591  50.993  1.00  0.00     0.033 C 
HETATM   23 CL1  UNL     1      20.262   5.072  49.839  1.00  0.00    -0.084 Cl
BRANCH  22  24
HETATM   24  C2  UNL     1      22.064   6.905  50.867  1.00  0.00     0.013 C 
HETATM   25  C1  UNL     1      23.379   7.052  50.856  1.00  0.00     0.013 C 
ENDBRANCH  22  24
ENDBRANCH   1  21
TORSDOF 5
ENDMDL
MODEL 9
REMARK VINA RESULT:      -7.6      7.025     10.220
REMARK  5 active torsions:
REMARK  status: ('A' for Active; 'I' for Inactive)
REMARK    1  A    between atoms: C2_2  and  C3_3 
REMARK    2  A    between atoms: C4_5  and  C5_6 
REMARK    3  A    between atoms: C8_9  and  C9_10 
REMARK    4  A    between atoms: N2_18  and  C15_19 
REMARK    5  A    between atoms: C16_21  and  O1_22 
ROOT
HETATM    1  C5  UNL     1      31.194   6.474  47.470  1.00  0.00     0.029 C 
HETATM    2  C6  UNL     1      29.958   6.502  47.868  1.00  0.00     0.044 A 
HETATM    3  C7  UNL     1      29.163   5.286  48.109  1.00  0.00     0.121 A 
HETATM    4  C8  UNL     1      27.861   5.869  48.535  1.00  0.00     0.071 A 
HETATM    5  N1  UNL     1      27.905   7.174  48.536  1.00  0.00    -0.169 NA
HETATM    6  N2  UNL     1      29.149   7.609  48.141  1.00  0.00    -0.213 N 
ENDROOT
BRANCH   4   7
HETATM    7  C9  UNL     1      26.659   5.131  48.913  1.00  0.00    -0.009 A 
HETATM    8  C10 UNL     1      26.776   3.849  49.396  1.00  0.00     0.015 A 
HETATM    9  C11 UNL     1      25.662   3.109  49.769  1.00  0.00     0.020 A 
HETATM   10  C12 UNL     1      24.411   3.638  49.663  1.00  0.00     0.011 A 
HETATM   11 BR1  UNL     1      22.862   2.635  50.170  1.00  0.00    -0.051 Br
HETATM   12  C13 UNL     1      24.289   4.936  49.174  1.00  0.00     0.020 A 
HETATM   13  C14 UNL     1      25.407   5.687  48.798  1.00  0.00     0.015 A 
ENDBRANCH   4   7
BRANCH   6  14
HETATM   14  C15 UNL     1      29.484   9.000  48.049  1.00  0.00     0.196 A 
HETATM   15  N3  UNL     1      29.958   9.746  49.063  1.00  0.00    -0.198 NA
HETATM   16  C16 UNL     1      30.193  11.017  48.720  1.00  0.00     0.171 A 
HETATM   17  C17 UNL     1      29.988  11.552  47.472  1.00  0.00     0.111 A 
HETATM   18  S1  UNL     1      29.372  10.030  46.669  1.00  0.00    -0.058 SA
BRANCH  16  19
HETATM   19  O1  UNL     1      30.688  11.765  49.813  1.00  0.00    -0.344 OA
HETATM   20  H12 UNL     1      31.650  12.041  49.895  1.00  0.00     0.219 HD
ENDBRANCH  16  19
ENDBRANCH   6  14
BRANCH   1  21
HETATM   21  C4  UNL     1      31.791   5.138  47.263  1.00  0.00     0.026 C 
HETATM   22  C3  UNL     1      32.953   4.825  47.859  1.00  0.00     0.033 C 
HETATM   23 CL1  UNL     1      33.737   6.012  48.872  1.00  0.00    -0.084 Cl
BRANCH  22  24
HETATM   24  C2  UNL     1      33.561   3.523  47.673  1.00  0.00     0.013 C 
HETATM   25  C1  UNL     1      34.833   3.412  47.327  1.00  0.00     0.013 C 
ENDBRANCH  22  24
ENDBRANCH   1  21
TORSDOF 5
ENDMDL
