MODEL 1
REMARK VINA RESULT:      -7.9      0.000      0.000
REMARK  7 active torsions:
REMARK  status: ('A' for Active; 'I' for Inactive)
REMARK    1  A    between atoms: N1_2  and  C3_4 
REMARK    2  A    between atoms: C3_4  and  C4_5 
REMARK    3  A    between atoms: C5_6  and  C6_7 
REMARK       I    between atoms: C6_7  and  N2_9 
REMARK    4  A    between atoms: N2_9  and  C7_10 
REMARK    5  A    between atoms: C7_10  and  C8_11 
REMARK    6  A    between atoms: C11_14  and  N3_15 
REMARK    7  A    between atoms: N3_15  and  C12_16 
ROOT
HETATM    1  C8  UNL     1      26.222   4.738  49.236  1.00  0.00    -0.040 A 
HETATM    2  C9  UNL     1      25.008   4.936  49.733  1.00  0.00     0.024 A 
HETATM    3  C10 UNL     1      25.029   3.522  50.104  1.00  0.00    -0.012 A 
HETATM    4  C11 UNL     1      23.977   3.019  50.719  1.00  0.00     0.038 A 
HETATM    5  C18 UNL     1      22.733   3.653  51.119  1.00  0.00     0.214 A 
HETATM    6  N4  UNL     1      22.569   5.018  50.823  1.00  0.00    -0.259 NA
HETATM    7  S1  UNL     1      23.600   5.953  50.099  1.00  0.00    -0.076 SA
HETATM    8  C19 UNL     1      24.040   7.393  51.059  1.00  0.00     0.109 C 
HETATM    9  C20 UNL     1      26.386   3.291  49.547  1.00  0.00     0.079 A 
ENDROOT
BRANCH   1  10
HETATM   10  C7  UNL     1      27.148   5.686  48.563  1.00  0.00     0.158 C 
BRANCH  10  11
HETATM   11  N2  UNL     1      28.550   5.398  48.838  1.00  0.00    -0.354 N 
HETATM   12  C6  UNL     1      29.521   6.173  48.113  1.00  0.00     0.241 C 
HETATM   13  O1  UNL     1      28.791   6.936  47.391  1.00  0.00    -0.269 OA
HETATM   14  H11 UNL     1      28.763   4.641  49.551  1.00  0.00     0.163 HD
BRANCH  12  15
HETATM   15  C5  UNL     1      30.933   5.932  48.344  1.00  0.00     0.072 C 
HETATM   16  C4  UNL     1      31.958   5.194  47.984  1.00  0.00     0.008 C 
BRANCH  16  17
HETATM   17  C3  UNL     1      32.314   4.108  47.078  1.00  0.00     0.299 C 
BRANCH  17  18
HETATM   18  N1  UNL     1      33.060   3.047  47.733  1.00  0.00     0.083 N 
HETATM   19  C1  UNL     1      32.782   1.784  47.110  1.00  0.00     0.309 C 
HETATM   20  C2  UNL     1      34.473   3.273  47.743  1.00  0.00     0.309 C 
ENDBRANCH  17  18
ENDBRANCH  16  17
ENDBRANCH  12  15
ENDBRANCH  10  11
ENDBRANCH   1  10
BRANCH   4  21
HETATM   21  N3  UNL     1      23.961   1.646  51.095  1.00  0.00    -0.358 N 
HETATM   22  H14 UNL     1      23.385   1.208  50.338  1.00  0.00     0.166 HD
BRANCH  21  23
HETATM   23  C12 UNL     1      24.510   0.896  52.158  1.00  0.00     0.033 A 
HETATM   24  C13 UNL     1      23.666   0.230  53.020  1.00  0.00     0.029 A 
HETATM   25  C14 UNL     1      24.299  -0.472  54.023  1.00  0.00     0.004 A 
HETATM   26  C15 UNL     1      25.664  -0.543  54.204  1.00  0.00     0.019 A 
HETATM   27  C16 UNL     1      26.466   0.135  53.321  1.00  0.00     0.013 A 
HETATM   28 BR1  UNL     1      28.366   0.053  53.549  1.00  0.00    -0.051 Br
HETATM   29  C17 UNL     1      25.882   0.850  52.304  1.00  0.00     0.048 A 
ENDBRANCH  21  23
ENDBRANCH   4  21
TORSDOF 7
ENDMDL
MODEL 2
REMARK VINA RESULT:      -7.9      1.357      1.648
REMARK  7 active torsions:
REMARK  status: ('A' for Active; 'I' for Inactive)
REMARK    1  A    between atoms: N1_2  and  C3_4 
REMARK    2  A    between atoms: C3_4  and  C4_5 
REMARK    3  A    between atoms: C5_6  and  C6_7 
REMARK       I    between atoms: C6_7  and  N2_9 
REMARK    4  A    between atoms: N2_9  and  C7_10 
REMARK    5  A    between atoms: C7_10  and  C8_11 
REMARK    6  A    between atoms: C11_14  and  N3_15 
REMARK    7  A    between atoms: N3_15  and  C12_16 
ROOT
HETATM    1  C8  UNL     1      26.094   5.058  49.144  1.00  0.00    -0.040 A 
HETATM    2  C9  UNL     1      24.848   5.285  49.542  1.00  0.00     0.024 A 
HETATM    3  C10 UNL     1      24.789   3.860  49.863  1.00  0.00    -0.012 A 
HETATM    4  C11 UNL     1      23.672   3.377  50.367  1.00  0.00     0.038 A 
HETATM    5  C18 UNL     1      22.419   4.043  50.681  1.00  0.00     0.214 A 
HETATM    6  N4  UNL     1      22.328   5.422  50.421  1.00  0.00    -0.259 NA
HETATM    7  S1  UNL     1      23.449   6.341  49.821  1.00  0.00    -0.076 SA
HETATM    8  C19 UNL     1      23.854   7.731  50.865  1.00  0.00     0.109 C 
HETATM    9  C20 UNL     1      26.181   3.597  49.416  1.00  0.00     0.079 A 
ENDROOT
BRANCH   1  10
HETATM   10  C7  UNL     1      27.107   5.993  48.585  1.00  0.00     0.158 C 
BRANCH  10  11
HETATM   11  N2  UNL     1      28.475   5.568  48.854  1.00  0.00    -0.354 N 
HETATM   12  C6  UNL     1      29.516   6.267  48.148  1.00  0.00     0.241 C 
HETATM   13  O1  UNL     1      28.861   7.113  47.447  1.00  0.00    -0.269 OA
HETATM   14  H11 UNL     1      28.614   4.776  49.547  1.00  0.00     0.163 HD
BRANCH  12  15
HETATM   15  C5  UNL     1      30.899   5.890  48.374  1.00  0.00     0.072 C 
HETATM   16  C4  UNL     1      31.849   5.064  48.001  1.00  0.00     0.008 C 
BRANCH  16  17
HETATM   17  C3  UNL     1      32.100   3.963  47.078  1.00  0.00     0.299 C 
BRANCH  17  18
HETATM   18  N1  UNL     1      32.895   2.901  47.669  1.00  0.00     0.083 N 
HETATM   19  C1  UNL     1      32.638   1.655  47.004  1.00  0.00     0.309 C 
HETATM   20  C2  UNL     1      34.301   3.170  47.649  1.00  0.00     0.309 C 
ENDBRANCH  17  18
ENDBRANCH  16  17
ENDBRANCH  12  15
ENDBRANCH  10  11
ENDBRANCH   1  10
BRANCH   4  21
HETATM   21  N3  UNL     1      23.576   1.993  50.692  1.00  0.00    -0.358 N 
HETATM   22  H14 UNL     1      23.083   1.596  49.858  1.00  0.00     0.166 HD
BRANCH  21  23
HETATM   23  C12 UNL     1      23.976   1.196  51.787  1.00  0.00     0.033 A 
HETATM   24  C13 UNL     1      25.319   1.023  52.042  1.00  0.00     0.029 A 
HETATM   25  C14 UNL     1      25.604   0.229  53.131  1.00  0.00     0.004 A 
HETATM   26  C15 UNL     1      24.666  -0.375  53.942  1.00  0.00     0.019 A 
HETATM   27  C16 UNL     1      23.340  -0.175  53.651  1.00  0.00     0.013 A 
HETATM   28 BR1  UNL     1      22.016  -1.002  54.762  1.00  0.00    -0.051 Br
HETATM   29  C17 UNL     1      23.004   0.609  52.574  1.00  0.00     0.048 A 
ENDBRANCH  21  23
ENDBRANCH   4  21
TORSDOF 7
ENDMDL
MODEL 3
REMARK VINA RESULT:      -7.7      4.244      6.644
REMARK  7 active torsions:
REMARK  status: ('A' for Active; 'I' for Inactive)
REMARK    1  A    between atoms: N1_2  and  C3_4 
REMARK    2  A    between atoms: C3_4  and  C4_5 
REMARK    3  A    between atoms: C5_6  and  C6_7 
REMARK       I    between atoms: C6_7  and  N2_9 
REMARK    4  A    between atoms: N2_9  and  C7_10 
REMARK    5  A    between atoms: C7_10  and  C8_11 
REMARK    6  A    between atoms: C11_14  and  N3_15 
REMARK    7  A    between atoms: N3_15  and  C12_16 
ROOT
HETATM    1  C8  UNL     1      26.064   2.012  51.663  1.00  0.00    -0.040 A 
HETATM    2  C9  UNL     1      26.336   1.313  52.758  1.00  0.00     0.024 A 
HETATM    3  C10 UNL     1      25.030   0.685  52.570  1.00  0.00    -0.012 A 
HETATM    4  C11 UNL     1      24.643  -0.230  53.436  1.00  0.00     0.038 A 
HETATM    5  C18 UNL     1      25.321  -0.757  54.609  1.00  0.00     0.214 A 
HETATM    6  N4  UNL     1      26.592  -0.240  54.917  1.00  0.00    -0.259 NA
HETATM    7  S1  UNL     1      27.378   0.859  54.121  1.00  0.00    -0.076 SA
HETATM    8  C19 UNL     1      28.993   0.320  53.583  1.00  0.00     0.109 C 
HETATM    9  C20 UNL     1      24.716   1.466  51.346  1.00  0.00     0.079 A 
ENDROOT
BRANCH   1  10
HETATM   10  C7  UNL     1      26.872   3.044  50.960  1.00  0.00     0.158 C 
BRANCH  10  11
HETATM   11  N2  UNL     1      26.073   4.177  50.510  1.00  0.00    -0.354 N 
HETATM   12  C6  UNL     1      26.469   4.793  49.273  1.00  0.00     0.241 C 
HETATM   13  O1  UNL     1      27.484   4.097  48.923  1.00  0.00    -0.269 OA
HETATM   14  H11 UNL     1      25.256   4.473  51.122  1.00  0.00     0.163 HD
BRANCH  12  15
HETATM   15  C5  UNL     1      25.712   5.926  48.773  1.00  0.00     0.072 C 
HETATM   16  C4  UNL     1      24.500   6.406  48.613  1.00  0.00     0.008 C 
BRANCH  16  17
HETATM   17  C3  UNL     1      23.102   6.068  48.856  1.00  0.00     0.299 C 
BRANCH  17  18
HETATM   18  N1  UNL     1      22.882   5.480  50.166  1.00  0.00     0.083 N 
HETATM   19  C1  UNL     1      21.939   6.263  50.912  1.00  0.00     0.309 C 
HETATM   20  C2  UNL     1      22.434   4.122  50.108  1.00  0.00     0.309 C 
ENDBRANCH  17  18
ENDBRANCH  16  17
ENDBRANCH  12  15
ENDBRANCH  10  11
ENDBRANCH   1  10
BRANCH   4  21
HETATM   21  N3  UNL     1      23.377  -0.863  53.286  1.00  0.00    -0.358 N 
HETATM   22  H14 UNL     1      23.614  -1.878  53.393  1.00  0.00     0.166 HD
BRANCH  21  23
HETATM   23  C12 UNL     1      22.058  -0.415  53.052  1.00  0.00     0.033 A 
HETATM   24  C13 UNL     1      21.136  -0.467  54.074  1.00  0.00     0.029 A 
HETATM   25  C14 UNL     1      19.880  -0.006  53.744  1.00  0.00     0.004 A 
HETATM   26  C15 UNL     1      19.511   0.480  52.508  1.00  0.00     0.019 A 
HETATM   27  C16 UNL     1      20.462   0.515  51.520  1.00  0.00     0.013 A 
HETATM   28 BR1  UNL     1      19.977   1.187  49.793  1.00  0.00    -0.051 Br
HETATM   29  C17 UNL     1      21.730   0.066  51.799  1.00  0.00     0.048 A 
ENDBRANCH  21  23
ENDBRANCH   4  21
TORSDOF 7
ENDMDL
MODEL 4
REMARK VINA RESULT:      -7.6      2.798      3.747
REMARK  7 active torsions:
REMARK  status: ('A' for Active; 'I' for Inactive)
REMARK    1  A    between atoms: N1_2  and  C3_4 
REMARK    2  A    between atoms: C3_4  and  C4_5 
REMARK    3  A    between atoms: C5_6  and  C6_7 
REMARK       I    between atoms: C6_7  and  N2_9 
REMARK    4  A    between atoms: N2_9  and  C7_10 
REMARK    5  A    between atoms: C7_10  and  C8_11 
REMARK    6  A    between atoms: C11_14  and  N3_15 
REMARK    7  A    between atoms: N3_15  and  C12_16 
ROOT
HETATM    1  C8  UNL     1      26.454   4.476  49.213  1.00  0.00    -0.040 A 
HETATM    2  C9  UNL     1      25.281   4.816  49.730  1.00  0.00     0.024 A 
HETATM    3  C10 UNL     1      25.152   3.415  50.127  1.00  0.00    -0.012 A 
HETATM    4  C11 UNL     1      24.065   3.042  50.771  1.00  0.00     0.038 A 
HETATM    5  C18 UNL     1      22.908   3.817  51.184  1.00  0.00     0.214 A 
HETATM    6  N4  UNL     1      22.890   5.187  50.867  1.00  0.00    -0.259 NA
HETATM    7  S1  UNL     1      24.003   5.990  50.106  1.00  0.00    -0.076 SA
HETATM    8  C19 UNL     1      24.621   7.386  51.031  1.00  0.00     0.109 C 
HETATM    9  C20 UNL     1      26.463   3.025  49.547  1.00  0.00     0.079 A 
ENDROOT
BRANCH   1  10
HETATM   10  C7  UNL     1      27.465   5.305  48.504  1.00  0.00     0.158 C 
BRANCH  10  11
HETATM   11  N2  UNL     1      27.798   6.528  49.224  1.00  0.00    -0.354 N 
HETATM   12  C6  UNL     1      27.572   7.766  48.528  1.00  0.00     0.241 C 
HETATM   13  O1  UNL     1      27.111   7.376  47.401  1.00  0.00    -0.269 OA
HETATM   14  H11 UNL     1      28.183   6.426  50.208  1.00  0.00     0.163 HD
BRANCH  12  15
HETATM   15  C5  UNL     1      27.884   9.018  49.193  1.00  0.00     0.072 C 
HETATM   16  C4  UNL     1      28.863   9.821  49.540  1.00  0.00     0.008 C 
BRANCH  16  17
HETATM   17  C3  UNL     1      30.314   9.944  49.461  1.00  0.00     0.299 C 
BRANCH  17  18
HETATM   18  N1  UNL     1      30.746  11.256  49.009  1.00  0.00     0.083 N 
HETATM   19  C1  UNL     1      31.461  11.147  47.769  1.00  0.00     0.309 C 
HETATM   20  C2  UNL     1      29.667  12.184  48.857  1.00  0.00     0.309 C 
ENDBRANCH  17  18
ENDBRANCH  16  17
ENDBRANCH  12  15
ENDBRANCH  10  11
ENDBRANCH   1  10
BRANCH   4  21
HETATM   21  N3  UNL     1      23.905   1.685  51.172  1.00  0.00    -0.358 N 
HETATM   22  H14 UNL     1      23.328   1.283  50.396  1.00  0.00     0.166 HD
BRANCH  21  23
HETATM   23  C12 UNL     1      24.330   0.914  52.276  1.00  0.00     0.033 A 
HETATM   24  C13 UNL     1      23.408   0.159  52.968  1.00  0.00     0.029 A 
HETATM   25  C14 UNL     1      23.923  -0.557  54.026  1.00  0.00     0.004 A 
HETATM   26  C15 UNL     1      25.246  -0.560  54.415  1.00  0.00     0.019 A 
HETATM   27  C16 UNL     1      26.129   0.205  53.696  1.00  0.00     0.013 A 
HETATM   28 BR1  UNL     1      27.974   0.217  54.214  1.00  0.00    -0.051 Br
HETATM   29  C17 UNL     1      25.665   0.937  52.631  1.00  0.00     0.048 A 
ENDBRANCH  21  23
ENDBRANCH   4  21
TORSDOF 7
ENDMDL
MODEL 5
REMARK VINA RESULT:      -7.5      3.669      4.989
REMARK  7 active torsions:
REMARK  status: ('A' for Active; 'I' for Inactive)
REMARK    1  A    between atoms: N1_2  and  C3_4 
REMARK    2  A    between atoms: C3_4  and  C4_5 
REMARK    3  A    between atoms: C5_6  and  C6_7 
REMARK       I    between atoms: C6_7  and  N2_9 
REMARK    4  A    between atoms: N2_9  and  C7_10 
REMARK    5  A    between atoms: C7_10  and  C8_11 
REMARK    6  A    between atoms: C11_14  and  N3_15 
REMARK    7  A    between atoms: N3_15  and  C12_16 
ROOT
HETATM    1  C8  UNL     1      23.817   3.343  51.757  1.00  0.00    -0.040 A 
HETATM    2  C9  UNL     1      22.889   2.396  51.822  1.00  0.00     0.024 A 
HETATM    3  C10 UNL     1      23.891   1.590  52.517  1.00  0.00    -0.012 A 
HETATM    4  C11 UNL     1      23.558   0.377  52.909  1.00  0.00     0.038 A 
HETATM    5  C18 UNL     1      22.303  -0.343  52.769  1.00  0.00     0.214 A 
HETATM    6  N4  UNL     1      21.244   0.310  52.114  1.00  0.00    -0.259 NA
HETATM    7  S1  UNL     1      21.262   1.758  51.510  1.00  0.00    -0.076 SA
HETATM    8  C19 UNL     1      19.986   2.815  52.173  1.00  0.00     0.109 C 
HETATM    9  C20 UNL     1      24.936   2.642  52.445  1.00  0.00     0.079 A 
ENDROOT
BRANCH   1  10
HETATM   10  C7  UNL     1      23.756   4.705  51.166  1.00  0.00     0.158 C 
BRANCH  10  11
HETATM   11  N2  UNL     1      25.054   5.178  50.699  1.00  0.00    -0.354 N 
HETATM   12  C6  UNL     1      25.405   4.859  49.341  1.00  0.00     0.241 C 
HETATM   13  O1  UNL     1      24.384   4.206  48.932  1.00  0.00    -0.269 OA
HETATM   14  H11 UNL     1      25.652   5.722  51.387  1.00  0.00     0.163 HD
BRANCH  12  15
HETATM   15  C5  UNL     1      26.684   5.303  48.819  1.00  0.00     0.072 C 
HETATM   16  C4  UNL     1      27.375   6.359  48.457  1.00  0.00     0.008 C 
BRANCH  16  17
HETATM   17  C3  UNL     1      27.264   7.810  48.358  1.00  0.00     0.299 C 
BRANCH  17  18
HETATM   18  N1  UNL     1      27.144   8.459  49.652  1.00  0.00     0.083 N 
HETATM   19  C1  UNL     1      28.005   9.605  49.719  1.00  0.00     0.309 C 
HETATM   20  C2  UNL     1      25.803   8.850  49.966  1.00  0.00     0.309 C 
ENDBRANCH  17  18
ENDBRANCH  16  17
ENDBRANCH  12  15
ENDBRANCH  10  11
ENDBRANCH   1  10
BRANCH   4  21
HETATM   21  N3  UNL     1      24.507  -0.439  53.589  1.00  0.00    -0.358 N 
HETATM   22  H14 UNL     1      23.924  -0.908  54.321  1.00  0.00     0.166 HD
BRANCH  21  23
HETATM   23  C12 UNL     1      25.893  -0.678  53.456  1.00  0.00     0.033 A 
HETATM   24  C13 UNL     1      26.322  -1.830  52.833  1.00  0.00     0.029 A 
HETATM   25  C14 UNL     1      27.690  -1.969  52.753  1.00  0.00     0.004 A 
HETATM   26  C15 UNL     1      28.611  -1.066  53.240  1.00  0.00     0.019 A 
HETATM   27  C16 UNL     1      28.138   0.067  53.853  1.00  0.00     0.013 A 
HETATM   28 BR1  UNL     1      29.397   1.339  54.537  1.00  0.00    -0.051 Br
HETATM   29  C17 UNL     1      26.782   0.253  53.957  1.00  0.00     0.048 A 
ENDBRANCH  21  23
ENDBRANCH   4  21
TORSDOF 7
ENDMDL
MODEL 6
REMARK VINA RESULT:      -7.4      3.526      8.121
REMARK  7 active torsions:
REMARK  status: ('A' for Active; 'I' for Inactive)
REMARK    1  A    between atoms: N1_2  and  C3_4 
REMARK    2  A    between atoms: C3_4  and  C4_5 
REMARK    3  A    between atoms: C5_6  and  C6_7 
REMARK       I    between atoms: C6_7  and  N2_9 
REMARK    4  A    between atoms: N2_9  and  C7_10 
REMARK    5  A    between atoms: C7_10  and  C8_11 
REMARK    6  A    between atoms: C11_14  and  N3_15 
REMARK    7  A    between atoms: N3_15  and  C12_16 
ROOT
HETATM    1  C8  UNL     1      27.426   5.711  48.734  1.00  0.00    -0.040 A 
HETATM    2  C9  UNL     1      27.604   6.994  48.448  1.00  0.00     0.024 A 
HETATM    3  C10 UNL     1      28.876   6.590  47.850  1.00  0.00    -0.012 A 
HETATM    4  C11 UNL     1      29.638   7.520  47.311  1.00  0.00     0.038 A 
HETATM    5  C18 UNL     1      29.431   8.953  47.196  1.00  0.00     0.214 A 
HETATM    6  N4  UNL     1      28.246   9.488  47.733  1.00  0.00    -0.259 NA
HETATM    7  S1  UNL     1      27.098   8.696  48.452  1.00  0.00    -0.076 SA
HETATM    8  C19 UNL     1      25.500   8.924  47.691  1.00  0.00     0.109 C 
HETATM    9  C20 UNL     1      28.686   5.153  48.170  1.00  0.00     0.079 A 
ENDROOT
BRANCH   1  10
HETATM   10  C7  UNL     1      26.297   5.029  49.421  1.00  0.00     0.158 C 
BRANCH  10  11
HETATM   11  N2  UNL     1      26.733   3.916  50.256  1.00  0.00    -0.354 N 
HETATM   12  C6  UNL     1      25.699   3.147  50.894  1.00  0.00     0.241 C 
HETATM   13  O1  UNL     1      24.630   3.729  50.499  1.00  0.00    -0.269 OA
HETATM   14  H11 UNL     1      27.778   3.747  50.338  1.00  0.00     0.163 HD
BRANCH  12  15
HETATM   15  C5  UNL     1      26.070   2.026  51.738  1.00  0.00     0.072 C 
HETATM   16  C4  UNL     1      26.999   1.566  52.543  1.00  0.00     0.008 C 
BRANCH  16  17
HETATM   17  C3  UNL     1      28.295   1.926  53.109  1.00  0.00     0.299 C 
BRANCH  17  18
HETATM   18  N1  UNL     1      28.720   1.024  54.166  1.00  0.00     0.083 N 
HETATM   19  C1  UNL     1      27.603   0.272  54.661  1.00  0.00     0.309 C 
HETATM   20  C2  UNL     1      29.758   0.126  53.758  1.00  0.00     0.309 C 
ENDBRANCH  17  18
ENDBRANCH  16  17
ENDBRANCH  12  15
ENDBRANCH  10  11
ENDBRANCH   1  10
BRANCH   4  21
HETATM   21  N3  UNL     1      30.884   7.165  46.720  1.00  0.00    -0.358 N 
HETATM   22  H14 UNL     1      30.771   7.493  45.732  1.00  0.00     0.166 HD
BRANCH  21  23
HETATM   23  C12 UNL     1      32.063   6.537  47.178  1.00  0.00     0.033 A 
HETATM   24  C13 UNL     1      32.500   6.776  48.463  1.00  0.00     0.029 A 
HETATM   25  C14 UNL     1      33.658   6.117  48.813  1.00  0.00     0.004 A 
HETATM   26  C15 UNL     1      34.372   5.273  47.990  1.00  0.00     0.019 A 
HETATM   27  C16 UNL     1      33.900   5.063  46.719  1.00  0.00     0.013 A 
HETATM   28 BR1  UNL     1      34.873   3.893  45.554  1.00  0.00    -0.051 Br
HETATM   29  C17 UNL     1      32.748   5.698  46.322  1.00  0.00     0.048 A 
ENDBRANCH  21  23
ENDBRANCH   4  21
TORSDOF 7
ENDMDL
MODEL 7
REMARK VINA RESULT:      -7.4      1.745      2.259
REMARK  7 active torsions:
REMARK  status: ('A' for Active; 'I' for Inactive)
REMARK    1  A    between atoms: N1_2  and  C3_4 
REMARK    2  A    between atoms: C3_4  and  C4_5 
REMARK    3  A    between atoms: C5_6  and  C6_7 
REMARK       I    between atoms: C6_7  and  N2_9 
REMARK    4  A    between atoms: N2_9  and  C7_10 
REMARK    5  A    between atoms: C7_10  and  C8_11 
REMARK    6  A    between atoms: C11_14  and  N3_15 
REMARK    7  A    between atoms: N3_15  and  C12_16 
ROOT
HETATM    1  C8  UNL     1      27.631   6.305  48.282  1.00  0.00    -0.040 A 
HETATM    2  C9  UNL     1      26.386   6.296  48.741  1.00  0.00     0.024 A 
HETATM    3  C10 UNL     1      26.629   4.902  49.111  1.00  0.00    -0.012 A 
HETATM    4  C11 UNL     1      25.657   4.228  49.691  1.00  0.00     0.038 A 
HETATM    5  C18 UNL     1      24.313   4.644  50.052  1.00  0.00     0.214 A 
HETATM    6  N4  UNL     1      23.934   5.965  49.753  1.00  0.00    -0.259 NA
HETATM    7  S1  UNL     1      24.818   7.063  49.063  1.00  0.00    -0.076 SA
HETATM    8  C19 UNL     1      24.984   8.549  50.039  1.00  0.00     0.109 C 
HETATM    9  C20 UNL     1      28.022   4.903  48.596  1.00  0.00     0.079 A 
ENDROOT
BRANCH   1  10
HETATM   10  C7  UNL     1      28.407   7.398  47.640  1.00  0.00     0.158 C 
BRANCH  10  11
HETATM   11  N2  UNL     1      29.844   7.151  47.649  1.00  0.00    -0.354 N 
HETATM   12  C6  UNL     1      30.619   7.892  48.607  1.00  0.00     0.241 C 
HETATM   13  O1  UNL     1      29.732   8.596  49.202  1.00  0.00    -0.269 OA
HETATM   14  H11 UNL     1      30.223   6.445  46.951  1.00  0.00     0.163 HD
BRANCH  12  15
HETATM   15  C5  UNL     1      32.054   7.689  48.664  1.00  0.00     0.072 C 
HETATM   16  C4  UNL     1      33.007   6.797  48.521  1.00  0.00     0.008 C 
BRANCH  16  17
HETATM   17  C3  UNL     1      33.207   5.388  48.199  1.00  0.00     0.299 C 
BRANCH  17  18
HETATM   18  N1  UNL     1      34.609   5.030  48.077  1.00  0.00     0.083 N 
HETATM   19  C1  UNL     1      35.338   5.462  49.235  1.00  0.00     0.309 C 
HETATM   20  C2  UNL     1      34.818   3.628  47.877  1.00  0.00     0.309 C 
ENDBRANCH  17  18
ENDBRANCH  16  17
ENDBRANCH  12  15
ENDBRANCH  10  11
ENDBRANCH   1  10
BRANCH   4  21
HETATM   21  N3  UNL     1      25.858   2.869  50.065  1.00  0.00    -0.358 N 
HETATM   22  H14 UNL     1      25.957   2.389  49.139  1.00  0.00     0.166 HD
BRANCH  21  23
HETATM   23  C12 UNL     1      25.931   2.171  51.290  1.00  0.00     0.033 A 
HETATM   24  C13 UNL     1      24.798   1.570  51.794  1.00  0.00     0.029 A 
HETATM   25  C14 UNL     1      24.975   0.915  52.993  1.00  0.00     0.004 A 
HETATM   26  C15 UNL     1      26.165   0.831  53.685  1.00  0.00     0.019 A 
HETATM   27  C16 UNL     1      27.267   1.444  53.146  1.00  0.00     0.013 A 
HETATM   28 BR1  UNL     1      28.933   1.342  54.087  1.00  0.00    -0.051 Br
HETATM   29  C17 UNL     1      27.142   2.110  51.951  1.00  0.00     0.048 A 
ENDBRANCH  21  23
ENDBRANCH   4  21
TORSDOF 7
ENDMDL
MODEL 8
REMARK VINA RESULT:      -7.4      2.883      3.306
REMARK  7 active torsions:
REMARK  status: ('A' for Active; 'I' for Inactive)
REMARK    1  A    between atoms: N1_2  and  C3_4 
REMARK    2  A    between atoms: C3_4  and  C4_5 
REMARK    3  A    between atoms: C5_6  and  C6_7 
REMARK       I    between atoms: C6_7  and  N2_9 
REMARK    4  A    between atoms: N2_9  and  C7_10 
REMARK    5  A    between atoms: C7_10  and  C8_11 
REMARK    6  A    between atoms: C11_14  and  N3_15 
REMARK    7  A    between atoms: N3_15  and  C12_16 
ROOT
HETATM    1  C8  UNL     1      26.673   4.510  49.428  1.00  0.00    -0.040 A 
HETATM    2  C9  UNL     1      25.664   5.294  49.786  1.00  0.00     0.024 A 
HETATM    3  C10 UNL     1      25.214   4.180  50.619  1.00  0.00    -0.012 A 
HETATM    4  C11 UNL     1      24.117   4.334  51.332  1.00  0.00     0.038 A 
HETATM    5  C18 UNL     1      23.226   5.475  51.449  1.00  0.00     0.214 A 
HETATM    6  N4  UNL     1      23.532   6.624  50.697  1.00  0.00    -0.259 NA
HETATM    7  S1  UNL     1      24.755   6.818  49.733  1.00  0.00    -0.076 SA
HETATM    8  C19 UNL     1      25.771   8.223  50.156  1.00  0.00     0.109 C 
HETATM    9  C20 UNL     1      26.338   3.296  50.221  1.00  0.00     0.079 A 
ENDROOT
BRANCH   1  10
HETATM   10  C7  UNL     1      27.807   4.770  48.503  1.00  0.00     0.158 C 
BRANCH  10  11
HETATM   11  N2  UNL     1      28.500   6.020  48.795  1.00  0.00    -0.354 N 
HETATM   12  C6  UNL     1      29.894   6.080  48.447  1.00  0.00     0.241 C 
HETATM   13  O1  UNL     1      30.110   4.921  47.950  1.00  0.00    -0.269 OA
HETATM   14  H11 UNL     1      27.933   6.799  49.242  1.00  0.00     0.163 HD
BRANCH  12  15
HETATM   15  C5  UNL     1      30.637   7.298  48.713  1.00  0.00     0.072 C 
HETATM   16  C4  UNL     1      31.844   7.802  48.824  1.00  0.00     0.008 C 
BRANCH  16  17
HETATM   17  C3  UNL     1      33.249   7.418  48.741  1.00  0.00     0.299 C 
BRANCH  17  18
HETATM   18  N1  UNL     1      33.987   8.187  47.753  1.00  0.00     0.083 N 
HETATM   19  C1  UNL     1      35.372   8.273  48.120  1.00  0.00     0.309 C 
HETATM   20  C2  UNL     1      33.877   7.658  46.428  1.00  0.00     0.309 C 
ENDBRANCH  17  18
ENDBRANCH  16  17
ENDBRANCH  12  15
ENDBRANCH  10  11
ENDBRANCH   1  10
BRANCH   4  21
HETATM   21  N3  UNL     1      23.648   3.271  52.156  1.00  0.00    -0.358 N 
HETATM   22  H14 UNL     1      24.062   3.503  53.089  1.00  0.00     0.166 HD
BRANCH  21  23
HETATM   23  C12 UNL     1      22.840   2.131  51.949  1.00  0.00     0.033 A 
HETATM   24  C13 UNL     1      22.284   1.913  50.707  1.00  0.00     0.029 A 
HETATM   25  C14 UNL     1      21.515   0.774  50.609  1.00  0.00     0.004 A 
HETATM   26  C15 UNL     1      21.281  -0.118  51.634  1.00  0.00     0.019 A 
HETATM   27  C16 UNL     1      21.855   0.138  52.853  1.00  0.00     0.013 A 
HETATM   28 BR1  UNL     1      21.547  -1.086  54.294  1.00  0.00    -0.051 Br
HETATM   29  C17 UNL     1      22.632   1.261  53.002  1.00  0.00     0.048 A 
ENDBRANCH  21  23
ENDBRANCH   4  21
TORSDOF 7
ENDMDL
MODEL 9
REMARK VINA RESULT:      -7.3      3.938      7.983
REMARK  7 active torsions:
REMARK  status: ('A' for Active; 'I' for Inactive)
REMARK    1  A    between atoms: N1_2  and  C3_4 
REMARK    2  A    between atoms: C3_4  and  C4_5 
REMARK    3  A    between atoms: C5_6  and  C6_7 
REMARK       I    between atoms: C6_7  and  N2_9 
REMARK    4  A    between atoms: N2_9  and  C7_10 
REMARK    5  A    between atoms: C7_10  and  C8_11 
REMARK    6  A    between atoms: C11_14  and  N3_15 
REMARK    7  A    between atoms: N3_15  and  C12_16 
ROOT
HETATM    1  C8  UNL     1      26.685   4.552  49.196  1.00  0.00    -0.040 A 
HETATM    2  C9  UNL     1      26.008   5.691  49.117  1.00  0.00     0.024 A 
HETATM    3  C10 UNL     1      27.187   6.238  48.447  1.00  0.00    -0.012 A 
HETATM    4  C11 UNL     1      27.159   7.495  48.055  1.00  0.00     0.038 A 
HETATM    5  C18 UNL     1      26.107   8.491  48.172  1.00  0.00     0.214 A 
HETATM    6  N4  UNL     1      24.909   8.106  48.801  1.00  0.00    -0.259 NA
HETATM    7  S1  UNL     1      24.572   6.695  49.398  1.00  0.00    -0.076 SA
HETATM    8  C19 UNL     1      23.097   5.970  48.702  1.00  0.00     0.109 C 
HETATM    9  C20 UNL     1      27.952   4.968  48.535  1.00  0.00     0.079 A 
ENDROOT
BRANCH   1  10
HETATM   10  C7  UNL     1      26.291   3.242  49.779  1.00  0.00     0.158 C 
BRANCH  10  11
HETATM   11  N2  UNL     1      26.595   3.141  51.201  1.00  0.00    -0.354 N 
HETATM   12  C6  UNL     1      25.728   2.307  51.988  1.00  0.00     0.241 C 
HETATM   13  O1  UNL     1      24.889   1.878  51.122  1.00  0.00    -0.269 OA
HETATM   14  H11 UNL     1      27.432   3.687  51.561  1.00  0.00     0.163 HD
BRANCH  12  15
HETATM   15  C5  UNL     1      25.981   2.167  53.410  1.00  0.00     0.072 C 
HETATM   16  C4  UNL     1      26.485   1.372  54.325  1.00  0.00     0.008 C 
BRANCH  16  17
HETATM   17  C3  UNL     1      27.132   0.073  54.472  1.00  0.00     0.299 C 
BRANCH  17  18
HETATM   18  N1  UNL     1      27.638  -0.452  53.215  1.00  0.00     0.083 N 
HETATM   19  C1  UNL     1      28.913  -1.081  53.413  1.00  0.00     0.309 C 
HETATM   20  C2  UNL     1      26.742  -1.377  52.588  1.00  0.00     0.309 C 
ENDBRANCH  17  18
ENDBRANCH  16  17
ENDBRANCH  12  15
ENDBRANCH  10  11
ENDBRANCH   1  10
BRANCH   4  21
HETATM   21  N3  UNL     1      28.289   8.063  47.400  1.00  0.00    -0.358 N 
HETATM   22  H14 UNL     1      27.868   8.475  46.533  1.00  0.00     0.166 HD
BRANCH  21  23
HETATM   23  C12 UNL     1      29.669   8.147  47.684  1.00  0.00     0.033 A 
HETATM   24  C13 UNL     1      30.084   8.782  48.834  1.00  0.00     0.029 A 
HETATM   25  C14 UNL     1      31.449   8.809  49.020  1.00  0.00     0.004 A 
HETATM   26  C15 UNL     1      32.379   8.263  48.161  1.00  0.00     0.019 A 
HETATM   27  C16 UNL     1      31.921   7.639  47.029  1.00  0.00     0.013 A 
HETATM   28 BR1  UNL     1      33.192   6.870  45.819  1.00  0.00    -0.051 Br
HETATM   29  C17 UNL     1      30.568   7.585  46.798  1.00  0.00     0.048 A 
ENDBRANCH  21  23
ENDBRANCH   4  21
TORSDOF 7
ENDMDL
