MODEL 1
REMARK VINA RESULT:      -7.6      0.000      0.000
REMARK  5 active torsions:
REMARK  status: ('A' for Active; 'I' for Inactive)
REMARK    1  A    between atoms: O1_2  and  C2_3 
REMARK    2  A    between atoms: N1_7  and  C6_8 
REMARK    3  A    between atoms: C9_12  and  N3_13 
REMARK    4  A    between atoms: N3_13  and  C10_14 
REMARK    5  A    between atoms: C15_19  and  O2_20 
ROOT
HETATM    1  C6  UNL     1      22.449   0.805  52.420  1.00  0.00     0.150 A 
HETATM    2  C7  UNL     1      22.518   2.174  52.546  1.00  0.00     0.071 A 
HETATM    3  C8  UNL     1      23.608   2.968  52.747  1.00  0.00     0.140 A 
HETATM    4  N2  UNL     1      24.683   2.225  52.815  1.00  0.00    -0.075 NA
HETATM    5  C9  UNL     1      24.774   0.864  52.711  1.00  0.00     0.728 A 
HETATM    6  N4  UNL     1      23.597   0.169  52.506  1.00  0.00    -0.045 NA
ENDROOT
BRANCH   5   7
HETATM    7  N3  UNL     1      25.951   0.156  52.916  1.00  0.00    -0.185 N 
HETATM    8  H9  UNL     1      25.402  -0.682  53.303  1.00  0.00     0.184 HD
BRANCH   7   9
HETATM    9  C10 UNL     1      27.137  -0.539  53.123  1.00  0.00     0.082 A 
HETATM   10  C11 UNL     1      27.196  -1.848  52.702  1.00  0.00     0.033 A 
HETATM   11  C12 UNL     1      28.374  -2.539  52.876  1.00  0.00     0.002 A 
HETATM   12  C13 UNL     1      29.439  -1.910  53.457  1.00  0.00     0.003 A 
HETATM   13  C14 UNL     1      29.494  -0.590  53.921  1.00  0.00     0.039 A 
HETATM   14  C15 UNL     1      28.295   0.067  53.731  1.00  0.00     0.095 A 
BRANCH  14  15
HETATM   15  O2  UNL     1      27.963   1.351  54.059  1.00  0.00    -0.354 OA
HETATM   16  C16 UNL     1      28.541   2.497  53.593  1.00  0.00     0.210 C 
ENDBRANCH  14  15
ENDBRANCH   7   9
ENDBRANCH   5   7
BRANCH   1  17
HETATM   17  N1  UNL     1      21.067   0.463  52.276  1.00  0.00    -0.335 N 
HETATM   18  C5  UNL     1      20.534   0.906  51.037  1.00  0.00     0.093 A 
HETATM   19  C4  UNL     1      19.279   0.655  50.722  1.00  0.00     0.020 A 
HETATM   20  C3  UNL     1      18.460  -0.079  51.666  1.00  0.00     0.035 A 
HETATM   21  C2  UNL     1      18.932  -0.501  52.811  1.00  0.00     0.064 A 
HETATM   22  C17 UNL     1      20.307  -0.293  53.271  1.00  0.00     0.194 A 
BRANCH  21  23
HETATM   23  O1  UNL     1      18.098  -1.206  53.686  1.00  0.00    -0.359 OA
HETATM   24  C1  UNL     1      17.704  -2.536  53.546  1.00  0.00     0.209 C 
ENDBRANCH  21  23
ENDBRANCH   1  17
TORSDOF 5
ENDMDL
MODEL 2
REMARK VINA RESULT:      -7.5      1.546      7.754
REMARK  5 active torsions:
REMARK  status: ('A' for Active; 'I' for Inactive)
REMARK    1  A    between atoms: O1_2  and  C2_3 
REMARK    2  A    between atoms: N1_7  and  C6_8 
REMARK    3  A    between atoms: C9_12  and  N3_13 
REMARK    4  A    between atoms: N3_13  and  C10_14 
REMARK    5  A    between atoms: C15_19  and  O2_20 
ROOT
HETATM    1  C6  UNL     1      25.468   1.348  52.366  1.00  0.00     0.150 A 
HETATM    2  C7  UNL     1      25.618   2.351  51.435  1.00  0.00     0.071 A 
HETATM    3  C8  UNL     1      24.671   2.971  50.675  1.00  0.00     0.140 A 
HETATM    4  N2  UNL     1      23.495   2.468  50.946  1.00  0.00    -0.075 NA
HETATM    5  C9  UNL     1      23.189   1.476  51.838  1.00  0.00     0.728 A 
HETATM    6  N4  UNL     1      24.237   0.926  52.551  1.00  0.00    -0.045 NA
ENDROOT
BRANCH   5   7
HETATM    7  N3  UNL     1      21.920   0.927  51.968  1.00  0.00    -0.185 N 
HETATM    8  H9  UNL     1      22.286  -0.038  51.670  1.00  0.00     0.184 HD
BRANCH   7   9
HETATM    9  C10 UNL     1      20.643   0.391  52.096  1.00  0.00     0.082 A 
HETATM   10  C11 UNL     1      19.758   0.583  51.059  1.00  0.00     0.033 A 
HETATM   11  C12 UNL     1      18.500   0.034  51.163  1.00  0.00     0.002 A 
HETATM   12  C13 UNL     1      18.170  -0.678  52.282  1.00  0.00     0.003 A 
HETATM   13  C14 UNL     1      18.984  -0.937  53.391  1.00  0.00     0.039 A 
HETATM   14  C15 UNL     1      20.234  -0.369  53.250  1.00  0.00     0.095 A 
BRANCH  14  15
HETATM   15  O2  UNL     1      21.288  -0.397  54.119  1.00  0.00    -0.354 OA
HETATM   16  C16 UNL     1      21.953  -1.500  54.575  1.00  0.00     0.210 C 
ENDBRANCH  14  15
ENDBRANCH   7   9
ENDBRANCH   5   7
BRANCH   1  17
HETATM   17  N1  UNL     1      26.776   1.014  52.842  1.00  0.00    -0.335 N 
HETATM   18  C5  UNL     1      27.528   2.168  53.187  1.00  0.00     0.093 A 
HETATM   19  C4  UNL     1      28.749   2.049  53.669  1.00  0.00     0.020 A 
HETATM   20  C3  UNL     1      29.303   0.720  53.836  1.00  0.00     0.035 A 
HETATM   21  C2  UNL     1      28.626  -0.356  53.529  1.00  0.00     0.064 A 
HETATM   22  C17 UNL     1      27.262  -0.356  52.994  1.00  0.00     0.194 A 
BRANCH  21  23
HETATM   23  O1  UNL     1      29.207  -1.616  53.711  1.00  0.00    -0.359 OA
HETATM   24  C1  UNL     1      28.763  -2.811  53.147  1.00  0.00     0.209 C 
ENDBRANCH  21  23
ENDBRANCH   1  17
TORSDOF 5
ENDMDL
MODEL 3
REMARK VINA RESULT:      -7.4      4.928      7.730
REMARK  5 active torsions:
REMARK  status: ('A' for Active; 'I' for Inactive)
REMARK    1  A    between atoms: O1_2  and  C2_3 
REMARK    2  A    between atoms: N1_7  and  C6_8 
REMARK    3  A    between atoms: C9_12  and  N3_13 
REMARK    4  A    between atoms: N3_13  and  C10_14 
REMARK    5  A    between atoms: C15_19  and  O2_20 
ROOT
HETATM    1  C6  UNL     1      26.009   2.392  51.144  1.00  0.00     0.150 A 
HETATM    2  C7  UNL     1      24.675   2.586  50.867  1.00  0.00     0.071 A 
HETATM    3  C8  UNL     1      24.093   3.460  49.997  1.00  0.00     0.140 A 
HETATM    4  N2  UNL     1      25.020   4.162  49.397  1.00  0.00    -0.075 NA
HETATM    5  C9  UNL     1      26.375   4.085  49.566  1.00  0.00     0.728 A 
HETATM    6  N4  UNL     1      26.844   3.157  50.477  1.00  0.00    -0.045 NA
ENDROOT
BRANCH   5   7
HETATM    7  N3  UNL     1      27.274   4.959  48.968  1.00  0.00    -0.185 N 
HETATM    8  H9  UNL     1      26.983   5.746  49.637  1.00  0.00     0.184 HD
BRANCH   7   9
HETATM    9  C10 UNL     1      28.172   5.826  48.355  1.00  0.00     0.082 A 
HETATM   10  C11 UNL     1      29.467   5.392  48.183  1.00  0.00     0.033 A 
HETATM   11  C12 UNL     1      30.359   6.230  47.554  1.00  0.00     0.002 A 
HETATM   12  C13 UNL     1      29.937   7.456  47.124  1.00  0.00     0.003 A 
HETATM   13  C14 UNL     1      28.652   8.000  47.243  1.00  0.00     0.039 A 
HETATM   14  C15 UNL     1      27.789   7.131  47.881  1.00  0.00     0.095 A 
BRANCH  14  15
HETATM   15  O2  UNL     1      26.469   7.309  48.185  1.00  0.00    -0.354 OA
HETATM   16  C16 UNL     1      25.470   7.687  47.334  1.00  0.00     0.210 C 
ENDBRANCH  14  15
ENDBRANCH   7   9
ENDBRANCH   5   7
BRANCH   1  17
HETATM   17  N1  UNL     1      26.086   1.396  52.169  1.00  0.00    -0.335 N 
HETATM   18  C5  UNL     1      24.804   0.916  52.545  1.00  0.00     0.093 A 
HETATM   19  C4  UNL     1      24.684  -0.025  53.459  1.00  0.00     0.020 A 
HETATM   20  C3  UNL     1      25.887  -0.556  54.070  1.00  0.00     0.035 A 
HETATM   21  C2  UNL     1      27.079  -0.132  53.735  1.00  0.00     0.064 A 
HETATM   22  C17 UNL     1      27.342   0.901  52.730  1.00  0.00     0.194 A 
BRANCH  21  23
HETATM   23  O1  UNL     1      28.207  -0.679  54.355  1.00  0.00    -0.359 OA
HETATM   24  C1  UNL     1      29.490  -0.740  53.812  1.00  0.00     0.209 C 
ENDBRANCH  21  23
ENDBRANCH   1  17
TORSDOF 5
ENDMDL
MODEL 4
REMARK VINA RESULT:      -7.3      3.333      5.368
REMARK  5 active torsions:
REMARK  status: ('A' for Active; 'I' for Inactive)
REMARK    1  A    between atoms: O1_2  and  C2_3 
REMARK    2  A    between atoms: N1_7  and  C6_8 
REMARK    3  A    between atoms: C9_12  and  N3_13 
REMARK    4  A    between atoms: N3_13  and  C10_14 
REMARK    5  A    between atoms: C15_19  and  O2_20 
ROOT
HETATM    1  C6  UNL     1      24.224   0.716  52.645  1.00  0.00     0.150 A 
HETATM    2  C7  UNL     1      25.300  -0.125  52.814  1.00  0.00     0.071 A 
HETATM    3  C8  UNL     1      26.594   0.038  52.416  1.00  0.00     0.140 A 
HETATM    4  N2  UNL     1      26.719   1.184  51.797  1.00  0.00    -0.075 NA
HETATM    5  C9  UNL     1      25.751   2.119  51.552  1.00  0.00     0.728 A 
HETATM    6  N4  UNL     1      24.476   1.838  52.008  1.00  0.00    -0.045 NA
ENDROOT
BRANCH   5   7
HETATM    7  N3  UNL     1      25.959   3.254  50.780  1.00  0.00    -0.185 N 
HETATM    8  H9  UNL     1      25.057   3.067  50.228  1.00  0.00     0.184 HD
BRANCH   7   9
HETATM    9  C10 UNL     1      26.182   4.390  50.010  1.00  0.00     0.082 A 
HETATM   10  C11 UNL     1      27.269   4.391  49.166  1.00  0.00     0.033 A 
HETATM   11  C12 UNL     1      27.485   5.499  48.378  1.00  0.00     0.002 A 
HETATM   12  C13 UNL     1      26.622   6.555  48.458  1.00  0.00     0.003 A 
HETATM   13  C14 UNL     1      25.490   6.665  49.274  1.00  0.00     0.039 A 
HETATM   14  C15 UNL     1      25.309   5.536  50.049  1.00  0.00     0.095 A 
BRANCH  14  15
HETATM   15  O2  UNL     1      24.330   5.278  50.965  1.00  0.00    -0.354 OA
HETATM   16  C16 UNL     1      23.064   5.790  50.988  1.00  0.00     0.210 C 
ENDBRANCH  14  15
ENDBRANCH   7   9
ENDBRANCH   5   7
BRANCH   1  17
HETATM   17  N1  UNL     1      23.081   0.057  53.199  1.00  0.00    -0.335 N 
HETATM   18  C5  UNL     1      23.423  -0.757  54.311  1.00  0.00     0.093 A 
HETATM   19  C4  UNL     1      22.490  -1.421  54.964  1.00  0.00     0.020 A 
HETATM   20  C3  UNL     1      21.114  -1.301  54.522  1.00  0.00     0.035 A 
HETATM   21  C2  UNL     1      20.777  -0.553  53.503  1.00  0.00     0.064 A 
HETATM   22  C17 UNL     1      21.718   0.237  52.704  1.00  0.00     0.194 A 
BRANCH  21  23
HETATM   23  O1  UNL     1      19.434  -0.471  53.118  1.00  0.00    -0.359 OA
HETATM   24  C1  UNL     1      18.965  -0.071  51.868  1.00  0.00     0.209 C 
ENDBRANCH  21  23
ENDBRANCH   1  17
TORSDOF 5
ENDMDL
MODEL 5
REMARK VINA RESULT:      -7.3      3.999      7.294
REMARK  5 active torsions:
REMARK  status: ('A' for Active; 'I' for Inactive)
REMARK    1  A    between atoms: O1_2  and  C2_3 
REMARK    2  A    between atoms: N1_7  and  C6_8 
REMARK    3  A    between atoms: C9_12  and  N3_13 
REMARK    4  A    between atoms: N3_13  and  C10_14 
REMARK    5  A    between atoms: C15_19  and  O2_20 
ROOT
HETATM    1  C6  UNL     1      24.652   3.440  49.845  1.00  0.00     0.150 A 
HETATM    2  C7  UNL     1      23.674   3.260  48.893  1.00  0.00     0.071 A 
HETATM    3  C8  UNL     1      22.579   2.448  48.924  1.00  0.00     0.140 A 
HETATM    4  N2  UNL     1      22.550   1.797  50.058  1.00  0.00    -0.075 NA
HETATM    5  C9  UNL     1      23.443   1.868  51.093  1.00  0.00     0.728 A 
HETATM    6  N4  UNL     1      24.513   2.729  50.942  1.00  0.00    -0.045 NA
ENDROOT
BRANCH   5   7
HETATM    7  N3  UNL     1      23.389   1.044  52.210  1.00  0.00    -0.185 N 
HETATM    8  H9  UNL     1      22.722   1.724  52.704  1.00  0.00     0.184 HD
BRANCH   7   9
HETATM    9  C10 UNL     1      23.349   0.213  53.324  1.00  0.00     0.082 A 
HETATM   10  C11 UNL     1      22.116  -0.201  53.773  1.00  0.00     0.033 A 
HETATM   11  C12 UNL     1      22.065  -1.046  54.858  1.00  0.00     0.002 A 
HETATM   12  C13 UNL     1      23.229  -1.444  55.452  1.00  0.00     0.003 A 
HETATM   13  C14 UNL     1      24.533  -1.090  55.084  1.00  0.00     0.039 A 
HETATM   14  C15 UNL     1      24.542  -0.242  53.994  1.00  0.00     0.095 A 
BRANCH  14  15
HETATM   15  O2  UNL     1      25.612   0.320  53.358  1.00  0.00    -0.354 OA
HETATM   16  C16 UNL     1      26.579   1.110  53.911  1.00  0.00     0.210 C 
ENDBRANCH  14  15
ENDBRANCH   7   9
ENDBRANCH   5   7
BRANCH   1  17
HETATM   17  N1  UNL     1      25.605   4.360  49.302  1.00  0.00    -0.335 N 
HETATM   18  C5  UNL     1      25.022   5.621  49.010  1.00  0.00     0.093 A 
HETATM   19  C4  UNL     1      25.759   6.601  48.526  1.00  0.00     0.020 A 
HETATM   20  C3  UNL     1      27.171   6.362  48.301  1.00  0.00     0.035 A 
HETATM   21  C2  UNL     1      27.729   5.209  48.568  1.00  0.00     0.064 A 
HETATM   22  C17 UNL     1      27.021   4.048  49.114  1.00  0.00     0.194 A 
BRANCH  21  23
HETATM   23  O1  UNL     1      29.097   5.031  48.333  1.00  0.00    -0.359 OA
HETATM   24  C1  UNL     1      30.089   5.995  48.510  1.00  0.00     0.209 C 
ENDBRANCH  21  23
ENDBRANCH   1  17
TORSDOF 5
ENDMDL
MODEL 6
REMARK VINA RESULT:      -7.3      2.147      2.998
REMARK  5 active torsions:
REMARK  status: ('A' for Active; 'I' for Inactive)
REMARK    1  A    between atoms: O1_2  and  C2_3 
REMARK    2  A    between atoms: N1_7  and  C6_8 
REMARK    3  A    between atoms: C9_12  and  N3_13 
REMARK    4  A    between atoms: N3_13  and  C10_14 
REMARK    5  A    between atoms: C15_19  and  O2_20 
ROOT
HETATM    1  C6  UNL     1      22.807   1.306  53.000  1.00  0.00     0.150 A 
HETATM    2  C7  UNL     1      21.968   0.410  53.623  1.00  0.00     0.071 A 
HETATM    3  C8  UNL     1      22.273  -0.754  54.266  1.00  0.00     0.140 A 
HETATM    4  N2  UNL     1      23.566  -0.950  54.224  1.00  0.00    -0.075 NA
HETATM    5  C9  UNL     1      24.519  -0.158  53.646  1.00  0.00     0.728 A 
HETATM    6  N4  UNL     1      24.085   0.998  53.025  1.00  0.00    -0.045 NA
ENDROOT
BRANCH   5   7
HETATM    7  N3  UNL     1      25.858  -0.514  53.551  1.00  0.00    -0.185 N 
HETATM    8  H9  UNL     1      25.706  -0.900  52.561  1.00  0.00     0.184 HD
BRANCH   7   9
HETATM    9  C10 UNL     1      27.200  -0.871  53.472  1.00  0.00     0.082 A 
HETATM   10  C11 UNL     1      27.501  -2.147  53.051  1.00  0.00     0.033 A 
HETATM   11  C12 UNL     1      28.826  -2.503  52.943  1.00  0.00     0.002 A 
HETATM   12  C13 UNL     1      29.793  -1.590  53.255  1.00  0.00     0.003 A 
HETATM   13  C14 UNL     1      29.605  -0.272  53.690  1.00  0.00     0.039 A 
HETATM   14  C15 UNL     1      28.265   0.046  53.787  1.00  0.00     0.095 A 
BRANCH  14  15
HETATM   15  O2  UNL     1      27.694   1.222  54.183  1.00  0.00    -0.354 OA
HETATM   16  C16 UNL     1      28.018   2.480  53.761  1.00  0.00     0.210 C 
ENDBRANCH  14  15
ENDBRANCH   7   9
ENDBRANCH   5   7
BRANCH   1  17
HETATM   17  N1  UNL     1      21.984   2.333  52.436  1.00  0.00    -0.335 N 
HETATM   18  C5  UNL     1      22.737   3.254  51.662  1.00  0.00     0.093 A 
HETATM   19  C4  UNL     1      22.138   4.254  51.046  1.00  0.00     0.020 A 
HETATM   20  C3  UNL     1      20.701   4.390  51.177  1.00  0.00     0.035 A 
HETATM   21  C2  UNL     1      19.987   3.549  51.882  1.00  0.00     0.064 A 
HETATM   22  C17 UNL     1      20.533   2.397  52.605  1.00  0.00     0.194 A 
BRANCH  21  23
HETATM   23  O1  UNL     1      18.603   3.726  51.976  1.00  0.00    -0.359 OA
HETATM   24  C1  UNL     1      17.736   3.978  50.913  1.00  0.00     0.209 C 
ENDBRANCH  21  23
ENDBRANCH   1  17
TORSDOF 5
ENDMDL
MODEL 7
REMARK VINA RESULT:      -7.2      1.601      8.473
REMARK  5 active torsions:
REMARK  status: ('A' for Active; 'I' for Inactive)
REMARK    1  A    between atoms: O1_2  and  C2_3 
REMARK    2  A    between atoms: N1_7  and  C6_8 
REMARK    3  A    between atoms: C9_12  and  N3_13 
REMARK    4  A    between atoms: N3_13  and  C10_14 
REMARK    5  A    between atoms: C15_19  and  O2_20 
ROOT
HETATM    1  C6  UNL     1      23.709  -0.361  53.381  1.00  0.00     0.150 A 
HETATM    2  C7  UNL     1      23.575  -0.910  54.636  1.00  0.00     0.071 A 
HETATM    3  C8  UNL     1      22.448  -1.333  55.277  1.00  0.00     0.140 A 
HETATM    4  N2  UNL     1      21.409  -1.144  54.505  1.00  0.00    -0.075 NA
HETATM    5  C9  UNL     1      21.383  -0.612  53.244  1.00  0.00     0.728 A 
HETATM    6  N4  UNL     1      22.592  -0.221  52.701  1.00  0.00    -0.045 NA
ENDROOT
BRANCH   5   7
HETATM    7  N3  UNL     1      20.211  -0.342  52.550  1.00  0.00    -0.185 N 
HETATM    8  H9  UNL     1      20.691   0.452  52.011  1.00  0.00     0.184 HD
BRANCH   7   9
HETATM    9  C10 UNL     1      19.029  -0.078  51.867  1.00  0.00     0.082 A 
HETATM   10  C11 UNL     1      19.102   0.702  50.735  1.00  0.00     0.033 A 
HETATM   11  C12 UNL     1      17.943   0.947  50.035  1.00  0.00     0.002 A 
HETATM   12  C13 UNL     1      16.765   0.415  50.480  1.00  0.00     0.003 A 
HETATM   13  C14 UNL     1      16.573  -0.389  51.610  1.00  0.00     0.039 A 
HETATM   14  C15 UNL     1      17.757  -0.611  52.286  1.00  0.00     0.095 A 
BRANCH  14  15
HETATM   15  O2  UNL     1      17.967  -1.331  53.427  1.00  0.00    -0.354 OA
HETATM   16  C16 UNL     1      17.732  -2.663  53.617  1.00  0.00     0.210 C 
ENDBRANCH  14  15
ENDBRANCH   7   9
ENDBRANCH   5   7
BRANCH   1  17
HETATM   17  N1  UNL     1      25.093  -0.042  53.205  1.00  0.00    -0.335 N 
HETATM   18  C5  UNL     1      25.292   0.927  52.187  1.00  0.00     0.093 A 
HETATM   19  C4  UNL     1      26.504   1.360  51.905  1.00  0.00     0.020 A 
HETATM   20  C3  UNL     1      27.624   0.826  52.655  1.00  0.00     0.035 A 
HETATM   21  C2  UNL     1      27.463  -0.063  53.601  1.00  0.00     0.064 A 
HETATM   22  C17 UNL     1      26.169  -0.616  54.011  1.00  0.00     0.194 A 
BRANCH  21  23
HETATM   23  O1  UNL     1      28.578  -0.546  54.295  1.00  0.00    -0.359 OA
HETATM   24  C1  UNL     1      29.768  -0.991  53.721  1.00  0.00     0.209 C 
ENDBRANCH  21  23
ENDBRANCH   1  17
TORSDOF 5
ENDMDL
MODEL 8
REMARK VINA RESULT:      -7.1      1.547      2.108
REMARK  5 active torsions:
REMARK  status: ('A' for Active; 'I' for Inactive)
REMARK    1  A    between atoms: O1_2  and  C2_3 
REMARK    2  A    between atoms: N1_7  and  C6_8 
REMARK    3  A    between atoms: C9_12  and  N3_13 
REMARK    4  A    between atoms: N3_13  and  C10_14 
REMARK    5  A    between atoms: C15_19  and  O2_20 
ROOT
HETATM    1  C6  UNL     1      22.078  -0.147  52.840  1.00  0.00     0.150 A 
HETATM    2  C7  UNL     1      21.535  -0.795  53.927  1.00  0.00     0.071 A 
HETATM    3  C8  UNL     1      22.164  -1.355  54.999  1.00  0.00     0.140 A 
HETATM    4  N2  UNL     1      23.457  -1.200  54.878  1.00  0.00    -0.075 NA
HETATM    5  C9  UNL     1      24.140  -0.584  53.865  1.00  0.00     0.728 A 
HETATM    6  N4  UNL     1      23.390  -0.054  52.832  1.00  0.00    -0.045 NA
ENDROOT
BRANCH   5   7
HETATM    7  N3  UNL     1      25.525  -0.576  53.768  1.00  0.00    -0.185 N 
HETATM    8  H9  UNL     1      25.477  -0.956  52.765  1.00  0.00     0.184 HD
BRANCH   7   9
HETATM    9  C10 UNL     1      26.914  -0.567  53.687  1.00  0.00     0.082 A 
HETATM   10  C11 UNL     1      27.535  -1.695  53.202  1.00  0.00     0.033 A 
HETATM   11  C12 UNL     1      28.907  -1.689  53.092  1.00  0.00     0.002 A 
HETATM   12  C13 UNL     1      29.604  -0.574  53.463  1.00  0.00     0.003 A 
HETATM   13  C14 UNL     1      29.081   0.624  53.966  1.00  0.00     0.039 A 
HETATM   14  C15 UNL     1      27.704   0.577  54.064  1.00  0.00     0.095 A 
BRANCH  14  15
HETATM   15  O2  UNL     1      26.847   1.541  54.514  1.00  0.00    -0.354 OA
HETATM   16  C16 UNL     1      26.199   2.483  53.767  1.00  0.00     0.210 C 
ENDBRANCH  14  15
ENDBRANCH   7   9
ENDBRANCH   5   7
BRANCH   1  17
HETATM   17  N1  UNL     1      20.994   0.205  51.974  1.00  0.00    -0.335 N 
HETATM   18  C5  UNL     1      21.450   0.744  50.742  1.00  0.00     0.093 A 
HETATM   19  C4  UNL     1      20.589   1.100  49.810  1.00  0.00     0.020 A 
HETATM   20  C3  UNL     1      19.173   0.930  50.071  1.00  0.00     0.035 A 
HETATM   21  C2  UNL     1      18.732   0.430  51.197  1.00  0.00     0.064 A 
HETATM   22  C17 UNL     1      19.586  -0.009  52.304  1.00  0.00     0.194 A 
BRANCH  21  23
HETATM   23  O1  UNL     1      17.355   0.286  51.398  1.00  0.00    -0.359 OA
HETATM   24  C1  UNL     1      16.750  -0.457  52.411  1.00  0.00     0.209 C 
ENDBRANCH  21  23
ENDBRANCH   1  17
TORSDOF 5
ENDMDL
MODEL 9
REMARK VINA RESULT:      -7.1      4.364      5.991
REMARK  5 active torsions:
REMARK  status: ('A' for Active; 'I' for Inactive)
REMARK    1  A    between atoms: O1_2  and  C2_3 
REMARK    2  A    between atoms: N1_7  and  C6_8 
REMARK    3  A    between atoms: C9_12  and  N3_13 
REMARK    4  A    between atoms: N3_13  and  C10_14 
REMARK    5  A    between atoms: C15_19  and  O2_20 
ROOT
HETATM    1  C6  UNL     1      24.508   1.969  51.312  1.00  0.00     0.150 A 
HETATM    2  C7  UNL     1      25.488   1.277  51.987  1.00  0.00     0.071 A 
HETATM    3  C8  UNL     1      26.828   1.520  52.049  1.00  0.00     0.140 A 
HETATM    4  N2  UNL     1      27.115   2.576  51.332  1.00  0.00    -0.075 NA
HETATM    5  C9  UNL     1      26.258   3.361  50.609  1.00  0.00     0.728 A 
HETATM    6  N4  UNL     1      24.920   3.013  50.627  1.00  0.00    -0.045 NA
ENDROOT
BRANCH   5   7
HETATM    7  N3  UNL     1      26.678   4.394  49.782  1.00  0.00    -0.185 N 
HETATM    8  H9  UNL     1      27.701   4.223  50.056  1.00  0.00     0.184 HD
BRANCH   7   9
HETATM    9  C10 UNL     1      27.084   5.435  48.954  1.00  0.00     0.082 A 
HETATM   10  C11 UNL     1      28.394   5.446  48.532  1.00  0.00     0.033 A 
HETATM   11  C12 UNL     1      28.801   6.456  47.691  1.00  0.00     0.002 A 
HETATM   12  C13 UNL     1      27.901   7.409  47.304  1.00  0.00     0.003 A 
HETATM   13  C14 UNL     1      26.552   7.497  47.667  1.00  0.00     0.039 A 
HETATM   14  C15 UNL     1      26.183   6.469  48.512  1.00  0.00     0.095 A 
BRANCH  14  15
HETATM   15  O2  UNL     1      24.965   6.226  49.080  1.00  0.00    -0.354 OA
HETATM   16  C16 UNL     1      23.780   6.014  48.433  1.00  0.00     0.210 C 
ENDBRANCH  14  15
ENDBRANCH   7   9
ENDBRANCH   5   7
BRANCH   1  17
HETATM   17  N1  UNL     1      23.275   1.276  51.530  1.00  0.00    -0.335 N 
HETATM   18  C5  UNL     1      22.374   1.437  50.445  1.00  0.00     0.093 A 
HETATM   19  C4  UNL     1      21.196   0.846  50.462  1.00  0.00     0.020 A 
HETATM   20  C3  UNL     1      20.844   0.032  51.609  1.00  0.00     0.035 A 
HETATM   21  C2  UNL     1      21.661  -0.134  52.617  1.00  0.00     0.064 A 
HETATM   22  C17 UNL     1      22.997   0.463  52.713  1.00  0.00     0.194 A 
BRANCH  21  23
HETATM   23  O1  UNL     1      21.273  -0.930  53.700  1.00  0.00    -0.359 OA
HETATM   24  C1  UNL     1      22.021  -1.164  54.853  1.00  0.00     0.209 C 
ENDBRANCH  21  23
ENDBRANCH   1  17
TORSDOF 5
ENDMDL
