MODEL 1
REMARK VINA RESULT:      -7.9      0.000      0.000
REMARK  7 active torsions:
REMARK  status: ('A' for Active; 'I' for Inactive)
REMARK    1  A    between atoms: C2_2  and  N1_3 
REMARK    2  A    between atoms: N1_3  and  C3_4 
REMARK    3  A    between atoms: C3_4  and  C4_5 
REMARK    4  A    between atoms: C4_5  and  C5_6 
REMARK    5  A    between atoms: C5_6  and  C6_7 
REMARK    6  A    between atoms: C7_10  and  N4_11 
REMARK    7  A    between atoms: N4_11  and  C8_12 
ROOT
HETATM    1  C6  UNL     1      27.006   1.196  53.330  1.00  0.00     0.071 A 
HETATM    2  N2  UNL     1      27.839   1.956  52.585  1.00  0.00    -0.152 NA
HETATM    3  N3  UNL     1      27.436   2.610  51.511  1.00  0.00    -0.131 NA
HETATM    4  C7  UNL     1      26.160   2.570  51.071  1.00  0.00     0.161 A 
HETATM    5  C14 UNL     1      25.275   1.807  51.799  1.00  0.00     0.024 A 
HETATM    6  C15 UNL     1      23.982   1.807  51.294  1.00  0.00     0.016 A 
HETATM    7  C16 UNL     1      23.069   1.044  52.007  1.00  0.00     0.001 A 
HETATM    8  C17 UNL     1      23.480   0.346  53.146  1.00  0.00     0.001 A 
HETATM    9  C18 UNL     1      24.766   0.370  53.616  1.00  0.00     0.014 A 
HETATM   10  C19 UNL     1      25.676   1.119  52.921  1.00  0.00     0.005 A 
ENDROOT
BRANCH   4  11
HETATM   11  N4  UNL     1      25.956   3.340  49.903  1.00  0.00    -0.339 N 
HETATM   12  H7  UNL     1      25.419   2.660  49.326  1.00  0.00     0.167 HD
BRANCH  11  13
HETATM   13  C8  UNL     1      26.322   4.652  49.512  1.00  0.00     0.033 A 
HETATM   14  C9  UNL     1      27.420   4.834  48.701  1.00  0.00     0.031 A 
HETATM   15  C10 UNL     1      27.706   6.151  48.349  1.00  0.00     0.026 A 
HETATM   16  C11 UNL     1      26.918   7.210  48.801  1.00  0.00     0.034 A 
HETATM   17 CL1  UNL     1      27.351   8.843  48.306  1.00  0.00    -0.084 Cl
HETATM   18  C12 UNL     1      25.833   6.951  49.610  1.00  0.00     0.026 A 
HETATM   19  C13 UNL     1      25.510   5.654  49.985  1.00  0.00     0.031 A 
ENDBRANCH  11  13
ENDBRANCH   4  11
BRANCH   1  20
HETATM   20  C5  UNL     1      27.504   0.489  54.524  1.00  0.00     0.090 C 
BRANCH  20  21
HETATM   21  C4  UNL     1      28.963   0.181  54.414  1.00  0.00    -0.001 C 
BRANCH  21  22
HETATM   22  C3  UNL     1      29.425  -0.848  53.699  1.00  0.00     0.113 C 
BRANCH  22  23
HETATM   23  N1  UNL     1      28.900  -2.156  53.620  1.00  0.00    -0.260 NA
BRANCH  23  24
HETATM   24  C2  UNL     1      27.978  -2.463  52.763  1.00  0.00     0.075 C 
HETATM   25  C1  UNL     1      26.804  -2.327  52.155  1.00  0.00     0.048 C 
ENDBRANCH  23  24
ENDBRANCH  22  23
ENDBRANCH  21  22
ENDBRANCH  20  21
ENDBRANCH   1  20
TORSDOF 7
ENDMDL
MODEL 2
REMARK VINA RESULT:      -7.6      3.132      3.981
REMARK  7 active torsions:
REMARK  status: ('A' for Active; 'I' for Inactive)
REMARK    1  A    between atoms: C2_2  and  N1_3 
REMARK    2  A    between atoms: N1_3  and  C3_4 
REMARK    3  A    between atoms: C3_4  and  C4_5 
REMARK    4  A    between atoms: C4_5  and  C5_6 
REMARK    5  A    between atoms: C5_6  and  C6_7 
REMARK    6  A    between atoms: C7_10  and  N4_11 
REMARK    7  A    between atoms: N4_11  and  C8_12 
ROOT
HETATM    1  C6  UNL     1      25.106   0.069  53.161  1.00  0.00     0.071 A 
HETATM    2  N2  UNL     1      25.578   0.976  52.276  1.00  0.00    -0.152 NA
HETATM    3  N3  UNL     1      24.799   1.863  51.684  1.00  0.00    -0.131 NA
HETATM    4  C7  UNL     1      23.470   1.934  51.914  1.00  0.00     0.161 A 
HETATM    5  C14 UNL     1      22.944   1.028  52.809  1.00  0.00     0.024 A 
HETATM    6  C15 UNL     1      21.576   1.154  52.999  1.00  0.00     0.016 A 
HETATM    7  C16 UNL     1      21.019   0.252  53.895  1.00  0.00     0.001 A 
HETATM    8  C17 UNL     1      21.829  -0.693  54.530  1.00  0.00     0.001 A 
HETATM    9  C18 UNL     1      23.179  -0.786  54.318  1.00  0.00     0.014 A 
HETATM   10  C19 UNL     1      23.740   0.098  53.436  1.00  0.00     0.005 A 
ENDROOT
BRANCH   4  11
HETATM   11  N4  UNL     1      22.836   2.955  51.168  1.00  0.00    -0.339 N 
HETATM   12  H7  UNL     1      22.557   3.598  51.938  1.00  0.00     0.167 HD
BRANCH  11  13
HETATM   13  C8  UNL     1      22.592   3.159  49.787  1.00  0.00     0.033 A 
HETATM   14  C9  UNL     1      22.709   4.426  49.261  1.00  0.00     0.031 A 
HETATM   15  C10 UNL     1      22.467   4.542  47.895  1.00  0.00     0.026 A 
HETATM   16  C11 UNL     1      22.127   3.432  47.120  1.00  0.00     0.034 A 
HETATM   17 CL1  UNL     1      21.840   3.670  45.400  1.00  0.00    -0.084 Cl
HETATM   18  C12 UNL     1      22.029   2.194  47.717  1.00  0.00     0.026 A 
HETATM   19  C13 UNL     1      22.263   2.031  49.076  1.00  0.00     0.031 A 
ENDBRANCH  11  13
ENDBRANCH   4  11
BRANCH   1  20
HETATM   20  C5  UNL     1      26.017  -0.898  53.800  1.00  0.00     0.090 C 
BRANCH  20  21
HETATM   21  C4  UNL     1      27.205  -1.187  52.940  1.00  0.00    -0.001 C 
BRANCH  21  22
HETATM   22  C3  UNL     1      28.455  -0.941  53.340  1.00  0.00     0.113 C 
BRANCH  22  23
HETATM   23  N1  UNL     1      28.884  -0.059  54.355  1.00  0.00    -0.260 NA
BRANCH  23  24
HETATM   24  C2  UNL     1      29.026   1.209  54.132  1.00  0.00     0.075 C 
HETATM   25  C1  UNL     1      28.681   2.392  53.633  1.00  0.00     0.048 C 
ENDBRANCH  23  24
ENDBRANCH  22  23
ENDBRANCH  21  22
ENDBRANCH  20  21
ENDBRANCH   1  20
TORSDOF 7
ENDMDL
MODEL 3
REMARK VINA RESULT:      -7.5      4.373      6.724
REMARK  7 active torsions:
REMARK  status: ('A' for Active; 'I' for Inactive)
REMARK    1  A    between atoms: C2_2  and  N1_3 
REMARK    2  A    between atoms: N1_3  and  C3_4 
REMARK    3  A    between atoms: C3_4  and  C4_5 
REMARK    4  A    between atoms: C4_5  and  C5_6 
REMARK    5  A    between atoms: C5_6  and  C6_7 
REMARK    6  A    between atoms: C7_10  and  N4_11 
REMARK    7  A    between atoms: N4_11  and  C8_12 
ROOT
HETATM    1  C6  UNL     1      24.776   0.933  52.232  1.00  0.00     0.071 A 
HETATM    2  N2  UNL     1      24.007   1.716  51.443  1.00  0.00    -0.152 NA
HETATM    3  N3  UNL     1      22.702   1.827  51.607  1.00  0.00    -0.131 NA
HETATM    4  C7  UNL     1      22.031   1.166  52.576  1.00  0.00     0.161 A 
HETATM    5  C14 UNL     1      22.775   0.356  53.405  1.00  0.00     0.024 A 
HETATM    6  C15 UNL     1      22.027  -0.294  54.377  1.00  0.00     0.016 A 
HETATM    7  C16 UNL     1      22.751  -1.119  55.225  1.00  0.00     0.001 A 
HETATM    8  C17 UNL     1      24.133  -1.248  55.065  1.00  0.00     0.001 A 
HETATM    9  C18 UNL     1      24.839  -0.589  54.093  1.00  0.00     0.014 A 
HETATM   10  C19 UNL     1      24.136   0.228  53.249  1.00  0.00     0.005 A 
ENDROOT
BRANCH   4  11
HETATM   11  N4  UNL     1      20.642   1.431  52.562  1.00  0.00    -0.339 N 
HETATM   12  H7  UNL     1      20.599   2.217  53.244  1.00  0.00     0.167 HD
BRANCH  11  13
HETATM   13  C8  UNL     1      19.539   0.869  51.872  1.00  0.00     0.033 A 
HETATM   14  C9  UNL     1      18.830  -0.158  52.455  1.00  0.00     0.031 A 
HETATM   15  C10 UNL     1      17.753  -0.646  51.721  1.00  0.00     0.026 A 
HETATM   16  C11 UNL     1      17.425  -0.117  50.472  1.00  0.00     0.034 A 
HETATM   17 CL1  UNL     1      16.045  -0.794  49.614  1.00  0.00    -0.084 Cl
HETATM   18  C12 UNL     1      18.182   0.911  49.952  1.00  0.00     0.026 A 
HETATM   19  C13 UNL     1      19.264   1.430  50.649  1.00  0.00     0.031 A 
ENDBRANCH  11  13
ENDBRANCH   4  11
BRANCH   1  20
HETATM   20  C5  UNL     1      26.232   0.846  52.011  1.00  0.00     0.090 C 
BRANCH  20  21
HETATM   21  C4  UNL     1      26.930   2.093  52.450  1.00  0.00    -0.001 C 
BRANCH  21  22
HETATM   22  C3  UNL     1      27.886   2.087  53.382  1.00  0.00     0.113 C 
BRANCH  22  23
HETATM   23  N1  UNL     1      28.054   1.176  54.447  1.00  0.00    -0.260 NA
BRANCH  23  24
HETATM   24  C2  UNL     1      28.948   0.239  54.399  1.00  0.00     0.075 C 
HETATM   25  C1  UNL     1      29.688  -0.692  53.805  1.00  0.00     0.048 C 
ENDBRANCH  23  24
ENDBRANCH  22  23
ENDBRANCH  21  22
ENDBRANCH  20  21
ENDBRANCH   1  20
TORSDOF 7
ENDMDL
MODEL 4
REMARK VINA RESULT:      -7.5      1.477      2.463
REMARK  7 active torsions:
REMARK  status: ('A' for Active; 'I' for Inactive)
REMARK    1  A    between atoms: C2_2  and  N1_3 
REMARK    2  A    between atoms: N1_3  and  C3_4 
REMARK    3  A    between atoms: C3_4  and  C4_5 
REMARK    4  A    between atoms: C4_5  and  C5_6 
REMARK    5  A    between atoms: C5_6  and  C6_7 
REMARK    6  A    between atoms: C7_10  and  N4_11 
REMARK    7  A    between atoms: N4_11  and  C8_12 
ROOT
HETATM    1  C6  UNL     1      25.495   0.242  52.665  1.00  0.00     0.071 A 
HETATM    2  N2  UNL     1      26.245   1.005  51.839  1.00  0.00    -0.152 NA
HETATM    3  N3  UNL     1      25.741   2.011  51.148  1.00  0.00    -0.131 NA
HETATM    4  C7  UNL     1      24.436   2.357  51.211  1.00  0.00     0.161 A 
HETATM    5  C14 UNL     1      23.634   1.605  52.040  1.00  0.00     0.024 A 
HETATM    6  C15 UNL     1      22.307   2.011  52.059  1.00  0.00     0.016 A 
HETATM    7  C16 UNL     1      21.474   1.270  52.885  1.00  0.00     0.001 A 
HETATM    8  C17 UNL     1      21.992   0.201  53.623  1.00  0.00     0.001 A 
HETATM    9  C18 UNL     1      23.310  -0.170  53.579  1.00  0.00     0.014 A 
HETATM   10  C19 UNL     1      24.141   0.554  52.768  1.00  0.00     0.005 A 
ENDROOT
BRANCH   4  11
HETATM   11  N4  UNL     1      24.119   3.460  50.385  1.00  0.00    -0.339 N 
HETATM   12  H7  UNL     1      23.400   3.026  49.768  1.00  0.00     0.167 HD
BRANCH  11  13
HETATM   13  C8  UNL     1      24.570   4.801  50.317  1.00  0.00     0.033 A 
HETATM   14  C9  UNL     1      23.999   5.748  51.139  1.00  0.00     0.031 A 
HETATM   15  C10 UNL     1      24.506   7.040  51.022  1.00  0.00     0.026 A 
HETATM   16  C11 UNL     1      25.529   7.340  50.121  1.00  0.00     0.034 A 
HETATM   17 CL1  UNL     1      26.110   9.000  50.041  1.00  0.00    -0.084 Cl
HETATM   18  C12 UNL     1      26.051   6.339  49.330  1.00  0.00     0.026 A 
HETATM   19  C13 UNL     1      25.578   5.037  49.414  1.00  0.00     0.031 A 
ENDBRANCH  11  13
ENDBRANCH   4  11
BRANCH   1  20
HETATM   20  C5  UNL     1      26.106  -0.869  53.419  1.00  0.00     0.090 C 
BRANCH  20  21
HETATM   21  C4  UNL     1      27.427  -1.266  52.841  1.00  0.00    -0.001 C 
BRANCH  21  22
HETATM   22  C3  UNL     1      28.575  -1.098  53.501  1.00  0.00     0.113 C 
BRANCH  22  23
HETATM   23  N1  UNL     1      28.825  -0.266  54.613  1.00  0.00    -0.260 NA
BRANCH  23  24
HETATM   24  C2  UNL     1      28.981   1.013  54.477  1.00  0.00     0.075 C 
HETATM   25  C1  UNL     1      28.877   2.181  53.852  1.00  0.00     0.048 C 
ENDBRANCH  23  24
ENDBRANCH  22  23
ENDBRANCH  21  22
ENDBRANCH  20  21
ENDBRANCH   1  20
TORSDOF 7
ENDMDL
MODEL 5
REMARK VINA RESULT:      -7.4      4.064      7.309
REMARK  7 active torsions:
REMARK  status: ('A' for Active; 'I' for Inactive)
REMARK    1  A    between atoms: C2_2  and  N1_3 
REMARK    2  A    between atoms: N1_3  and  C3_4 
REMARK    3  A    between atoms: C3_4  and  C4_5 
REMARK    4  A    between atoms: C4_5  and  C5_6 
REMARK    5  A    between atoms: C5_6  and  C6_7 
REMARK    6  A    between atoms: C7_10  and  N4_11 
REMARK    7  A    between atoms: N4_11  and  C8_12 
ROOT
HETATM    1  C6  UNL     1      21.936   1.337  51.003  1.00  0.00     0.071 A 
HETATM    2  N2  UNL     1      23.270   1.535  51.088  1.00  0.00    -0.152 NA
HETATM    3  N3  UNL     1      24.010   0.993  52.038  1.00  0.00    -0.131 NA
HETATM    4  C7  UNL     1      23.492   0.199  53.001  1.00  0.00     0.161 A 
HETATM    5  C14 UNL     1      22.134  -0.029  52.955  1.00  0.00     0.024 A 
HETATM    6  C15 UNL     1      21.666  -0.850  53.971  1.00  0.00     0.016 A 
HETATM    7  C16 UNL     1      20.301  -1.095  53.949  1.00  0.00     0.001 A 
HETATM    8  C17 UNL     1      19.504  -0.530  52.950  1.00  0.00     0.001 A 
HETATM    9  C18 UNL     1      20.002   0.276  51.961  1.00  0.00     0.014 A 
HETATM   10  C19 UNL     1      21.348   0.526  51.972  1.00  0.00     0.005 A 
ENDROOT
BRANCH   4  11
HETATM   11  N4  UNL     1      24.466  -0.264  53.915  1.00  0.00    -0.339 N 
HETATM   12  H7  UNL     1      23.857  -0.504  54.726  1.00  0.00     0.167 HD
BRANCH  11  13
HETATM   13  C8  UNL     1      25.874  -0.411  53.864  1.00  0.00     0.033 A 
HETATM   14  C9  UNL     1      26.431  -1.260  52.933  1.00  0.00     0.031 A 
HETATM   15  C10 UNL     1      27.822  -1.338  52.937  1.00  0.00     0.026 A 
HETATM   16  C11 UNL     1      28.589  -0.597  53.837  1.00  0.00     0.034 A 
HETATM   17 CL1  UNL     1      30.340  -0.756  53.770  1.00  0.00    -0.084 Cl
HETATM   18  C12 UNL     1      27.960   0.233  54.741  1.00  0.00     0.026 A 
HETATM   19  C13 UNL     1      26.576   0.344  54.772  1.00  0.00     0.031 A 
ENDBRANCH  11  13
ENDBRANCH   4  11
BRANCH   1  20
HETATM   20  C5  UNL     1      21.154   1.961  49.919  1.00  0.00     0.090 C 
BRANCH  20  21
HETATM   21  C4  UNL     1      21.603   3.362  49.653  1.00  0.00    -0.001 C 
BRANCH  21  22
HETATM   22  C3  UNL     1      20.998   4.422  50.195  1.00  0.00     0.113 C 
BRANCH  22  23
HETATM   23  N1  UNL     1      21.529   5.344  51.123  1.00  0.00    -0.260 NA
BRANCH  23  24
HETATM   24  C2  UNL     1      22.273   4.956  52.110  1.00  0.00     0.075 C 
HETATM   25  C1  UNL     1      23.418   4.639  52.706  1.00  0.00     0.048 C 
ENDBRANCH  23  24
ENDBRANCH  22  23
ENDBRANCH  21  22
ENDBRANCH  20  21
ENDBRANCH   1  20
TORSDOF 7
ENDMDL
MODEL 6
REMARK VINA RESULT:      -7.3      4.555      7.723
REMARK  7 active torsions:
REMARK  status: ('A' for Active; 'I' for Inactive)
REMARK    1  A    between atoms: C2_2  and  N1_3 
REMARK    2  A    between atoms: N1_3  and  C3_4 
REMARK    3  A    between atoms: C3_4  and  C4_5 
REMARK    4  A    between atoms: C4_5  and  C5_6 
REMARK    5  A    between atoms: C5_6  and  C6_7 
REMARK    6  A    between atoms: C7_10  and  N4_11 
REMARK    7  A    between atoms: N4_11  and  C8_12 
ROOT
HETATM    1  C6  UNL     1      21.999   1.356  51.302  1.00  0.00     0.071 A 
HETATM    2  N2  UNL     1      23.334   1.561  51.358  1.00  0.00    -0.152 NA
HETATM    3  N3  UNL     1      24.108   0.961  52.243  1.00  0.00    -0.131 NA
HETATM    4  C7  UNL     1      23.628   0.096  53.163  1.00  0.00     0.161 A 
HETATM    5  C14 UNL     1      22.272  -0.143  53.143  1.00  0.00     0.024 A 
HETATM    6  C15 UNL     1      21.844  -1.039  54.112  1.00  0.00     0.016 A 
HETATM    7  C16 UNL     1      20.481  -1.298  54.117  1.00  0.00     0.001 A 
HETATM    8  C17 UNL     1      19.647  -0.671  53.187  1.00  0.00     0.001 A 
HETATM    9  C18 UNL     1      20.107   0.209  52.242  1.00  0.00     0.014 A 
HETATM   10  C19 UNL     1      21.450   0.472  52.228  1.00  0.00     0.005 A 
ENDROOT
BRANCH   4  11
HETATM   11  N4  UNL     1      24.636  -0.421  54.010  1.00  0.00    -0.339 N 
HETATM   12  H7  UNL     1      24.051  -0.764  54.801  1.00  0.00     0.167 HD
BRANCH  11  13
HETATM   13  C8  UNL     1      26.047  -0.509  53.922  1.00  0.00     0.033 A 
HETATM   14  C9  UNL     1      26.615  -1.302  52.950  1.00  0.00     0.031 A 
HETATM   15  C10 UNL     1      28.008  -1.324  52.921  1.00  0.00     0.026 A 
HETATM   16  C11 UNL     1      28.765  -0.583  53.829  1.00  0.00     0.034 A 
HETATM   17 CL1  UNL     1      30.520  -0.669  53.718  1.00  0.00    -0.084 Cl
HETATM   18  C12 UNL     1      28.126   0.189  54.775  1.00  0.00     0.026 A 
HETATM   19  C13 UNL     1      26.740   0.242  54.841  1.00  0.00     0.031 A 
ENDBRANCH  11  13
ENDBRANCH   4  11
BRANCH   1  20
HETATM   20  C5  UNL     1      21.177   2.047  50.291  1.00  0.00     0.090 C 
BRANCH  20  21
HETATM   21  C4  UNL     1      20.845   3.443  50.712  1.00  0.00    -0.001 C 
BRANCH  21  22
HETATM   22  C3  UNL     1      19.587   3.879  50.814  1.00  0.00     0.113 C 
BRANCH  22  23
HETATM   23  N1  UNL     1      18.655   3.610  51.840  1.00  0.00    -0.260 NA
BRANCH  23  24
HETATM   24  C2  UNL     1      17.573   2.936  51.608  1.00  0.00     0.075 C 
HETATM   25  C1  UNL     1      16.869   1.900  51.163  1.00  0.00     0.048 C 
ENDBRANCH  23  24
ENDBRANCH  22  23
ENDBRANCH  21  22
ENDBRANCH  20  21
ENDBRANCH   1  20
TORSDOF 7
ENDMDL
MODEL 7
REMARK VINA RESULT:      -7.3      2.190      3.479
REMARK  7 active torsions:
REMARK  status: ('A' for Active; 'I' for Inactive)
REMARK    1  A    between atoms: C2_2  and  N1_3 
REMARK    2  A    between atoms: N1_3  and  C3_4 
REMARK    3  A    between atoms: C3_4  and  C4_5 
REMARK    4  A    between atoms: C4_5  and  C5_6 
REMARK    5  A    between atoms: C5_6  and  C6_7 
REMARK    6  A    between atoms: C7_10  and  N4_11 
REMARK    7  A    between atoms: N4_11  and  C8_12 
ROOT
HETATM    1  C6  UNL     1      22.999   1.961  52.123  1.00  0.00     0.071 A 
HETATM    2  N2  UNL     1      23.784   2.993  52.505  1.00  0.00    -0.152 NA
HETATM    3  N3  UNL     1      24.187   3.928  51.665  1.00  0.00    -0.131 NA
HETATM    4  C7  UNL     1      23.848   3.928  50.358  1.00  0.00     0.161 A 
HETATM    5  C14 UNL     1      23.049   2.894  49.923  1.00  0.00     0.024 A 
HETATM    6  C15 UNL     1      22.738   2.952  48.572  1.00  0.00     0.016 A 
HETATM    7  C16 UNL     1      21.935   1.921  48.106  1.00  0.00     0.001 A 
HETATM    8  C17 UNL     1      21.499   0.923  48.982  1.00  0.00     0.001 A 
HETATM    9  C18 UNL     1      21.826   0.899  50.312  1.00  0.00     0.014 A 
HETATM   10  C19 UNL     1      22.618   1.911  50.784  1.00  0.00     0.005 A 
ENDROOT
BRANCH   4  11
HETATM   11  N4  UNL     1      24.396   5.021  49.647  1.00  0.00    -0.339 N 
HETATM   12  H7  UNL     1      23.545   5.612  49.537  1.00  0.00     0.167 HD
BRANCH  11  13
HETATM   13  C8  UNL     1      25.692   5.337  49.172  1.00  0.00     0.033 A 
HETATM   14  C9  UNL     1      26.664   4.360  49.162  1.00  0.00     0.031 A 
HETATM   15  C10 UNL     1      27.908   4.745  48.667  1.00  0.00     0.026 A 
HETATM   16  C11 UNL     1      28.139   6.045  48.215  1.00  0.00     0.034 A 
HETATM   17 CL1  UNL     1      29.741   6.444  47.604  1.00  0.00    -0.084 Cl
HETATM   18  C12 UNL     1      27.117   6.969  48.255  1.00  0.00     0.026 A 
HETATM   19  C13 UNL     1      25.861   6.629  48.739  1.00  0.00     0.031 A 
ENDBRANCH  11  13
ENDBRANCH   4  11
BRANCH   1  20
HETATM   20  C5  UNL     1      22.571   0.943  53.101  1.00  0.00     0.090 C 
BRANCH  20  21
HETATM   21  C4  UNL     1      23.507  -0.223  53.127  1.00  0.00    -0.001 C 
BRANCH  21  22
HETATM   22  C3  UNL     1      24.059  -0.673  54.256  1.00  0.00     0.113 C 
BRANCH  22  23
HETATM   23  N1  UNL     1      25.431  -0.839  54.546  1.00  0.00    -0.260 NA
BRANCH  23  24
HETATM   24  C2  UNL     1      26.340  -0.639  53.645  1.00  0.00     0.075 C 
HETATM   25  C1  UNL     1      27.217  -1.004  52.715  1.00  0.00     0.048 C 
ENDBRANCH  23  24
ENDBRANCH  22  23
ENDBRANCH  21  22
ENDBRANCH  20  21
ENDBRANCH   1  20
TORSDOF 7
ENDMDL
MODEL 8
REMARK VINA RESULT:      -7.3      3.779      7.068
REMARK  7 active torsions:
REMARK  status: ('A' for Active; 'I' for Inactive)
REMARK    1  A    between atoms: C2_2  and  N1_3 
REMARK    2  A    between atoms: N1_3  and  C3_4 
REMARK    3  A    between atoms: C3_4  and  C4_5 
REMARK    4  A    between atoms: C4_5  and  C5_6 
REMARK    5  A    between atoms: C5_6  and  C6_7 
REMARK    6  A    between atoms: C7_10  and  N4_11 
REMARK    7  A    between atoms: N4_11  and  C8_12 
ROOT
HETATM    1  C6  UNL     1      23.098   2.622  49.272  1.00  0.00     0.071 A 
HETATM    2  N2  UNL     1      24.271   3.260  49.482  1.00  0.00    -0.152 NA
HETATM    3  N3  UNL     1      24.985   3.092  50.579  1.00  0.00    -0.131 NA
HETATM    4  C7  UNL     1      24.600   2.270  51.580  1.00  0.00     0.161 A 
HETATM    5  C14 UNL     1      23.410   1.599  51.410  1.00  0.00     0.024 A 
HETATM    6  C15 UNL     1      23.072   0.773  52.472  1.00  0.00     0.016 A 
HETATM    7  C16 UNL     1      21.875   0.086  52.328  1.00  0.00     0.001 A 
HETATM    8  C17 UNL     1      21.107   0.253  51.173  1.00  0.00     0.001 A 
HETATM    9  C18 UNL     1      21.474   1.077  50.143  1.00  0.00     0.014 A 
HETATM   10  C19 UNL     1      22.652   1.761  50.273  1.00  0.00     0.005 A 
ENDROOT
BRANCH   4  11
HETATM   11  N4  UNL     1      25.515   2.249  52.658  1.00  0.00    -0.339 N 
HETATM   12  H7  UNL     1      25.104   2.992  53.261  1.00  0.00     0.167 HD
BRANCH  11  13
HETATM   13  C8  UNL     1      26.678   1.493  52.949  1.00  0.00     0.033 A 
HETATM   14  C9  UNL     1      27.783   2.128  53.470  1.00  0.00     0.031 A 
HETATM   15  C10 UNL     1      28.880   1.314  53.742  1.00  0.00     0.026 A 
HETATM   16  C11 UNL     1      28.846  -0.058  53.494  1.00  0.00     0.034 A 
HETATM   17 CL1  UNL     1      30.278  -1.011  53.869  1.00  0.00    -0.084 Cl
HETATM   18  C12 UNL     1      27.703  -0.624  52.970  1.00  0.00     0.026 A 
HETATM   19  C13 UNL     1      26.585   0.148  52.685  1.00  0.00     0.031 A 
ENDBRANCH  11  13
ENDBRANCH   4  11
BRANCH   1  20
HETATM   20  C5  UNL     1      22.339   2.840  48.027  1.00  0.00     0.090 C 
BRANCH  20  21
HETATM   21  C4  UNL     1      22.222   4.295  47.701  1.00  0.00    -0.001 C 
BRANCH  21  22
HETATM   22  C3  UNL     1      21.392   5.110  48.356  1.00  0.00     0.113 C 
BRANCH  22  23
HETATM   23  N1  UNL     1      21.666   5.895  49.497  1.00  0.00    -0.260 NA
BRANCH  23  24
HETATM   24  C2  UNL     1      21.498   5.427  50.694  1.00  0.00     0.075 C 
HETATM   25  C1  UNL     1      21.893   5.017  51.895  1.00  0.00     0.048 C 
ENDBRANCH  23  24
ENDBRANCH  22  23
ENDBRANCH  21  22
ENDBRANCH  20  21
ENDBRANCH   1  20
TORSDOF 7
ENDMDL
MODEL 9
REMARK VINA RESULT:      -7.2      6.336      9.628
REMARK  7 active torsions:
REMARK  status: ('A' for Active; 'I' for Inactive)
REMARK    1  A    between atoms: C2_2  and  N1_3 
REMARK    2  A    between atoms: N1_3  and  C3_4 
REMARK    3  A    between atoms: C3_4  and  C4_5 
REMARK    4  A    between atoms: C4_5  and  C5_6 
REMARK    5  A    between atoms: C5_6  and  C6_7 
REMARK    6  A    between atoms: C7_10  and  N4_11 
REMARK    7  A    between atoms: N4_11  and  C8_12 
ROOT
HETATM    1  C6  UNL     1      21.593   0.767  51.360  1.00  0.00     0.071 A 
HETATM    2  N2  UNL     1      20.282   0.822  51.037  1.00  0.00    -0.152 NA
HETATM    3  N3  UNL     1      19.341   0.286  51.792  1.00  0.00    -0.131 NA
HETATM    4  C7  UNL     1      19.613  -0.360  52.947  1.00  0.00     0.161 A 
HETATM    5  C14 UNL     1      20.938  -0.441  53.316  1.00  0.00     0.024 A 
HETATM    6  C15 UNL     1      21.149  -1.117  54.509  1.00  0.00     0.016 A 
HETATM    7  C16 UNL     1      22.476  -1.216  54.904  1.00  0.00     0.001 A 
HETATM    8  C17 UNL     1      23.484  -0.654  54.117  1.00  0.00     0.001 A 
HETATM    9  C18 UNL     1      23.237   0.008  52.943  1.00  0.00     0.014 A 
HETATM   10  C19 UNL     1      21.932   0.111  52.542  1.00  0.00     0.005 A 
ENDROOT
BRANCH   4  11
HETATM   11  N4  UNL     1      18.454  -0.856  53.586  1.00  0.00    -0.339 N 
HETATM   12  H7  UNL     1      18.377  -0.181  54.376  1.00  0.00     0.167 HD
BRANCH  11  13
HETATM   13  C8  UNL     1      17.573  -1.936  53.329  1.00  0.00     0.033 A 
HETATM   14  C9  UNL     1      17.879  -3.188  53.815  1.00  0.00     0.031 A 
HETATM   15  C10 UNL     1      16.957  -4.192  53.532  1.00  0.00     0.026 A 
HETATM   16  C11 UNL     1      15.799  -3.930  52.799  1.00  0.00     0.034 A 
HETATM   17 CL1  UNL     1      14.687  -5.258  52.490  1.00  0.00    -0.084 Cl
HETATM   18  C12 UNL     1      15.559  -2.650  52.345  1.00  0.00     0.026 A 
HETATM   19  C13 UNL     1      16.450  -1.618  52.605  1.00  0.00     0.031 A 
ENDBRANCH  11  13
ENDBRANCH   4  11
BRANCH   1  20
HETATM   20  C5  UNL     1      22.607   1.385  50.485  1.00  0.00     0.090 C 
BRANCH  20  21
HETATM   21  C4  UNL     1      22.855   2.813  50.854  1.00  0.00    -0.001 C 
BRANCH  21  22
HETATM   22  C3  UNL     1      24.032   3.237  51.320  1.00  0.00     0.113 C 
BRANCH  22  23
HETATM   23  N1  UNL     1      25.298   2.631  51.164  1.00  0.00    -0.260 NA
BRANCH  23  24
HETATM   24  C2  UNL     1      26.235   3.193  50.468  1.00  0.00     0.075 C 
HETATM   25  C1  UNL     1      26.731   3.869  49.437  1.00  0.00     0.048 C 
ENDBRANCH  23  24
ENDBRANCH  22  23
ENDBRANCH  21  22
ENDBRANCH  20  21
ENDBRANCH   1  20
TORSDOF 7
ENDMDL
