MODEL 1
REMARK VINA RESULT:      -7.2      0.000      0.000
REMARK  4 active torsions:
REMARK  status: ('A' for Active; 'I' for Inactive)
REMARK    1  A    between atoms: C4_6  and  N3_7 
REMARK    2  A    between atoms: C10_15  and  C11_16 
REMARK    3  A    between atoms: C11_16  and  O1_17 
REMARK    4  A    between atoms: C11_16  and  C13_19 
ROOT
HETATM    1  C1  UNL     1      22.600   1.933  47.771  1.00  0.00     0.061 C 
HETATM    2  C2  UNL     1      22.015   1.875  48.983  1.00  0.00     0.028 C 
HETATM    3  N1  UNL     1      20.609   1.840  48.647  1.00  0.00    -0.250 NA
HETATM    4  C3  UNL     1      19.824   1.273  49.541  1.00  0.00     0.234 C 
HETATM    5  N2  UNL     1      20.382   0.777  50.743  1.00  0.00    -0.227 NA
HETATM    6  C4  UNL     1      21.619   0.855  51.086  1.00  0.00     0.123 C 
HETATM    7  C10 UNL     1      22.572   1.763  50.318  1.00  0.00     0.133 C 
ENDROOT
BRANCH   7   8
HETATM    8  C11 UNL     1      22.659   3.066  51.094  1.00  0.00     0.142 C 
BRANCH   8   9
HETATM    9  O1  UNL     1      21.798   3.031  52.205  1.00  0.00    -0.389 OA
HETATM   10  C12 UNL     1      20.845   3.995  52.252  1.00  0.00     0.202 C 
ENDBRANCH   8   9
BRANCH   8  11
HETATM   11  C13 UNL     1      24.043   3.446  51.523  1.00  0.00     0.019 C 
HETATM   12  C14 UNL     1      24.398   4.807  50.906  1.00  0.00     0.037 C 
HETATM   13  C15 UNL     1      24.640   4.629  49.442  1.00  0.00     0.272 C 
HETATM   14  N4  UNL     1      25.919   3.976  49.261  1.00  0.00     0.084 N 
HETATM   15  C16 UNL     1      26.971   4.914  48.939  1.00  0.00     0.309 C 
HETATM   16  C17 UNL     1      26.266   3.206  50.403  1.00  0.00     0.272 C 
HETATM   17  C18 UNL     1      25.067   2.463  51.025  1.00  0.00     0.037 C 
ENDBRANCH   8  11
ENDBRANCH   7   8
BRANCH   6  18
HETATM   18  N3  UNL     1      22.078   0.290  52.308  1.00  0.00    -0.318 N 
HETATM   19  C5  UNL     1      21.182  -0.096  53.372  1.00  0.00     0.113 C 
HETATM   20  C6  UNL     1      21.570  -0.446  54.564  1.00  0.00     0.035 C 
HETATM   21  C7  UNL     1      22.778  -0.872  54.803  1.00  0.00     0.152 C 
HETATM   22  F1  UNL     1      23.102  -1.580  55.887  1.00  0.00    -0.203 F 
HETATM   23  C8  UNL     1      23.766  -0.517  53.789  1.00  0.00     0.089 C 
HETATM   24 CL1  UNL     1      25.460  -0.824  54.130  1.00  0.00    -0.080 Cl
HETATM   25  C9  UNL     1      23.433   0.024  52.630  1.00  0.00     0.124 C 
ENDBRANCH   6  18
TORSDOF 4
ENDMDL
MODEL 2
REMARK VINA RESULT:      -7.0      2.622      3.590
REMARK  4 active torsions:
REMARK  status: ('A' for Active; 'I' for Inactive)
REMARK    1  A    between atoms: C4_6  and  N3_7 
REMARK    2  A    between atoms: C10_15  and  C11_16 
REMARK    3  A    between atoms: C11_16  and  O1_17 
REMARK    4  A    between atoms: C11_16  and  C13_19 
ROOT
HETATM    1  C1  UNL     1      21.716   1.899  48.943  1.00  0.00     0.061 C 
HETATM    2  C2  UNL     1      22.312   2.271  50.093  1.00  0.00     0.028 C 
HETATM    3  N1  UNL     1      21.187   2.679  50.906  1.00  0.00    -0.250 NA
HETATM    4  C3  UNL     1      21.369   2.598  52.209  1.00  0.00     0.234 C 
HETATM    5  N2  UNL     1      22.617   2.160  52.713  1.00  0.00    -0.227 NA
HETATM    6  C4  UNL     1      23.646   1.853  52.008  1.00  0.00     0.123 C 
HETATM    7  C10 UNL     1      23.695   2.209  50.527  1.00  0.00     0.133 C 
ENDROOT
BRANCH   7   8
HETATM    8  C11 UNL     1      24.468   3.512  50.413  1.00  0.00     0.142 C 
BRANCH   8   9
HETATM    9  O1  UNL     1      25.514   3.379  49.483  1.00  0.00    -0.389 OA
HETATM   10  C12 UNL     1      26.699   2.939  49.977  1.00  0.00     0.202 C 
ENDBRANCH   8   9
BRANCH   8  11
HETATM   11  C13 UNL     1      23.630   4.708  50.082  1.00  0.00     0.019 C 
HETATM   12  C14 UNL     1      24.388   5.581  49.071  1.00  0.00     0.037 C 
HETATM   13  C15 UNL     1      25.517   6.265  49.769  1.00  0.00     0.272 C 
HETATM   14  N4  UNL     1      24.977   7.322  50.597  1.00  0.00     0.084 N 
HETATM   15  C16 UNL     1      25.079   8.618  49.964  1.00  0.00     0.309 C 
HETATM   16  C17 UNL     1      23.632   7.048  50.964  1.00  0.00     0.272 C 
HETATM   17  C18 UNL     1      23.381   5.563  51.294  1.00  0.00     0.037 C 
ENDBRANCH   8  11
ENDBRANCH   7   8
BRANCH   6  18
HETATM   18  N3  UNL     1      24.844   1.390  52.621  1.00  0.00    -0.318 N 
HETATM   19  C5  UNL     1      25.611   2.199  53.537  1.00  0.00     0.113 C 
HETATM   20  C6  UNL     1      26.795   1.883  53.976  1.00  0.00     0.035 C 
HETATM   21  C7  UNL     1      27.233   0.656  53.968  1.00  0.00     0.152 C 
HETATM   22  F1  UNL     1      28.246   0.237  54.729  1.00  0.00    -0.203 F 
HETATM   23  C8  UNL     1      26.530  -0.241  53.057  1.00  0.00     0.089 C 
HETATM   24 CL1  UNL     1      27.193  -1.843  52.785  1.00  0.00    -0.080 Cl
HETATM   25  C9  UNL     1      25.418   0.107  52.433  1.00  0.00     0.124 C 
ENDBRANCH   6  18
TORSDOF 4
ENDMDL
MODEL 3
REMARK VINA RESULT:      -6.9      3.109      4.611
REMARK  4 active torsions:
REMARK  status: ('A' for Active; 'I' for Inactive)
REMARK    1  A    between atoms: C4_6  and  N3_7 
REMARK    2  A    between atoms: C10_15  and  C11_16 
REMARK    3  A    between atoms: C11_16  and  O1_17 
REMARK    4  A    between atoms: C11_16  and  C13_19 
ROOT
HETATM    1  C1  UNL     1      26.764   3.490  49.389  1.00  0.00     0.061 C 
HETATM    2  C2  UNL     1      25.575   3.773  49.956  1.00  0.00     0.028 C 
HETATM    3  N1  UNL     1      25.367   5.151  49.567  1.00  0.00    -0.250 NA
HETATM    4  C3  UNL     1      24.111   5.543  49.516  1.00  0.00     0.234 C 
HETATM    5  N2  UNL     1      23.081   4.635  49.858  1.00  0.00    -0.227 NA
HETATM    6  C4  UNL     1      23.250   3.427  50.265  1.00  0.00     0.123 C 
HETATM    7  C10 UNL     1      24.634   2.946  50.687  1.00  0.00     0.133 C 
ENDROOT
BRANCH   7   8
HETATM    8  C11 UNL     1      24.701   3.072  52.200  1.00  0.00     0.142 C 
BRANCH   8   9
HETATM    9  O1  UNL     1      23.531   3.676  52.691  1.00  0.00    -0.389 OA
HETATM   10  C12 UNL     1      23.700   4.830  53.384  1.00  0.00     0.202 C 
ENDBRANCH   8   9
BRANCH   8  11
HETATM   11  C13 UNL     1      24.963   1.787  52.922  1.00  0.00     0.019 C 
HETATM   12  C14 UNL     1      26.001   2.040  54.025  1.00  0.00     0.037 C 
HETATM   13  C15 UNL     1      27.341   2.240  53.396  1.00  0.00     0.272 C 
HETATM   14  N4  UNL     1      27.832   0.959  52.936  1.00  0.00     0.084 N 
HETATM   15  C16 UNL     1      28.772   0.369  53.863  1.00  0.00     0.309 C 
HETATM   16  C17 UNL     1      26.760   0.064  52.674  1.00  0.00     0.272 C 
HETATM   17  C18 UNL     1      25.548   0.746  52.007  1.00  0.00     0.037 C 
ENDBRANCH   8  11
ENDBRANCH   7   8
BRANCH   6  18
HETATM   18  N3  UNL     1      22.138   2.588  50.551  1.00  0.00    -0.318 N 
HETATM   19  C5  UNL     1      22.224   1.147  50.525  1.00  0.00     0.113 C 
HETATM   20  C6  UNL     1      21.196   0.353  50.605  1.00  0.00     0.035 C 
HETATM   21  C7  UNL     1      20.059   0.737  51.114  1.00  0.00     0.152 C 
HETATM   22  F1  UNL     1      19.131  -0.115  51.554  1.00  0.00    -0.203 F 
HETATM   23  C8  UNL     1      19.869   2.182  51.170  1.00  0.00     0.089 C 
HETATM   24 CL1  UNL     1      18.285   2.800  51.604  1.00  0.00    -0.080 Cl
HETATM   25  C9  UNL     1      20.841   3.039  50.906  1.00  0.00     0.124 C 
ENDBRANCH   6  18
TORSDOF 4
ENDMDL
MODEL 4
REMARK VINA RESULT:      -6.8      2.322      5.209
REMARK  4 active torsions:
REMARK  status: ('A' for Active; 'I' for Inactive)
REMARK    1  A    between atoms: C4_6  and  N3_7 
REMARK    2  A    between atoms: C10_15  and  C11_16 
REMARK    3  A    between atoms: C11_16  and  O1_17 
REMARK    4  A    between atoms: C11_16  and  C13_19 
ROOT
HETATM    1  C1  UNL     1      22.108   5.399  52.353  1.00  0.00     0.061 C 
HETATM    2  C2  UNL     1      22.958   4.551  51.744  1.00  0.00     0.028 C 
HETATM    3  N1  UNL     1      23.549   5.386  50.721  1.00  0.00    -0.250 NA
HETATM    4  C3  UNL     1      24.748   5.024  50.314  1.00  0.00     0.234 C 
HETATM    5  N2  UNL     1      25.351   3.866  50.862  1.00  0.00    -0.227 NA
HETATM    6  C4  UNL     1      24.816   3.078  51.725  1.00  0.00     0.123 C 
HETATM    7  C10 UNL     1      23.327   3.178  52.037  1.00  0.00     0.133 C 
ENDROOT
BRANCH   7   8
HETATM    8  C11 UNL     1      22.628   2.126  51.193  1.00  0.00     0.142 C 
BRANCH   8   9
HETATM    9  O1  UNL     1      23.299   1.960  49.968  1.00  0.00    -0.389 OA
HETATM   10  C12 UNL     1      22.616   2.336  48.857  1.00  0.00     0.202 C 
ENDBRANCH   8   9
BRANCH   8  11
HETATM   11  C13 UNL     1      22.447   0.802  51.869  1.00  0.00     0.019 C 
HETATM   12  C14 UNL     1      21.294   0.051  51.188  1.00  0.00     0.037 C 
HETATM   13  C15 UNL     1      20.001   0.695  51.570  1.00  0.00     0.272 C 
HETATM   14  N4  UNL     1      19.699   0.346  52.941  1.00  0.00     0.084 N 
HETATM   15  C16 UNL     1      18.751  -0.742  53.033  1.00  0.00     0.309 C 
HETATM   16  C17 UNL     1      20.883   0.042  53.665  1.00  0.00     0.272 C 
HETATM   17  C18 UNL     1      22.066   0.966  53.314  1.00  0.00     0.037 C 
ENDBRANCH   8  11
ENDBRANCH   7   8
BRANCH   6  18
HETATM   18  N3  UNL     1      25.528   1.957  52.234  1.00  0.00    -0.318 N 
HETATM   19  C5  UNL     1      26.350   1.113  51.400  1.00  0.00     0.113 C 
HETATM   20  C6  UNL     1      26.869  -0.015  51.789  1.00  0.00     0.035 C 
HETATM   21  C7  UNL     1      27.046  -0.302  53.048  1.00  0.00     0.152 C 
HETATM   22  F1  UNL     1      27.891  -1.242  53.471  1.00  0.00    -0.203 F 
HETATM   23  C8  UNL     1      26.243   0.489  53.975  1.00  0.00     0.089 C 
HETATM   24 CL1  UNL     1      26.217   0.021  55.666  1.00  0.00    -0.080 Cl
HETATM   25  C9  UNL     1      25.538   1.539  53.590  1.00  0.00     0.124 C 
ENDBRANCH   6  18
TORSDOF 4
ENDMDL
MODEL 5
REMARK VINA RESULT:      -6.8      2.625      5.301
REMARK  4 active torsions:
REMARK  status: ('A' for Active; 'I' for Inactive)
REMARK    1  A    between atoms: C4_6  and  N3_7 
REMARK    2  A    between atoms: C10_15  and  C11_16 
REMARK    3  A    between atoms: C11_16  and  O1_17 
REMARK    4  A    between atoms: C11_16  and  C13_19 
ROOT
HETATM    1  C1  UNL     1      23.569   5.338  51.809  1.00  0.00     0.061 C 
HETATM    2  C2  UNL     1      24.150   4.198  51.388  1.00  0.00     0.028 C 
HETATM    3  N1  UNL     1      24.396   4.473  49.990  1.00  0.00    -0.250 NA
HETATM    4  C3  UNL     1      25.386   3.797  49.443  1.00  0.00     0.234 C 
HETATM    5  N2  UNL     1      26.103   2.858  50.222  1.00  0.00    -0.227 NA
HETATM    6  C4  UNL     1      25.860   2.556  51.447  1.00  0.00     0.123 C 
HETATM    7  C10 UNL     1      24.558   3.003  52.103  1.00  0.00     0.133 C 
ENDROOT
BRANCH   7   8
HETATM    8  C11 UNL     1      23.594   1.832  52.010  1.00  0.00     0.142 C 
BRANCH   8   9
HETATM    9  O1  UNL     1      23.304   1.338  53.294  1.00  0.00    -0.389 OA
HETATM   10  C12 UNL     1      23.781   0.100  53.579  1.00  0.00     0.202 C 
ENDBRANCH   8   9
BRANCH   8  11
HETATM   11  C13 UNL     1      22.326   2.125  51.268  1.00  0.00     0.019 C 
HETATM   12  C14 UNL     1      21.188   2.304  52.282  1.00  0.00     0.037 C 
HETATM   13  C15 UNL     1      20.830   0.971  52.854  1.00  0.00     0.272 C 
HETATM   14  N4  UNL     1      20.104   0.219  51.854  1.00  0.00     0.084 N 
HETATM   15  C16 UNL     1      18.674   0.272  52.061  1.00  0.00     0.309 C 
HETATM   16  C17 UNL     1      20.437   0.656  50.543  1.00  0.00     0.272 C 
HETATM   17  C18 UNL     1      21.934   0.983  50.372  1.00  0.00     0.037 C 
ENDBRANCH   8  11
ENDBRANCH   7   8
BRANCH   6  18
HETATM   18  N3  UNL     1      26.669   1.618  52.146  1.00  0.00    -0.318 N 
HETATM   19  C5  UNL     1      27.665   2.017  53.111  1.00  0.00     0.113 C 
HETATM   20  C6  UNL     1      28.540   1.207  53.635  1.00  0.00     0.035 C 
HETATM   21  C7  UNL     1      28.363  -0.083  53.663  1.00  0.00     0.152 C 
HETATM   22  F1  UNL     1      29.020  -0.892  54.496  1.00  0.00    -0.203 F 
HETATM   23  C8  UNL     1      27.383  -0.589  52.708  1.00  0.00     0.089 C 
HETATM   24 CL1  UNL     1      27.248  -2.325  52.489  1.00  0.00    -0.080 Cl
HETATM   25  C9  UNL     1      26.597   0.208  52.004  1.00  0.00     0.124 C 
ENDBRANCH   6  18
TORSDOF 4
ENDMDL
MODEL 6
REMARK VINA RESULT:      -6.5     10.388     12.228
REMARK  4 active torsions:
REMARK  status: ('A' for Active; 'I' for Inactive)
REMARK    1  A    between atoms: C4_6  and  N3_7 
REMARK    2  A    between atoms: C10_15  and  C11_16 
REMARK    3  A    between atoms: C11_16  and  O1_17 
REMARK    4  A    between atoms: C11_16  and  C13_19 
ROOT
HETATM    1  C1  UNL     1      34.798   9.190  45.096  1.00  0.00     0.061 C 
HETATM    2  C2  UNL     1      33.880   8.220  45.275  1.00  0.00     0.028 C 
HETATM    3  N1  UNL     1      33.087   8.320  44.070  1.00  0.00    -0.250 NA
HETATM    4  C3  UNL     1      32.464   7.217  43.707  1.00  0.00     0.234 C 
HETATM    5  N2  UNL     1      32.583   6.054  44.504  1.00  0.00    -0.227 NA
HETATM    6  C4  UNL     1      33.233   5.964  45.610  1.00  0.00     0.123 C 
HETATM    7  C10 UNL     1      33.721   7.223  46.317  1.00  0.00     0.133 C 
ENDROOT
BRANCH   7   8
HETATM    8  C11 UNL     1      32.689   7.558  47.380  1.00  0.00     0.142 C 
BRANCH   8   9
HETATM    9  O1  UNL     1      33.325   7.873  48.594  1.00  0.00    -0.389 OA
HETATM   10  C12 UNL     1      34.681   7.839  48.584  1.00  0.00     0.202 C 
ENDBRANCH   8   9
BRANCH   8  11
HETATM   11  C13 UNL     1      31.730   8.645  47.001  1.00  0.00     0.019 C 
HETATM   12  C14 UNL     1      31.482   9.538  48.224  1.00  0.00     0.037 C 
HETATM   13  C15 UNL     1      30.631   8.797  49.203  1.00  0.00     0.272 C 
HETATM   14  N4  UNL     1      29.276   8.753  48.697  1.00  0.00     0.084 N 
HETATM   15  C16 UNL     1      28.433   9.762  49.299  1.00  0.00     0.309 C 
HETATM   16  C17 UNL     1      29.255   8.864  47.280  1.00  0.00     0.272 C 
HETATM   17  C18 UNL     1      30.395   8.087  46.592  1.00  0.00     0.037 C 
ENDBRANCH   8  11
ENDBRANCH   7   8
BRANCH   6  18
HETATM   18  N3  UNL     1      33.315   4.732  46.315  1.00  0.00    -0.318 N 
HETATM   19  C5  UNL     1      34.282   4.495  47.359  1.00  0.00     0.113 C 
HETATM   20  C6  UNL     1      34.504   3.332  47.900  1.00  0.00     0.035 C 
HETATM   21  C7  UNL     1      33.628   2.368  47.857  1.00  0.00     0.152 C 
HETATM   22  F1  UNL     1      33.647   1.327  48.692  1.00  0.00    -0.203 F 
HETATM   23  C8  UNL     1      32.613   2.507  46.819  1.00  0.00     0.089 C 
HETATM   24 CL1  UNL     1      31.541   1.152  46.513  1.00  0.00    -0.080 Cl
HETATM   25  C9  UNL     1      32.472   3.610  46.104  1.00  0.00     0.124 C 
ENDBRANCH   6  18
TORSDOF 4
ENDMDL
MODEL 7
REMARK VINA RESULT:      -6.5      3.181      4.592
REMARK  4 active torsions:
REMARK  status: ('A' for Active; 'I' for Inactive)
REMARK    1  A    between atoms: C4_6  and  N3_7 
REMARK    2  A    between atoms: C10_15  and  C11_16 
REMARK    3  A    between atoms: C11_16  and  O1_17 
REMARK    4  A    between atoms: C11_16  and  C13_19 
ROOT
HETATM    1  C1  UNL     1      24.648   2.671  53.406  1.00  0.00     0.061 C 
HETATM    2  C2  UNL     1      23.782   1.821  52.821  1.00  0.00     0.028 C 
HETATM    3  N1  UNL     1      24.234   0.536  53.307  1.00  0.00    -0.250 NA
HETATM    4  C3  UNL     1      23.319  -0.411  53.344  1.00  0.00     0.234 C 
HETATM    5  N2  UNL     1      22.006  -0.131  52.897  1.00  0.00    -0.227 NA
HETATM    6  C4  UNL     1      21.603   0.986  52.405  1.00  0.00     0.123 C 
HETATM    7  C10 UNL     1      22.611   2.053  51.996  1.00  0.00     0.133 C 
ENDROOT
BRANCH   7   8
HETATM    8  C11 UNL     1      22.833   1.900  50.501  1.00  0.00     0.142 C 
BRANCH   8   9
HETATM    9  O1  UNL     1      21.957   0.933  49.976  1.00  0.00    -0.389 OA
HETATM   10  C12 UNL     1      21.505   1.158  48.716  1.00  0.00     0.202 C 
ENDBRANCH   8   9
BRANCH   8  11
HETATM   11  C13 UNL     1      22.727   3.174  49.720  1.00  0.00     0.019 C 
HETATM   12  C14 UNL     1      24.075   3.451  49.039  1.00  0.00     0.037 C 
HETATM   13  C15 UNL     1      25.064   3.883  50.073  1.00  0.00     0.272 C 
HETATM   14  N4  UNL     1      24.749   5.237  50.475  1.00  0.00     0.084 N 
HETATM   15  C16 UNL     1      25.583   6.213  49.810  1.00  0.00     0.309 C 
HETATM   16  C17 UNL     1      23.374   5.527  50.264  1.00  0.00     0.272 C 
HETATM   17  C18 UNL     1      22.442   4.349  50.614  1.00  0.00     0.037 C 
ENDBRANCH   8  11
ENDBRANCH   7   8
BRANCH   6  18
HETATM   18  N3  UNL     1      20.247   1.169  52.017  1.00  0.00    -0.318 N 
HETATM   19  C5  UNL     1      19.381   0.067  51.672  1.00  0.00     0.113 C 
HETATM   20  C6  UNL     1      18.199   0.204  51.145  1.00  0.00     0.035 C 
HETATM   21  C7  UNL     1      17.517   1.310  51.245  1.00  0.00     0.152 C 
HETATM   22  F1  UNL     1      16.197   1.374  51.063  1.00  0.00    -0.203 F 
HETATM   23  C8  UNL     1      18.308   2.491  51.576  1.00  0.00     0.089 C 
HETATM   24 CL1  UNL     1      17.537   4.064  51.493  1.00  0.00    -0.080 Cl
HETATM   25  C9  UNL     1      19.579   2.418  51.935  1.00  0.00     0.124 C 
ENDBRANCH   6  18
TORSDOF 4
ENDMDL
MODEL 8
REMARK VINA RESULT:      -6.4      6.797      9.668
REMARK  4 active torsions:
REMARK  status: ('A' for Active; 'I' for Inactive)
REMARK    1  A    between atoms: C4_6  and  N3_7 
REMARK    2  A    between atoms: C10_15  and  C11_16 
REMARK    3  A    between atoms: C11_16  and  O1_17 
REMARK    4  A    between atoms: C11_16  and  C13_19 
ROOT
HETATM    1  C1  UNL     1      30.854   8.011  44.730  1.00  0.00     0.061 C 
HETATM    2  C2  UNL     1      30.168   8.368  45.833  1.00  0.00     0.028 C 
HETATM    3  N1  UNL     1      29.870   9.760  45.575  1.00  0.00    -0.250 NA
HETATM    4  C3  UNL     1      28.805  10.236  46.187  1.00  0.00     0.234 C 
HETATM    5  N2  UNL     1      28.062   9.396  47.049  1.00  0.00    -0.227 NA
HETATM    6  C4  UNL     1      28.347   8.176  47.338  1.00  0.00     0.123 C 
HETATM    7  C10 UNL     1      29.710   7.600  46.975  1.00  0.00     0.133 C 
ENDROOT
BRANCH   7   8
HETATM    8  C11 UNL     1      30.579   7.707  48.217  1.00  0.00     0.142 C 
BRANCH   8   9
HETATM    9  O1  UNL     1      29.945   8.503  49.187  1.00  0.00    -0.389 OA
HETATM   10  C12 UNL     1      30.609   9.624  49.568  1.00  0.00     0.202 C 
ENDBRANCH   8   9
BRANCH   8  11
HETATM   11  C13 UNL     1      30.987   6.394  48.810  1.00  0.00     0.019 C 
HETATM   12  C14 UNL     1      32.429   6.508  49.323  1.00  0.00     0.037 C 
HETATM   13  C15 UNL     1      33.360   6.544  48.155  1.00  0.00     0.272 C 
HETATM   14  N4  UNL     1      33.442   5.215  47.589  1.00  0.00     0.084 N 
HETATM   15  C16 UNL     1      34.623   4.505  48.028  1.00  0.00     0.309 C 
HETATM   16  C17 UNL     1      32.271   4.463  47.874  1.00  0.00     0.272 C 
HETATM   17  C18 UNL     1      30.976   5.295  47.783  1.00  0.00     0.037 C 
ENDBRANCH   8  11
ENDBRANCH   7   8
BRANCH   6  18
HETATM   18  N3  UNL     1      27.508   7.410  48.194  1.00  0.00    -0.318 N 
HETATM   19  C5  UNL     1      26.519   8.012  49.056  1.00  0.00     0.113 C 
HETATM   20  C6  UNL     1      25.861   7.367  49.976  1.00  0.00     0.035 C 
HETATM   21  C7  UNL     1      25.722   6.072  49.951  1.00  0.00     0.152 C 
HETATM   22  F1  UNL     1      24.773   5.426  50.631  1.00  0.00    -0.203 F 
HETATM   23  C8  UNL     1      26.690   5.367  49.118  1.00  0.00     0.089 C 
HETATM   24 CL1  UNL     1      26.750   3.616  49.207  1.00  0.00    -0.080 Cl
HETATM   25  C9  UNL     1      27.519   5.996  48.302  1.00  0.00     0.124 C 
ENDBRANCH   6  18
TORSDOF 4
ENDMDL
MODEL 9
REMARK VINA RESULT:      -6.3      2.291      4.681
REMARK  4 active torsions:
REMARK  status: ('A' for Active; 'I' for Inactive)
REMARK    1  A    between atoms: C4_6  and  N3_7 
REMARK    2  A    between atoms: C10_15  and  C11_16 
REMARK    3  A    between atoms: C11_16  and  O1_17 
REMARK    4  A    between atoms: C11_16  and  C13_19 
ROOT
HETATM    1  C1  UNL     1      24.656   7.089  50.936  1.00  0.00     0.061 C 
HETATM    2  C2  UNL     1      24.809   5.826  50.494  1.00  0.00     0.028 C 
HETATM    3  N1  UNL     1      25.686   6.000  49.357  1.00  0.00    -0.250 NA
HETATM    4  C3  UNL     1      26.419   4.952  49.038  1.00  0.00     0.234 C 
HETATM    5  N2  UNL     1      26.288   3.757  49.784  1.00  0.00    -0.227 NA
HETATM    6  C4  UNL     1      25.470   3.565  50.758  1.00  0.00     0.123 C 
HETATM    7  C10 UNL     1      24.344   4.556  51.021  1.00  0.00     0.133 C 
ENDROOT
BRANCH   7   8
HETATM    8  C11 UNL     1      23.099   3.996  50.353  1.00  0.00     0.142 C 
BRANCH   8   9
HETATM    9  O1  UNL     1      21.946   4.592  50.894  1.00  0.00    -0.389 OA
HETATM   10  C12 UNL     1      21.683   4.311  52.195  1.00  0.00     0.202 C 
ENDBRANCH   8   9
BRANCH   8  11
HETATM   11  C13 UNL     1      23.088   4.107  48.860  1.00  0.00     0.019 C 
HETATM   12  C14 UNL     1      21.850   4.908  48.431  1.00  0.00     0.037 C 
HETATM   13  C15 UNL     1      20.633   4.063  48.619  1.00  0.00     0.272 C 
HETATM   14  N4  UNL     1      20.604   3.058  47.578  1.00  0.00     0.084 N 
HETATM   15  C16 UNL     1      19.723   3.422  46.491  1.00  0.00     0.309 C 
HETATM   16  C17 UNL     1      21.911   2.784  47.094  1.00  0.00     0.272 C 
HETATM   17  C18 UNL     1      22.979   2.757  48.205  1.00  0.00     0.037 C 
ENDBRANCH   8  11
ENDBRANCH   7   8
BRANCH   6  18
HETATM   18  N3  UNL     1      25.446   2.329  51.461  1.00  0.00    -0.318 N 
HETATM   19  C5  UNL     1      26.608   1.482  51.586  1.00  0.00     0.113 C 
HETATM   20  C6  UNL     1      26.582   0.272  52.064  1.00  0.00     0.035 C 
HETATM   21  C7  UNL     1      25.621  -0.150  52.837  1.00  0.00     0.152 C 
HETATM   22  F1  UNL     1      25.738  -1.214  53.633  1.00  0.00    -0.203 F 
HETATM   23  C8  UNL     1      24.392   0.634  52.770  1.00  0.00     0.089 C 
HETATM   24 CL1  UNL     1      22.962   0.014  53.575  1.00  0.00    -0.080 Cl
HETATM   25  C9  UNL     1      24.317   1.787  52.128  1.00  0.00     0.124 C 
ENDBRANCH   6  18
TORSDOF 4
ENDMDL
