MODEL 1
REMARK VINA RESULT:      -8.1      0.000      0.000
REMARK  7 active torsions:
REMARK  status: ('A' for Active; 'I' for Inactive)
REMARK    1  A    between atoms: C2_2  and  C3_3 
REMARK    2  A    between atoms: C3_3  and  C5_5 
REMARK    3  A    between atoms: C7_7  and  C8_8 
REMARK    4  A    between atoms: C9_9  and  C11_11 
REMARK    5  A    between atoms: C11_11  and  N1_12 
REMARK    6  A    between atoms: C13_15  and  C14_16 
REMARK    7  A    between atoms: C18_20  and  O2_21 
ROOT
HETATM    1  C5  UNL     1      23.789   0.741  52.728  1.00  0.00    -0.020 A 
HETATM    2  C6  UNL     1      24.990   0.075  52.930  1.00  0.00     0.021 A 
HETATM    3  C7  UNL     1      26.166   0.493  52.319  1.00  0.00    -0.035 A 
HETATM    4  C12 UNL     1      26.170   1.592  51.491  1.00  0.00     0.022 A 
HETATM    5  C13 UNL     1      24.991   2.274  51.273  1.00  0.00    -0.016 A 
HETATM    6  C18 UNL     1      23.835   1.839  51.890  1.00  0.00     0.079 A 
ENDROOT
BRANCH   3   7
HETATM    7  C8  UNL     1      27.375  -0.281  52.559  1.00  0.00     0.015 C 
HETATM    8  C9  UNL     1      28.280  -0.378  53.533  1.00  0.00    -0.061 C 
HETATM    9  C10 UNL     1      29.440  -1.288  53.483  1.00  0.00     0.045 C 
BRANCH   8  10
HETATM   10  C11 UNL     1      28.235   0.401  54.803  1.00  0.00     0.216 C 
BRANCH  10  11
HETATM   11  N1  UNL     1      29.038   1.580  54.586  1.00  0.00    -0.137 NA
HETATM   12  O1  UNL     1      28.516   2.594  54.235  1.00  0.00    -0.067 OA
ENDBRANCH  10  11
ENDBRANCH   8  10
ENDBRANCH   3   7
BRANCH   1  13
HETATM   13  C3  UNL     1      22.519   0.287  53.385  1.00  0.00     0.017 C 
HETATM   14  C4  UNL     1      21.574  -0.276  52.330  1.00  0.00     0.015 C 
BRANCH  13  15
HETATM   15  C2  UNL     1      22.796  -0.749  54.448  1.00  0.00     0.004 C 
HETATM   16  C1  UNL     1      21.618  -1.680  54.536  1.00  0.00     0.006 C 
ENDBRANCH  13  15
ENDBRANCH   1  13
BRANCH   5  17
HETATM   17  C14 UNL     1      25.006   3.441  50.394  1.00  0.00    -0.021 C 
HETATM   18  C15 UNL     1      24.500   4.690  51.082  1.00  0.00     0.019 C 
HETATM   19  C16 UNL     1      24.079   3.180  49.216  1.00  0.00     0.019 C 
HETATM   20  C17 UNL     1      26.431   3.645  49.929  1.00  0.00     0.019 C 
ENDBRANCH   5  17
BRANCH   6  21
HETATM   21  O2  UNL     1      22.606   2.503  51.693  1.00  0.00    -0.360 OA
HETATM   22  H27 UNL     1      22.318   2.662  50.735  1.00  0.00     0.217 HD
ENDBRANCH   6  21
TORSDOF 7
ENDMDL
MODEL 2
REMARK VINA RESULT:      -7.8      0.977      4.297
REMARK  7 active torsions:
REMARK  status: ('A' for Active; 'I' for Inactive)
REMARK    1  A    between atoms: C2_2  and  C3_3 
REMARK    2  A    between atoms: C3_3  and  C5_5 
REMARK    3  A    between atoms: C7_7  and  C8_8 
REMARK    4  A    between atoms: C9_9  and  C11_11 
REMARK    5  A    between atoms: C11_11  and  N1_12 
REMARK    6  A    between atoms: C13_15  and  C14_16 
REMARK    7  A    between atoms: C18_20  and  O2_21 
ROOT
HETATM    1  C5  UNL     1      24.125   1.671  52.032  1.00  0.00    -0.020 A 
HETATM    2  C6  UNL     1      25.411   1.152  52.058  1.00  0.00     0.021 A 
HETATM    3  C7  UNL     1      25.723   0.015  52.794  1.00  0.00    -0.035 A 
HETATM    4  C12 UNL     1      24.751  -0.633  53.523  1.00  0.00     0.022 A 
HETATM    5  C13 UNL     1      23.464  -0.138  53.515  1.00  0.00    -0.016 A 
HETATM    6  C18 UNL     1      23.179   0.993  52.777  1.00  0.00     0.079 A 
ENDROOT
BRANCH   3   7
HETATM    7  C8  UNL     1      27.103  -0.446  52.791  1.00  0.00     0.015 C 
HETATM    8  C9  UNL     1      28.161  -0.328  53.594  1.00  0.00    -0.061 C 
HETATM    9  C10 UNL     1      29.476  -0.931  53.306  1.00  0.00     0.045 C 
BRANCH   8  10
HETATM   10  C11 UNL     1      28.155   0.407  54.891  1.00  0.00     0.216 C 
BRANCH  10  11
HETATM   11  N1  UNL     1      28.917   1.612  54.679  1.00  0.00    -0.137 NA
HETATM   12  O1  UNL     1      28.387   2.572  54.205  1.00  0.00    -0.067 OA
ENDBRANCH  10  11
ENDBRANCH   8  10
ENDBRANCH   3   7
BRANCH   1  13
HETATM   13  C3  UNL     1      23.790   2.900  51.240  1.00  0.00     0.017 C 
HETATM   14  C4  UNL     1      23.813   4.118  52.156  1.00  0.00     0.015 C 
BRANCH  13  15
HETATM   15  C2  UNL     1      24.754   3.088  50.093  1.00  0.00     0.004 C 
HETATM   16  C1  UNL     1      24.146   4.040  49.100  1.00  0.00     0.006 C 
ENDBRANCH  13  15
ENDBRANCH   1  13
BRANCH   5  17
HETATM   17  C14 UNL     1      22.439  -0.835  54.290  1.00  0.00    -0.021 C 
HETATM   18  C15 UNL     1      21.375   0.103  54.817  1.00  0.00     0.019 C 
HETATM   19  C16 UNL     1      23.095  -1.484  55.500  1.00  0.00     0.019 C 
HETATM   20  C17 UNL     1      21.813  -1.876  53.388  1.00  0.00     0.019 C 
ENDBRANCH   5  17
BRANCH   6  21
HETATM   21  O2  UNL     1      21.876   1.535  52.743  1.00  0.00    -0.360 OA
HETATM   22  H27 UNL     1      21.232   1.141  52.067  1.00  0.00     0.217 HD
ENDBRANCH   6  21
TORSDOF 7
ENDMDL
MODEL 3
REMARK VINA RESULT:      -7.4      2.475      5.005
REMARK  7 active torsions:
REMARK  status: ('A' for Active; 'I' for Inactive)
REMARK    1  A    between atoms: C2_2  and  C3_3 
REMARK    2  A    between atoms: C3_3  and  C5_5 
REMARK    3  A    between atoms: C7_7  and  C8_8 
REMARK    4  A    between atoms: C9_9  and  C11_11 
REMARK    5  A    between atoms: C11_11  and  N1_12 
REMARK    6  A    between atoms: C13_15  and  C14_16 
REMARK    7  A    between atoms: C18_20  and  O2_21 
ROOT
HETATM    1  C5  UNL     1      25.335   0.750  52.821  1.00  0.00    -0.020 A 
HETATM    2  C6  UNL     1      24.036   0.274  52.929  1.00  0.00     0.021 A 
HETATM    3  C7  UNL     1      23.004   0.790  52.153  1.00  0.00    -0.035 A 
HETATM    4  C12 UNL     1      23.249   1.796  51.246  1.00  0.00     0.022 A 
HETATM    5  C13 UNL     1      24.531   2.288  51.119  1.00  0.00    -0.016 A 
HETATM    6  C18 UNL     1      25.539   1.761  51.901  1.00  0.00     0.079 A 
ENDROOT
BRANCH   3   7
HETATM    7  C8  UNL     1      21.665   0.254  52.350  1.00  0.00     0.015 C 
HETATM    8  C9  UNL     1      20.942  -0.178  53.383  1.00  0.00    -0.061 C 
HETATM    9  C10 UNL     1      19.562  -0.683  53.260  1.00  0.00     0.045 C 
BRANCH   8  10
HETATM   10  C11 UNL     1      21.420  -0.196  54.795  1.00  0.00     0.216 C 
BRANCH  10  11
HETATM   11  N1  UNL     1      21.755  -1.566  55.095  1.00  0.00    -0.137 NA
HETATM   12  O1  UNL     1      22.754  -1.811  55.701  1.00  0.00    -0.067 OA
ENDBRANCH  10  11
ENDBRANCH   8  10
ENDBRANCH   3   7
BRANCH   1  13
HETATM   13  C3  UNL     1      26.447   0.196  53.661  1.00  0.00     0.017 C 
HETATM   14  C4  UNL     1      25.910  -0.168  55.040  1.00  0.00     0.015 C 
BRANCH  13  15
HETATM   15  C2  UNL     1      27.072  -1.013  53.007  1.00  0.00     0.004 C 
HETATM   16  C1  UNL     1      28.552  -0.998  53.273  1.00  0.00     0.006 C 
ENDBRANCH  13  15
ENDBRANCH   1  13
BRANCH   5  17
HETATM   17  C14 UNL     1      24.781   3.355  50.152  1.00  0.00    -0.021 C 
HETATM   18  C15 UNL     1      26.166   3.279  49.550  1.00  0.00     0.019 C 
HETATM   19  C16 UNL     1      24.682   4.697  50.865  1.00  0.00     0.019 C 
HETATM   20  C17 UNL     1      23.735   3.241  49.064  1.00  0.00     0.019 C 
ENDBRANCH   5  17
BRANCH   6  21
HETATM   21  O2  UNL     1      26.864   2.237  51.806  1.00  0.00    -0.360 OA
HETATM   22  H27 UNL     1      26.985   3.213  51.565  1.00  0.00     0.217 HD
ENDBRANCH   6  21
TORSDOF 7
ENDMDL
MODEL 4
REMARK VINA RESULT:      -7.4      2.509      5.842
REMARK  7 active torsions:
REMARK  status: ('A' for Active; 'I' for Inactive)
REMARK    1  A    between atoms: C2_2  and  C3_3 
REMARK    2  A    between atoms: C3_3  and  C5_5 
REMARK    3  A    between atoms: C7_7  and  C8_8 
REMARK    4  A    between atoms: C9_9  and  C11_11 
REMARK    5  A    between atoms: C11_11  and  N1_12 
REMARK    6  A    between atoms: C13_15  and  C14_16 
REMARK    7  A    between atoms: C18_20  and  O2_21 
ROOT
HETATM    1  C5  UNL     1      24.805   2.505  50.984  1.00  0.00    -0.020 A 
HETATM    2  C6  UNL     1      23.561   2.140  51.479  1.00  0.00     0.021 A 
HETATM    3  C7  UNL     1      23.432   1.371  52.630  1.00  0.00    -0.035 A 
HETATM    4  C12 UNL     1      24.548   0.951  53.317  1.00  0.00     0.022 A 
HETATM    5  C13 UNL     1      25.797   1.300  52.848  1.00  0.00    -0.016 A 
HETATM    6  C18 UNL     1      25.900   2.063  51.702  1.00  0.00     0.079 A 
ENDROOT
BRANCH   3   7
HETATM    7  C8  UNL     1      22.091   1.006  53.063  1.00  0.00     0.015 C 
HETATM    8  C9  UNL     1      21.482  -0.102  53.484  1.00  0.00    -0.061 C 
HETATM    9  C10 UNL     1      20.058  -0.158  53.862  1.00  0.00     0.045 C 
BRANCH   8  10
HETATM   10  C11 UNL     1      22.155  -1.422  53.644  1.00  0.00     0.216 C 
BRANCH  10  11
HETATM   11  N1  UNL     1      22.013  -1.786  55.032  1.00  0.00    -0.137 NA
HETATM   12  O1  UNL     1      22.919  -1.603  55.787  1.00  0.00    -0.067 OA
ENDBRANCH  10  11
ENDBRANCH   8  10
ENDBRANCH   3   7
BRANCH   1  13
HETATM   13  C3  UNL     1      24.943   3.332  49.740  1.00  0.00     0.017 C 
HETATM   14  C4  UNL     1      23.658   3.245  48.926  1.00  0.00     0.015 C 
BRANCH  13  15
HETATM   15  C2  UNL     1      25.255   4.771  50.075  1.00  0.00     0.004 C 
HETATM   16  C1  UNL     1      26.255   5.295  49.081  1.00  0.00     0.006 C 
ENDBRANCH  13  15
ENDBRANCH   1  13
BRANCH   5  17
HETATM   17  C14 UNL     1      26.976   0.851  53.586  1.00  0.00    -0.021 C 
HETATM   18  C15 UNL     1      27.716  -0.259  52.874  1.00  0.00     0.019 C 
HETATM   19  C16 UNL     1      26.530   0.293  54.930  1.00  0.00     0.019 C 
HETATM   20  C17 UNL     1      27.884   2.047  53.769  1.00  0.00     0.019 C 
ENDBRANCH   5  17
BRANCH   6  21
HETATM   21  O2  UNL     1      27.157   2.441  51.184  1.00  0.00    -0.360 OA
HETATM   22  H27 UNL     1      27.342   2.212  50.215  1.00  0.00     0.217 HD
ENDBRANCH   6  21
TORSDOF 7
ENDMDL
MODEL 5
REMARK VINA RESULT:      -7.3      2.343      5.154
REMARK  7 active torsions:
REMARK  status: ('A' for Active; 'I' for Inactive)
REMARK    1  A    between atoms: C2_2  and  C3_3 
REMARK    2  A    between atoms: C3_3  and  C5_5 
REMARK    3  A    between atoms: C7_7  and  C8_8 
REMARK    4  A    between atoms: C9_9  and  C11_11 
REMARK    5  A    between atoms: C11_11  and  N1_12 
REMARK    6  A    between atoms: C13_15  and  C14_16 
REMARK    7  A    between atoms: C18_20  and  O2_21 
ROOT
HETATM    1  C5  UNL     1      26.865   1.216  52.691  1.00  0.00    -0.020 A 
HETATM    2  C6  UNL     1      25.930   0.323  53.194  1.00  0.00     0.021 A 
HETATM    3  C7  UNL     1      24.592   0.381  52.820  1.00  0.00    -0.035 A 
HETATM    4  C12 UNL     1      24.158   1.335  51.928  1.00  0.00     0.022 A 
HETATM    5  C13 UNL     1      25.066   2.235  51.412  1.00  0.00    -0.016 A 
HETATM    6  C18 UNL     1      26.389   2.159  51.800  1.00  0.00     0.079 A 
ENDROOT
BRANCH   3   7
HETATM    7  C8  UNL     1      23.672  -0.574  53.418  1.00  0.00     0.015 C 
HETATM    8  C9  UNL     1      22.390  -0.579  53.784  1.00  0.00    -0.061 C 
HETATM    9  C10 UNL     1      21.717  -1.744  54.389  1.00  0.00     0.045 C 
BRANCH   8  10
HETATM   10  C11 UNL     1      21.464   0.577  53.618  1.00  0.00     0.216 C 
BRANCH  10  11
HETATM   11  N1  UNL     1      20.508   0.192  52.609  1.00  0.00    -0.137 NA
HETATM   12  O1  UNL     1      20.833   0.180  51.460  1.00  0.00    -0.067 OA
ENDBRANCH  10  11
ENDBRANCH   8  10
ENDBRANCH   3   7
BRANCH   1  13
HETATM   13  C3  UNL     1      28.307   1.156  53.099  1.00  0.00     0.017 C 
HETATM   14  C4  UNL     1      28.668   2.413  53.881  1.00  0.00     0.015 C 
BRANCH  13  15
HETATM   15  C2  UNL     1      28.587  -0.076  53.928  1.00  0.00     0.004 C 
HETATM   16  C1  UNL     1      29.919  -0.642  53.519  1.00  0.00     0.006 C 
ENDBRANCH  13  15
ENDBRANCH   1  13
BRANCH   5  17
HETATM   17  C14 UNL     1      24.596   3.243  50.464  1.00  0.00    -0.021 C 
HETATM   18  C15 UNL     1      24.306   4.571  51.127  1.00  0.00     0.019 C 
HETATM   19  C16 UNL     1      23.290   2.764  49.846  1.00  0.00     0.019 C 
HETATM   20  C17 UNL     1      25.667   3.412  49.407  1.00  0.00     0.019 C 
ENDBRANCH   5  17
BRANCH   6  21
HETATM   21  O2  UNL     1      27.352   3.061  51.300  1.00  0.00    -0.360 OA
HETATM   22  H27 UNL     1      27.475   3.091  50.295  1.00  0.00     0.217 HD
ENDBRANCH   6  21
TORSDOF 7
ENDMDL
MODEL 6
REMARK VINA RESULT:      -7.0      2.632      5.843
REMARK  7 active torsions:
REMARK  status: ('A' for Active; 'I' for Inactive)
REMARK    1  A    between atoms: C2_2  and  C3_3 
REMARK    2  A    between atoms: C3_3  and  C5_5 
REMARK    3  A    between atoms: C7_7  and  C8_8 
REMARK    4  A    between atoms: C9_9  and  C11_11 
REMARK    5  A    between atoms: C11_11  and  N1_12 
REMARK    6  A    between atoms: C13_15  and  C14_16 
REMARK    7  A    between atoms: C18_20  and  O2_21 
ROOT
HETATM    1  C5  UNL     1      24.822   0.047  53.275  1.00  0.00    -0.020 A 
HETATM    2  C6  UNL     1      24.844   0.961  52.232  1.00  0.00     0.021 A 
HETATM    3  C7  UNL     1      23.672   1.466  51.680  1.00  0.00    -0.035 A 
HETATM    4  C12 UNL     1      22.446   1.067  52.162  1.00  0.00     0.022 A 
HETATM    5  C13 UNL     1      22.395   0.159  53.199  1.00  0.00    -0.016 A 
HETATM    6  C18 UNL     1      23.572  -0.329  53.729  1.00  0.00     0.079 A 
ENDROOT
BRANCH   3   7
HETATM    7  C8  UNL     1      23.784   2.398  50.568  1.00  0.00     0.015 C 
HETATM    8  C9  UNL     1      23.807   3.722  50.418  1.00  0.00    -0.061 C 
HETATM    9  C10 UNL     1      23.934   4.394  49.112  1.00  0.00     0.045 C 
BRANCH   8  10
HETATM   10  C11 UNL     1      23.724   4.697  51.543  1.00  0.00     0.216 C 
BRANCH  10  11
HETATM   11  N1  UNL     1      22.324   4.842  51.854  1.00  0.00    -0.137 NA
HETATM   12  O1  UNL     1      21.750   5.843  51.544  1.00  0.00    -0.067 OA
ENDBRANCH  10  11
ENDBRANCH   8  10
ENDBRANCH   3   7
BRANCH   1  13
HETATM   13  C3  UNL     1      26.087  -0.500  53.867  1.00  0.00     0.017 C 
HETATM   14  C4  UNL     1      26.971  -1.054  52.756  1.00  0.00     0.015 C 
BRANCH  13  15
HETATM   15  C2  UNL     1      26.827   0.562  54.645  1.00  0.00     0.004 C 
HETATM   16  C1  UNL     1      28.271   0.158  54.766  1.00  0.00     0.006 C 
ENDBRANCH  13  15
ENDBRANCH   1  13
BRANCH   5  17
HETATM   17  C14 UNL     1      21.088  -0.256  53.706  1.00  0.00    -0.021 C 
HETATM   18  C15 UNL     1      21.045  -1.725  54.062  1.00  0.00     0.019 C 
HETATM   19  C16 UNL     1      20.047  -0.034  52.617  1.00  0.00     0.019 C 
HETATM   20  C17 UNL     1      20.784   0.584  54.927  1.00  0.00     0.019 C 
ENDBRANCH   5  17
BRANCH   6  21
HETATM   21  O2  UNL     1      23.567  -1.261  54.788  1.00  0.00    -0.360 OA
HETATM   22  H27 UNL     1      23.523  -2.242  54.536  1.00  0.00     0.217 HD
ENDBRANCH   6  21
TORSDOF 7
ENDMDL
MODEL 7
REMARK VINA RESULT:      -6.9      2.699      5.056
REMARK  7 active torsions:
REMARK  status: ('A' for Active; 'I' for Inactive)
REMARK    1  A    between atoms: C2_2  and  C3_3 
REMARK    2  A    between atoms: C3_3  and  C5_5 
REMARK    3  A    between atoms: C7_7  and  C8_8 
REMARK    4  A    between atoms: C9_9  and  C11_11 
REMARK    5  A    between atoms: C11_11  and  N1_12 
REMARK    6  A    between atoms: C13_15  and  C14_16 
REMARK    7  A    between atoms: C18_20  and  O2_21 
ROOT
HETATM    1  C5  UNL     1      23.903   1.756  51.646  1.00  0.00    -0.020 A 
HETATM    2  C6  UNL     1      24.619   2.627  50.837  1.00  0.00     0.021 A 
HETATM    3  C7  UNL     1      26.009   2.619  50.810  1.00  0.00    -0.035 A 
HETATM    4  C12 UNL     1      26.718   1.736  51.592  1.00  0.00     0.022 A 
HETATM    5  C13 UNL     1      26.031   0.858  52.405  1.00  0.00    -0.016 A 
HETATM    6  C18 UNL     1      24.650   0.885  52.416  1.00  0.00     0.079 A 
ENDROOT
BRANCH   3   7
HETATM    7  C8  UNL     1      26.682   3.587  49.957  1.00  0.00     0.015 C 
HETATM    8  C9  UNL     1      26.347   4.709  49.321  1.00  0.00    -0.061 C 
HETATM    9  C10 UNL     1      27.288   5.495  48.500  1.00  0.00     0.045 C 
BRANCH   8  10
HETATM   10  C11 UNL     1      24.992   5.328  49.365  1.00  0.00     0.216 C 
BRANCH  10  11
HETATM   11  N1  UNL     1      25.008   6.267  50.459  1.00  0.00    -0.137 NA
HETATM   12  O1  UNL     1      24.192   6.179  51.326  1.00  0.00    -0.067 OA
ENDBRANCH  10  11
ENDBRANCH   8  10
ENDBRANCH   3   7
BRANCH   1  13
HETATM   13  C3  UNL     1      22.403   1.766  51.678  1.00  0.00     0.017 C 
HETATM   14  C4  UNL     1      21.905   3.207  51.697  1.00  0.00     0.015 C 
BRANCH  13  15
HETATM   15  C2  UNL     1      21.829   1.029  50.491  1.00  0.00     0.004 C 
HETATM   16  C1  UNL     1      20.441   0.561  50.837  1.00  0.00     0.006 C 
ENDBRANCH  13  15
ENDBRANCH   1  13
BRANCH   5  17
HETATM   17  C14 UNL     1      26.792  -0.078  53.230  1.00  0.00    -0.021 C 
HETATM   18  C15 UNL     1      26.318  -0.102  54.666  1.00  0.00     0.019 C 
HETATM   19  C16 UNL     1      28.250   0.361  53.253  1.00  0.00     0.019 C 
HETATM   20  C17 UNL     1      26.649  -1.452  52.612  1.00  0.00     0.019 C 
ENDBRANCH   5  17
BRANCH   6  21
HETATM   21  O2  UNL     1      23.908   0.008  53.235  1.00  0.00    -0.360 OA
HETATM   22  H27 UNL     1      22.900   0.023  53.128  1.00  0.00     0.217 HD
ENDBRANCH   6  21
TORSDOF 7
ENDMDL
MODEL 8
REMARK VINA RESULT:      -6.8      2.728      5.244
REMARK  7 active torsions:
REMARK  status: ('A' for Active; 'I' for Inactive)
REMARK    1  A    between atoms: C2_2  and  C3_3 
REMARK    2  A    between atoms: C3_3  and  C5_5 
REMARK    3  A    between atoms: C7_7  and  C8_8 
REMARK    4  A    between atoms: C9_9  and  C11_11 
REMARK    5  A    between atoms: C11_11  and  N1_12 
REMARK    6  A    between atoms: C13_15  and  C14_16 
REMARK    7  A    between atoms: C18_20  and  O2_21 
ROOT
HETATM    1  C5  UNL     1      22.809   0.933  52.865  1.00  0.00    -0.020 A 
HETATM    2  C6  UNL     1      22.699   2.267  52.500  1.00  0.00     0.021 A 
HETATM    3  C7  UNL     1      23.804   3.111  52.480  1.00  0.00    -0.035 A 
HETATM    4  C12 UNL     1      25.050   2.637  52.822  1.00  0.00     0.022 A 
HETATM    5  C13 UNL     1      25.188   1.314  53.188  1.00  0.00    -0.016 A 
HETATM    6  C18 UNL     1      24.076   0.496  53.202  1.00  0.00     0.079 A 
ENDROOT
BRANCH   3   7
HETATM    7  C8  UNL     1      23.595   4.504  52.115  1.00  0.00     0.015 C 
HETATM    8  C9  UNL     1      23.954   5.302  51.111  1.00  0.00    -0.061 C 
HETATM    9  C10 UNL     1      23.574   6.725  51.021  1.00  0.00     0.045 C 
BRANCH   8  10
HETATM   10  C11 UNL     1      24.770   4.867  49.941  1.00  0.00     0.216 C 
BRANCH  10  11
HETATM   11  N1  UNL     1      23.837   4.563  48.885  1.00  0.00    -0.137 NA
HETATM   12  O1  UNL     1      23.392   3.459  48.787  1.00  0.00    -0.067 OA
ENDBRANCH  10  11
ENDBRANCH   8  10
ENDBRANCH   3   7
BRANCH   1  13
HETATM   13  C3  UNL     1      21.616   0.024  52.890  1.00  0.00     0.017 C 
HETATM   14  C4  UNL     1      20.815   0.272  54.163  1.00  0.00     0.015 C 
BRANCH  13  15
HETATM   15  C2  UNL     1      20.746   0.234  51.673  1.00  0.00     0.004 C 
HETATM   16  C1  UNL     1      19.305   0.070  52.074  1.00  0.00     0.006 C 
ENDBRANCH  13  15
ENDBRANCH   1  13
BRANCH   5  17
HETATM   17  C14 UNL     1      26.516   0.820  53.547  1.00  0.00    -0.021 C 
HETATM   18  C15 UNL     1      26.559   0.239  54.943  1.00  0.00     0.019 C 
HETATM   19  C16 UNL     1      27.496   1.985  53.523  1.00  0.00     0.019 C 
HETATM   20  C17 UNL     1      26.901  -0.235  52.533  1.00  0.00     0.019 C 
ENDBRANCH   5  17
BRANCH   6  21
HETATM   21  O2  UNL     1      24.171  -0.862  53.573  1.00  0.00    -0.360 OA
HETATM   22  H27 UNL     1      24.478  -1.059  54.518  1.00  0.00     0.217 HD
ENDBRANCH   6  21
TORSDOF 7
ENDMDL
MODEL 9
REMARK VINA RESULT:      -6.8      2.971      5.503
REMARK  7 active torsions:
REMARK  status: ('A' for Active; 'I' for Inactive)
REMARK    1  A    between atoms: C2_2  and  C3_3 
REMARK    2  A    between atoms: C3_3  and  C5_5 
REMARK    3  A    between atoms: C7_7  and  C8_8 
REMARK    4  A    between atoms: C9_9  and  C11_11 
REMARK    5  A    between atoms: C11_11  and  N1_12 
REMARK    6  A    between atoms: C13_15  and  C14_16 
REMARK    7  A    between atoms: C18_20  and  O2_21 
ROOT
HETATM    1  C5  UNL     1      25.502   1.797  51.646  1.00  0.00    -0.020 A 
HETATM    2  C6  UNL     1      24.234   1.241  51.556  1.00  0.00     0.021 A 
HETATM    3  C7  UNL     1      23.214   1.864  50.846  1.00  0.00    -0.035 A 
HETATM    4  C12 UNL     1      23.440   3.060  50.203  1.00  0.00     0.022 A 
HETATM    5  C13 UNL     1      24.692   3.635  50.276  1.00  0.00    -0.016 A 
HETATM    6  C18 UNL     1      25.688   2.998  50.989  1.00  0.00     0.079 A 
ENDROOT
BRANCH   3   7
HETATM    7  C8  UNL     1      21.905   1.228  50.828  1.00  0.00     0.015 C 
HETATM    8  C9  UNL     1      20.802   1.270  51.575  1.00  0.00    -0.061 C 
HETATM    9  C10 UNL     1      19.592   0.476  51.291  1.00  0.00     0.045 C 
BRANCH   8  10
HETATM   10  C11 UNL     1      20.636   2.131  52.780  1.00  0.00     0.216 C 
BRANCH  10  11
HETATM   11  N1  UNL     1      19.725   3.184  52.406  1.00  0.00    -0.137 NA
HETATM   12  O1  UNL     1      20.107   4.078  51.713  1.00  0.00    -0.067 OA
ENDBRANCH  10  11
ENDBRANCH   8  10
ENDBRANCH   3   7
BRANCH   1  13
HETATM   13  C3  UNL     1      26.601   1.127  52.416  1.00  0.00     0.017 C 
HETATM   14  C4  UNL     1      26.305   1.217  53.908  1.00  0.00     0.015 C 
BRANCH  13  15
HETATM   15  C2  UNL     1      26.756  -0.316  51.998  1.00  0.00     0.004 C 
HETATM   16  C1  UNL     1      27.229  -1.115  53.182  1.00  0.00     0.006 C 
ENDBRANCH  13  15
ENDBRANCH   1  13
BRANCH   5  17
HETATM   17  C14 UNL     1      24.922   4.904  49.588  1.00  0.00    -0.021 C 
HETATM   18  C15 UNL     1      26.286   4.971  48.938  1.00  0.00     0.019 C 
HETATM   19  C16 UNL     1      24.864   6.032  50.609  1.00  0.00     0.019 C 
HETATM   20  C17 UNL     1      23.840   5.061  48.543  1.00  0.00     0.019 C 
ENDBRANCH   5  17
BRANCH   6  21
HETATM   21  O2  UNL     1      26.982   3.552  51.091  1.00  0.00    -0.360 OA
HETATM   22  H27 UNL     1      27.699   3.157  50.495  1.00  0.00     0.217 HD
ENDBRANCH   6  21
TORSDOF 7
ENDMDL
