MODEL 1
REMARK VINA RESULT:      -7.6      0.000      0.000
REMARK  6 active torsions:
REMARK  status: ('A' for Active; 'I' for Inactive)
REMARK    1  A    between atoms: O1_2  and  C2_3 
REMARK    2  A    between atoms: C2_3  and  C3_4 
REMARK    3  A    between atoms: C3_4  and  O2_22 
REMARK    4  A    between atoms: C4_5  and  C5_6 
REMARK    5  A    between atoms: C9_12  and  N3_13 
REMARK    6  A    between atoms: N3_13  and  C10_14 
ROOT
HETATM    1  C5  UNL     1      23.921   1.417  52.963  1.00  0.00     0.089 A 
HETATM    2  C6  UNL     1      24.967   2.200  52.110  1.00  0.00     0.139 A 
HETATM    3  N1  UNL     1      24.692   2.551  50.745  1.00  0.00    -0.262 N 
HETATM    4  C7  UNL     1      23.687   3.661  50.913  1.00  0.00     0.223 A 
HETATM    5  N2  UNL     1      23.386   3.848  52.535  1.00  0.00    -0.262 NA
HETATM    6  C8  UNL     1      24.157   2.926  52.995  1.00  0.00     0.139 A 
HETATM    7  C9  UNL     1      25.641   2.468  53.326  1.00  0.00     0.056 A 
ENDROOT
BRANCH   7   8
HETATM    8  N3  UNL     1      26.781   2.414  54.104  1.00  0.00    -0.358 N 
HETATM    9  H9  UNL     1      27.177   3.042  54.776  1.00  0.00     0.165 HD
BRANCH   8  10
HETATM   10  C10 UNL     1      27.455   1.194  53.814  1.00  0.00     0.034 A 
HETATM   11  C11 UNL     1      28.814   1.180  54.100  1.00  0.00     0.032 A 
HETATM   12  C12 UNL     1      29.589   0.054  53.852  1.00  0.00     0.046 A 
HETATM   13  C13 UNL     1      29.052  -1.088  53.314  1.00  0.00     0.138 A 
HETATM   14  F1  UNL     1      29.799  -2.190  53.067  1.00  0.00    -0.204 F 
HETATM   15  C14 UNL     1      27.684  -1.051  53.033  1.00  0.00     0.074 A 
HETATM   16 CL1  UNL     1      26.926  -2.474  52.345  1.00  0.00    -0.081 Cl
HETATM   17  C15 UNL     1      26.902   0.060  53.277  1.00  0.00     0.056 A 
ENDBRANCH   8  10
ENDBRANCH   7   8
BRANCH   1  18
HETATM   18  C4  UNL     1      22.819   0.928  52.175  1.00  0.00     0.018 C 
HETATM   19  C3  UNL     1      21.718   0.422  52.702  1.00  0.00     0.066 C 
BRANCH  19  20
HETATM   20  C2  UNL     1      21.396   0.258  54.146  1.00  0.00     0.231 C 
BRANCH  20  21
HETATM   21  O1  UNL     1      21.479  -1.034  54.596  1.00  0.00    -0.390 OA
HETATM   22  C1  UNL     1      22.703  -1.347  55.179  1.00  0.00     0.201 C 
ENDBRANCH  20  21
ENDBRANCH  19  20
BRANCH  19  23
HETATM   23  O2  UNL     1      20.664  -0.049  51.929  1.00  0.00    -0.358 OA
HETATM   24  C16 UNL     1      19.382   0.485  52.181  1.00  0.00     0.209 C 
ENDBRANCH  19  23
ENDBRANCH   1  18
TORSDOF 6
ENDMDL
MODEL 2
REMARK VINA RESULT:      -7.5      3.482      5.917
REMARK  6 active torsions:
REMARK  status: ('A' for Active; 'I' for Inactive)
REMARK    1  A    between atoms: O1_2  and  C2_3 
REMARK    2  A    between atoms: C2_3  and  C3_4 
REMARK    3  A    between atoms: C3_4  and  O2_22 
REMARK    4  A    between atoms: C4_5  and  C5_6 
REMARK    5  A    between atoms: C9_12  and  N3_13 
REMARK    6  A    between atoms: N3_13  and  C10_14 
ROOT
HETATM    1  C5  UNL     1      26.132   1.014  52.333  1.00  0.00     0.089 A 
HETATM    2  C6  UNL     1      27.119   0.299  53.307  1.00  0.00     0.139 A 
HETATM    3  N1  UNL     1      28.533   0.542  53.233  1.00  0.00    -0.262 N 
HETATM    4  C7  UNL     1      28.633   1.928  53.815  1.00  0.00     0.223 A 
HETATM    5  N2  UNL     1      27.099   2.457  54.166  1.00  0.00    -0.262 NA
HETATM    6  C8  UNL     1      26.432   1.429  53.772  1.00  0.00     0.139 A 
HETATM    7  C9  UNL     1      25.982  -0.064  54.068  1.00  0.00     0.056 A 
ENDROOT
BRANCH   7   8
HETATM    8  N3  UNL     1      25.193  -1.031  54.660  1.00  0.00    -0.358 N 
HETATM    9  H9  UNL     1      25.397  -1.790  55.280  1.00  0.00     0.165 HD
BRANCH   8  10
HETATM   10  C10 UNL     1      23.850  -0.824  54.236  1.00  0.00     0.034 A 
HETATM   11  C11 UNL     1      22.874  -1.137  55.173  1.00  0.00     0.032 A 
HETATM   12  C12 UNL     1      21.524  -0.991  54.880  1.00  0.00     0.046 A 
HETATM   13  C13 UNL     1      21.095  -0.536  53.659  1.00  0.00     0.138 A 
HETATM   14  F1  UNL     1      19.781  -0.391  53.363  1.00  0.00    -0.204 F 
HETATM   15  C14 UNL     1      22.093  -0.227  52.732  1.00  0.00     0.074 A 
HETATM   16 CL1  UNL     1      21.623   0.360  51.149  1.00  0.00    -0.081 Cl
HETATM   17  C15 UNL     1      23.438  -0.366  53.011  1.00  0.00     0.056 A 
ENDBRANCH   8  10
ENDBRANCH   7   8
BRANCH   1  18
HETATM   18  C4  UNL     1      26.809   1.720  51.276  1.00  0.00     0.018 C 
HETATM   19  C3  UNL     1      26.297   2.769  50.659  1.00  0.00     0.066 C 
BRANCH  19  20
HETATM   20  C2  UNL     1      24.979   3.415  50.910  1.00  0.00     0.231 C 
BRANCH  20  21
HETATM   21  O1  UNL     1      23.907   2.712  50.425  1.00  0.00    -0.390 OA
HETATM   22  C1  UNL     1      22.986   3.498  49.740  1.00  0.00     0.201 C 
ENDBRANCH  20  21
ENDBRANCH  19  20
BRANCH  19  23
HETATM   23  O2  UNL     1      26.961   3.439  49.638  1.00  0.00    -0.358 OA
HETATM   24  C16 UNL     1      26.477   4.713  49.273  1.00  0.00     0.209 C 
ENDBRANCH  19  23
ENDBRANCH   1  18
TORSDOF 6
ENDMDL
MODEL 3
REMARK VINA RESULT:      -7.3      2.535      4.041
REMARK  6 active torsions:
REMARK  status: ('A' for Active; 'I' for Inactive)
REMARK    1  A    between atoms: O1_2  and  C2_3 
REMARK    2  A    between atoms: C2_3  and  C3_4 
REMARK    3  A    between atoms: C3_4  and  O2_22 
REMARK    4  A    between atoms: C4_5  and  C5_6 
REMARK    5  A    between atoms: C9_12  and  N3_13 
REMARK    6  A    between atoms: N3_13  and  C10_14 
ROOT
HETATM    1  C5  UNL     1      23.979   3.797  52.687  1.00  0.00     0.089 A 
HETATM    2  C6  UNL     1      24.093   2.314  53.157  1.00  0.00     0.139 A 
HETATM    3  N1  UNL     1      22.984   1.410  53.021  1.00  0.00    -0.262 N 
HETATM    4  C7  UNL     1      22.977   1.159  51.536  1.00  0.00     0.223 A 
HETATM    5  N2  UNL     1      24.175   2.079  50.847  1.00  0.00    -0.262 NA
HETATM    6  C8  UNL     1      24.626   2.656  51.906  1.00  0.00     0.139 A 
HETATM    7  C9  UNL     1      25.490   2.527  53.231  1.00  0.00     0.056 A 
ENDROOT
BRANCH   7   8
HETATM    8  N3  UNL     1      26.669   2.516  53.951  1.00  0.00    -0.358 N 
HETATM    9  H9  UNL     1      27.102   3.184  54.558  1.00  0.00     0.165 HD
BRANCH   8  10
HETATM   10  C10 UNL     1      27.322   1.274  53.709  1.00  0.00     0.034 A 
HETATM   11  C11 UNL     1      28.661   1.224  54.074  1.00  0.00     0.032 A 
HETATM   12  C12 UNL     1      29.415   0.073  53.879  1.00  0.00     0.046 A 
HETATM   13  C13 UNL     1      28.877  -1.057  53.318  1.00  0.00     0.138 A 
HETATM   14  F1  UNL     1      29.604  -2.183  53.123  1.00  0.00    -0.204 F 
HETATM   15  C14 UNL     1      27.529  -0.983  52.957  1.00  0.00     0.074 A 
HETATM   16 CL1  UNL     1      26.770  -2.388  52.235  1.00  0.00    -0.081 Cl
HETATM   17  C15 UNL     1      26.768   0.153  53.147  1.00  0.00     0.056 A 
ENDBRANCH   8  10
ENDBRANCH   7   8
BRANCH   1  18
HETATM   18  C4  UNL     1      22.631   4.167  52.341  1.00  0.00     0.018 C 
HETATM   19  C3  UNL     1      22.339   5.104  51.457  1.00  0.00     0.066 C 
BRANCH  19  20
HETATM   20  C2  UNL     1      23.290   5.936  50.669  1.00  0.00     0.231 C 
BRANCH  20  21
HETATM   21  O1  UNL     1      23.679   7.091  51.296  1.00  0.00    -0.390 OA
HETATM   22  C1  UNL     1      24.133   8.076  50.424  1.00  0.00     0.201 C 
ENDBRANCH  20  21
ENDBRANCH  19  20
BRANCH  19  23
HETATM   23  O2  UNL     1      21.033   5.453  51.135  1.00  0.00    -0.358 OA
HETATM   24  C16 UNL     1      20.731   5.659  49.773  1.00  0.00     0.209 C 
ENDBRANCH  19  23
ENDBRANCH   1  18
TORSDOF 6
ENDMDL
MODEL 4
REMARK VINA RESULT:      -7.0      2.258      3.488
REMARK  6 active torsions:
REMARK  status: ('A' for Active; 'I' for Inactive)
REMARK    1  A    between atoms: O1_2  and  C2_3 
REMARK    2  A    between atoms: C2_3  and  C3_4 
REMARK    3  A    between atoms: C3_4  and  O2_22 
REMARK    4  A    between atoms: C4_5  and  C5_6 
REMARK    5  A    between atoms: C9_12  and  N3_13 
REMARK    6  A    between atoms: N3_13  and  C10_14 
ROOT
HETATM    1  C5  UNL     1      22.911   3.324  52.022  1.00  0.00     0.089 A 
HETATM    2  C6  UNL     1      23.628   2.069  52.609  1.00  0.00     0.139 A 
HETATM    3  N1  UNL     1      22.877   1.010  53.224  1.00  0.00    -0.262 N 
HETATM    4  C7  UNL     1      22.248   0.349  52.026  1.00  0.00     0.223 A 
HETATM    5  N2  UNL     1      22.687   1.202  50.671  1.00  0.00    -0.262 NA
HETATM    6  C8  UNL     1      23.402   2.117  51.226  1.00  0.00     0.139 A 
HETATM    7  C9  UNL     1      24.782   2.500  51.911  1.00  0.00     0.056 A 
ENDROOT
BRANCH   7   8
HETATM    8  N3  UNL     1      26.113   2.870  51.905  1.00  0.00    -0.358 N 
HETATM    9  H9  UNL     1      26.585   3.707  51.624  1.00  0.00     0.165 HD
BRANCH   8  10
HETATM   10  C10 UNL     1      26.876   1.778  52.408  1.00  0.00     0.034 A 
HETATM   11  C11 UNL     1      28.003   2.127  53.141  1.00  0.00     0.032 A 
HETATM   12  C12 UNL     1      28.839   1.155  53.677  1.00  0.00     0.046 A 
HETATM   13  C13 UNL     1      28.594  -0.184  53.506  1.00  0.00     0.138 A 
HETATM   14  F1  UNL     1      29.404  -1.138  54.023  1.00  0.00    -0.204 F 
HETATM   15  C14 UNL     1      27.456  -0.510  52.765  1.00  0.00     0.074 A 
HETATM   16 CL1  UNL     1      27.076  -2.201  52.503  1.00  0.00    -0.081 Cl
HETATM   17  C15 UNL     1      26.616   0.444  52.229  1.00  0.00     0.056 A 
ENDBRANCH   8  10
ENDBRANCH   7   8
BRANCH   1  18
HETATM   18  C4  UNL     1      21.513   3.376  52.367  1.00  0.00     0.018 C 
HETATM   19  C3  UNL     1      20.596   3.936  51.600  1.00  0.00     0.066 C 
BRANCH  19  20
HETATM   20  C2  UNL     1      20.797   4.601  50.283  1.00  0.00     0.231 C 
BRANCH  20  21
HETATM   21  O1  UNL     1      20.909   3.734  49.228  1.00  0.00    -0.390 OA
HETATM   22  C1  UNL     1      21.933   4.058  48.342  1.00  0.00     0.201 C 
ENDBRANCH  20  21
ENDBRANCH  19  20
BRANCH  19  23
HETATM   23  O2  UNL     1      19.251   3.981  51.948  1.00  0.00    -0.358 OA
HETATM   24  C16 UNL     1      18.435   2.906  51.536  1.00  0.00     0.209 C 
ENDBRANCH  19  23
ENDBRANCH   1  18
TORSDOF 6
ENDMDL
MODEL 5
REMARK VINA RESULT:      -7.0      1.987      2.828
REMARK  6 active torsions:
REMARK  status: ('A' for Active; 'I' for Inactive)
REMARK    1  A    between atoms: O1_2  and  C2_3 
REMARK    2  A    between atoms: C2_3  and  C3_4 
REMARK    3  A    between atoms: C3_4  and  O2_22 
REMARK    4  A    between atoms: C4_5  and  C5_6 
REMARK    5  A    between atoms: C9_12  and  N3_13 
REMARK    6  A    between atoms: N3_13  and  C10_14 
ROOT
HETATM    1  C5  UNL     1      21.815   1.791  52.590  1.00  0.00     0.089 A 
HETATM    2  C6  UNL     1      22.035   2.622  51.288  1.00  0.00     0.139 A 
HETATM    3  N1  UNL     1      21.120   2.523  50.186  1.00  0.00    -0.262 N 
HETATM    4  C7  UNL     1      19.926   3.276  50.714  1.00  0.00     0.223 A 
HETATM    5  N2  UNL     1      20.260   3.755  52.267  1.00  0.00    -0.262 NA
HETATM    6  C8  UNL     1      21.441   3.258  52.387  1.00  0.00     0.139 A 
HETATM    7  C9  UNL     1      22.982   3.375  52.023  1.00  0.00     0.056 A 
ENDROOT
BRANCH   7   8
HETATM    8  N3  UNL     1      24.263   3.868  52.181  1.00  0.00    -0.358 N 
HETATM    9  H9  UNL     1      24.641   4.795  52.167  1.00  0.00     0.165 HD
BRANCH   8  10
HETATM   10  C10 UNL     1      25.137   2.765  52.391  1.00  0.00     0.034 A 
HETATM   11  C11 UNL     1      25.829   2.330  51.268  1.00  0.00     0.032 A 
HETATM   12  C12 UNL     1      26.705   1.254  51.337  1.00  0.00     0.046 A 
HETATM   13  C13 UNL     1      26.923   0.574  52.508  1.00  0.00     0.138 A 
HETATM   14  F1  UNL     1      27.774  -0.477  52.585  1.00  0.00    -0.204 F 
HETATM   15  C14 UNL     1      26.216   1.028  53.624  1.00  0.00     0.074 A 
HETATM   16 CL1  UNL     1      26.442   0.209  55.157  1.00  0.00    -0.081 Cl
HETATM   17  C15 UNL     1      25.344   2.096  53.570  1.00  0.00     0.056 A 
ENDBRANCH   8  10
ENDBRANCH   7   8
BRANCH   1  18
HETATM   18  C4  UNL     1      20.771   0.808  52.450  1.00  0.00     0.018 C 
HETATM   19  C3  UNL     1      20.380   0.019  53.434  1.00  0.00     0.066 C 
BRANCH  19  20
HETATM   20  C2  UNL     1      20.904  -0.022  54.827  1.00  0.00     0.231 C 
BRANCH  20  21
HETATM   21  O1  UNL     1      21.554  -1.185  55.148  1.00  0.00    -0.390 OA
HETATM   22  C1  UNL     1      22.921  -1.153  54.891  1.00  0.00     0.201 C 
ENDBRANCH  20  21
ENDBRANCH  19  20
BRANCH  19  23
HETATM   23  O2  UNL     1      19.373  -0.927  53.283  1.00  0.00    -0.358 OA
HETATM   24  C16 UNL     1      18.293  -0.600  52.436  1.00  0.00     0.209 C 
ENDBRANCH  19  23
ENDBRANCH   1  18
TORSDOF 6
ENDMDL
MODEL 6
REMARK VINA RESULT:      -7.0      4.321      5.741
REMARK  6 active torsions:
REMARK  status: ('A' for Active; 'I' for Inactive)
REMARK    1  A    between atoms: O1_2  and  C2_3 
REMARK    2  A    between atoms: C2_3  and  C3_4 
REMARK    3  A    between atoms: C3_4  and  O2_22 
REMARK    4  A    between atoms: C4_5  and  C5_6 
REMARK    5  A    between atoms: C9_12  and  N3_13 
REMARK    6  A    between atoms: N3_13  and  C10_14 
ROOT
HETATM    1  C5  UNL     1      24.779   1.607  52.071  1.00  0.00     0.089 A 
HETATM    2  C6  UNL     1      24.084   2.371  50.902  1.00  0.00     0.139 A 
HETATM    3  N1  UNL     1      22.654   2.491  50.846  1.00  0.00    -0.262 N 
HETATM    4  C7  UNL     1      22.391   3.496  51.937  1.00  0.00     0.223 A 
HETATM    5  N2  UNL     1      23.839   3.878  52.652  1.00  0.00    -0.262 NA
HETATM    6  C8  UNL     1      24.617   3.122  51.960  1.00  0.00     0.139 A 
HETATM    7  C9  UNL     1      25.365   2.883  50.580  1.00  0.00     0.056 A 
ENDROOT
BRANCH   7   8
HETATM    8  N3  UNL     1      26.391   3.066  49.674  1.00  0.00    -0.358 N 
HETATM    9  H9  UNL     1      27.015   2.432  49.215  1.00  0.00     0.165 HD
BRANCH   8  10
HETATM   10  C10 UNL     1      26.504   4.461  49.413  1.00  0.00     0.034 A 
HETATM   11  C11 UNL     1      27.610   4.840  48.664  1.00  0.00     0.032 A 
HETATM   12  C12 UNL     1      27.843   6.173  48.351  1.00  0.00     0.046 A 
HETATM   13  C13 UNL     1      26.999   7.171  48.767  1.00  0.00     0.138 A 
HETATM   14  F1  UNL     1      27.219   8.474  48.468  1.00  0.00    -0.204 F 
HETATM   15  C14 UNL     1      25.894   6.767  49.520  1.00  0.00     0.074 A 
HETATM   16 CL1  UNL     1      24.770   7.986  50.088  1.00  0.00    -0.081 Cl
HETATM   17  C15 UNL     1      25.650   5.447  49.837  1.00  0.00     0.056 A 
ENDBRANCH   8  10
ENDBRANCH   7   8
BRANCH   1  18
HETATM   18  C4  UNL     1      23.843   0.891  52.900  1.00  0.00     0.018 C 
HETATM   19  C3  UNL     1      24.166  -0.177  53.604  1.00  0.00     0.066 C 
BRANCH  19  20
HETATM   20  C2  UNL     1      25.498  -0.839  53.690  1.00  0.00     0.231 C 
BRANCH  20  21
HETATM   21  O1  UNL     1      26.152  -0.632  54.877  1.00  0.00    -0.390 OA
HETATM   22  C1  UNL     1      27.250   0.216  54.770  1.00  0.00     0.201 C 
ENDBRANCH  20  21
ENDBRANCH  19  20
BRANCH  19  23
HETATM   23  O2  UNL     1      23.251  -0.860  54.397  1.00  0.00    -0.358 OA
HETATM   24  C16 UNL     1      22.071  -1.323  53.778  1.00  0.00     0.209 C 
ENDBRANCH  19  23
ENDBRANCH   1  18
TORSDOF 6
ENDMDL
MODEL 7
REMARK VINA RESULT:      -6.8      4.238      7.132
REMARK  6 active torsions:
REMARK  status: ('A' for Active; 'I' for Inactive)
REMARK    1  A    between atoms: O1_2  and  C2_3 
REMARK    2  A    between atoms: C2_3  and  C3_4 
REMARK    3  A    between atoms: C3_4  and  O2_22 
REMARK    4  A    between atoms: C4_5  and  C5_6 
REMARK    5  A    between atoms: C9_12  and  N3_13 
REMARK    6  A    between atoms: N3_13  and  C10_14 
ROOT
HETATM    1  C5  UNL     1      24.820   0.606  53.524  1.00  0.00     0.089 A 
HETATM    2  C6  UNL     1      23.682   1.597  53.129  1.00  0.00     0.139 A 
HETATM    3  N1  UNL     1      23.909   3.015  53.119  1.00  0.00    -0.262 N 
HETATM    4  C7  UNL     1      24.763   3.177  51.888  1.00  0.00     0.223 A 
HETATM    5  N2  UNL     1      25.039   1.672  51.245  1.00  0.00    -0.262 NA
HETATM    6  C8  UNL     1      24.393   0.960  52.101  1.00  0.00     0.139 A 
HETATM    7  C9  UNL     1      22.981   0.470  52.636  1.00  0.00     0.056 A 
ENDROOT
BRANCH   7   8
HETATM    8  N3  UNL     1      21.857  -0.334  52.624  1.00  0.00    -0.358 N 
HETATM    9  H9  UNL     1      21.612  -1.167  53.121  1.00  0.00     0.165 HD
BRANCH   8  10
HETATM   10  C10 UNL     1      20.935   0.212  51.687  1.00  0.00     0.034 A 
HETATM   11  C11 UNL     1      19.595   0.094  52.031  1.00  0.00     0.032 A 
HETATM   12  C12 UNL     1      18.594   0.575  51.196  1.00  0.00     0.046 A 
HETATM   13  C13 UNL     1      18.881   1.182  50.000  1.00  0.00     0.138 A 
HETATM   14  F1  UNL     1      17.912   1.653  49.179  1.00  0.00    -0.204 F 
HETATM   15  C14 UNL     1      20.235   1.289  49.674  1.00  0.00     0.074 A 
HETATM   16 CL1  UNL     1      20.680   2.053  48.161  1.00  0.00    -0.081 Cl
HETATM   17  C15 UNL     1      21.239   0.817  50.494  1.00  0.00     0.056 A 
ENDBRANCH   8  10
ENDBRANCH   7   8
BRANCH   1  18
HETATM   18  C4  UNL     1      25.976   1.276  54.064  1.00  0.00     0.018 C 
HETATM   19  C3  UNL     1      27.196   0.772  54.016  1.00  0.00     0.066 C 
BRANCH  19  20
HETATM   20  C2  UNL     1      27.618  -0.528  53.426  1.00  0.00     0.231 C 
BRANCH  20  21
HETATM   21  O1  UNL     1      28.698  -1.102  54.046  1.00  0.00    -0.390 OA
HETATM   22  C1  UNL     1      29.324  -2.084  53.284  1.00  0.00     0.201 C 
ENDBRANCH  20  21
ENDBRANCH  19  20
BRANCH  19  23
HETATM   23  O2  UNL     1      28.301   1.429  54.544  1.00  0.00    -0.358 OA
HETATM   24  C16 UNL     1      28.886   2.449  53.764  1.00  0.00     0.209 C 
ENDBRANCH  19  23
ENDBRANCH   1  18
TORSDOF 6
ENDMDL
MODEL 8
REMARK VINA RESULT:      -6.7      3.835      6.440
REMARK  6 active torsions:
REMARK  status: ('A' for Active; 'I' for Inactive)
REMARK    1  A    between atoms: O1_2  and  C2_3 
REMARK    2  A    between atoms: C2_3  and  C3_4 
REMARK    3  A    between atoms: C3_4  and  O2_22 
REMARK    4  A    between atoms: C4_5  and  C5_6 
REMARK    5  A    between atoms: C9_12  and  N3_13 
REMARK    6  A    between atoms: N3_13  and  C10_14 
ROOT
HETATM    1  C5  UNL     1      23.285   0.573  53.171  1.00  0.00     0.089 A 
HETATM    2  C6  UNL     1      22.126  -0.336  52.655  1.00  0.00     0.139 A 
HETATM    3  N1  UNL     1      22.075  -1.731  52.997  1.00  0.00    -0.262 N 
HETATM    4  C7  UNL     1      21.666  -1.673  54.446  1.00  0.00     0.223 A 
HETATM    5  N2  UNL     1      21.555  -0.078  54.892  1.00  0.00    -0.262 NA
HETATM    6  C8  UNL     1      21.886   0.472  53.776  1.00  0.00     0.139 A 
HETATM    7  C9  UNL     1      21.454   0.858  52.298  1.00  0.00     0.056 A 
ENDROOT
BRANCH   7   8
HETATM    8  N3  UNL     1      20.835   1.648  51.350  1.00  0.00    -0.358 N 
HETATM    9  H9  UNL     1      19.890   1.705  51.024  1.00  0.00     0.165 HD
BRANCH   8  10
HETATM   10  C10 UNL     1      21.817   2.508  50.783  1.00  0.00     0.034 A 
HETATM   11  C11 UNL     1      22.319   2.110  49.551  1.00  0.00     0.032 A 
HETATM   12  C12 UNL     1      23.291   2.856  48.897  1.00  0.00     0.046 A 
HETATM   13  C13 UNL     1      23.800   4.010  49.435  1.00  0.00     0.138 A 
HETATM   14  F1  UNL     1      24.749   4.744  48.805  1.00  0.00    -0.204 F 
HETATM   15  C14 UNL     1      23.281   4.392  50.675  1.00  0.00     0.074 A 
HETATM   16 CL1  UNL     1      23.882   5.857  51.426  1.00  0.00    -0.081 Cl
HETATM   17  C15 UNL     1      22.314   3.661  51.334  1.00  0.00     0.056 A 
ENDBRANCH   8  10
ENDBRANCH   7   8
BRANCH   1  18
HETATM   18  C4  UNL     1      24.343  -0.179  53.797  1.00  0.00     0.018 C 
HETATM   19  C3  UNL     1      25.607   0.202  53.789  1.00  0.00     0.066 C 
BRANCH  19  20
HETATM   20  C2  UNL     1      26.182   1.426  53.165  1.00  0.00     0.231 C 
BRANCH  20  21
HETATM   21  O1  UNL     1      26.412   1.314  51.818  1.00  0.00    -0.390 OA
HETATM   22  C1  UNL     1      26.627   2.534  51.184  1.00  0.00     0.201 C 
ENDBRANCH  20  21
ENDBRANCH  19  20
BRANCH  19  23
HETATM   23  O2  UNL     1      26.617  -0.535  54.395  1.00  0.00    -0.358 OA
HETATM   24  C16 UNL     1      27.779   0.159  54.795  1.00  0.00     0.209 C 
ENDBRANCH  19  23
ENDBRANCH   1  18
TORSDOF 6
ENDMDL
MODEL 9
REMARK VINA RESULT:      -6.7      3.701      5.854
REMARK  6 active torsions:
REMARK  status: ('A' for Active; 'I' for Inactive)
REMARK    1  A    between atoms: O1_2  and  C2_3 
REMARK    2  A    between atoms: C2_3  and  C3_4 
REMARK    3  A    between atoms: C3_4  and  O2_22 
REMARK    4  A    between atoms: C4_5  and  C5_6 
REMARK    5  A    between atoms: C9_12  and  N3_13 
REMARK    6  A    between atoms: N3_13  and  C10_14 
ROOT
HETATM    1  C5  UNL     1      24.698   1.224  52.179  1.00  0.00     0.089 A 
HETATM    2  C6  UNL     1      25.929   1.883  52.873  1.00  0.00     0.139 A 
HETATM    3  N1  UNL     1      26.360   1.453  54.175  1.00  0.00    -0.262 N 
HETATM    4  C7  UNL     1      26.986   0.119  53.862  1.00  0.00     0.223 A 
HETATM    5  N2  UNL     1      26.799  -0.175  52.239  1.00  0.00    -0.262 NA
HETATM    6  C8  UNL     1      26.164   0.894  51.907  1.00  0.00     0.139 A 
HETATM    7  C9  UNL     1      26.235   2.452  51.614  1.00  0.00     0.056 A 
ENDROOT
BRANCH   7   8
HETATM    8  N3  UNL     1      26.483   3.559  50.825  1.00  0.00    -0.358 N 
HETATM    9  H9  UNL     1      27.327   4.024  50.552  1.00  0.00     0.165 HD
BRANCH   8  10
HETATM   10  C10 UNL     1      25.233   4.063  50.367  1.00  0.00     0.034 A 
HETATM   11  C11 UNL     1      24.614   3.313  49.377  1.00  0.00     0.032 A 
HETATM   12  C12 UNL     1      23.395   3.704  48.836  1.00  0.00     0.046 A 
HETATM   13  C13 UNL     1      22.753   4.843  49.251  1.00  0.00     0.138 A 
HETATM   14  F1  UNL     1      21.565   5.233  48.729  1.00  0.00    -0.204 F 
HETATM   15  C14 UNL     1      23.395   5.582  50.247  1.00  0.00     0.074 A 
HETATM   16 CL1  UNL     1      22.635   7.051  50.829  1.00  0.00    -0.081 Cl
HETATM   17  C15 UNL     1      24.604   5.205  50.794  1.00  0.00     0.056 A 
ENDBRANCH   8  10
ENDBRANCH   7   8
BRANCH   1  18
HETATM   18  C4  UNL     1      23.966   0.351  53.061  1.00  0.00     0.018 C 
HETATM   19  C3  UNL     1      22.656   0.196  53.006  1.00  0.00     0.066 C 
BRANCH  19  20
HETATM   20  C2  UNL     1      21.702   0.855  52.071  1.00  0.00     0.231 C 
BRANCH  20  21
HETATM   21  O1  UNL     1      21.413   0.117  50.953  1.00  0.00    -0.390 OA
HETATM   22  C1  UNL     1      21.229   0.886  49.808  1.00  0.00     0.201 C 
ENDBRANCH  20  21
ENDBRANCH  19  20
BRANCH  19  23
HETATM   23  O2  UNL     1      21.963  -0.648  53.866  1.00  0.00    -0.358 OA
HETATM   24  C16 UNL     1      22.670  -1.184  54.963  1.00  0.00     0.209 C 
ENDBRANCH  19  23
ENDBRANCH   1  18
TORSDOF 6
ENDMDL
