MODEL 1
REMARK VINA RESULT:      -6.2      0.000      0.000
REMARK  11 active torsions:
REMARK  status: ('A' for Active; 'I' for Inactive)
REMARK    1  A    between atoms: C2_2  and  C3_3 
REMARK    2  A    between atoms: C3_3  and  C4_4 
REMARK    3  A    between atoms: C4_4  and  C5_5 
REMARK    4  A    between atoms: C4_4  and  C9_11 
REMARK    5  A    between atoms: C6_6  and  C7_7 
REMARK    6  A    between atoms: C7_7  and  C8_8 
REMARK       I    between atoms: C8_8  and  N1_9 
REMARK    7  A    between atoms: C9_11  and  O2_12 
REMARK    8  A    between atoms: C9_11  and  C12_16 
REMARK    9  A    between atoms: O2_12  and  C10_13 
REMARK   10  A    between atoms: C12_16  and  C14_18 
REMARK   11  A    between atoms: C14_18  and  C15_19 
ROOT
HETATM    1  C10 UNL     1      26.443  -1.643  52.558  1.00  0.00     0.291 C 
HETATM    2  C11 UNL     1      27.645  -2.333  52.899  1.00  0.00     0.085 C 
HETATM    3  N2  UNL     1      28.607  -2.896  53.190  1.00  0.00    -0.195 NA
ENDROOT
BRANCH   1   4
HETATM    4  O2  UNL     1      25.908  -0.791  53.476  1.00  0.00    -0.371 OA
BRANCH   4   5
HETATM    5  C9  UNL     1      24.855   0.004  53.018  1.00  0.00     0.134 C 
BRANCH   5   6
HETATM    6  C4  UNL     1      25.399   1.414  53.100  1.00  0.00     0.037 C 
BRANCH   6   7
HETATM    7  C3  UNL     1      24.392   2.466  53.396  1.00  0.00     0.010 C 
BRANCH   7   8
HETATM    8  C2  UNL     1      23.958   3.099  52.064  1.00  0.00    -0.004 C 
HETATM    9  C1  UNL     1      22.768   4.025  52.267  1.00  0.00     0.005 C 
ENDBRANCH   7   8
ENDBRANCH   6   7
BRANCH   6  10
HETATM   10  C5  UNL     1      26.418   1.796  52.140  1.00  0.00    -0.023 C 
HETATM   11  C6  UNL     1      27.677   2.139  52.465  1.00  0.00    -0.021 C 
BRANCH  11  12
HETATM   12  C7  UNL     1      28.427   2.253  53.746  1.00  0.00     0.129 C 
BRANCH  12  13
HETATM   13  C8  UNL     1      29.019   0.908  54.047  1.00  0.00     0.218 C 
HETATM   14  N1  UNL     1      28.517  -0.007  54.985  1.00  0.00    -0.370 N 
HETATM   15  H13 UNL     1      28.700  -0.287  55.987  1.00  0.00     0.159 HD
HETATM   16  H14 UNL     1      27.740  -0.714  54.884  1.00  0.00     0.159 HD
HETATM   17  O1  UNL     1      30.015   0.243  53.624  1.00  0.00    -0.274 OA
ENDBRANCH  12  13
ENDBRANCH  11  12
ENDBRANCH   6  10
ENDBRANCH   5   6
BRANCH   5  18
HETATM   18  C12 UNL     1      23.662  -0.317  53.829  1.00  0.00     0.011 C 
HETATM   19  C13 UNL     1      24.149  -1.081  55.041  1.00  0.00     0.012 C 
BRANCH  18  20
HETATM   20  C14 UNL     1      22.570  -0.970  53.065  1.00  0.00     0.010 C 
BRANCH  20  21
HETATM   21  C15 UNL     1      21.383  -0.178  52.678  1.00  0.00    -0.022 C 
HETATM   22  C16 UNL     1      20.843   0.829  53.622  1.00  0.00     0.009 C 
HETATM   23  C17 UNL     1      21.539   0.364  51.265  1.00  0.00     0.009 C 
ENDBRANCH  20  21
ENDBRANCH  18  20
ENDBRANCH   5  18
ENDBRANCH   4   5
ENDBRANCH   1   4
TORSDOF 11
ENDMDL
MODEL 2
REMARK VINA RESULT:      -5.9      3.224      5.574
REMARK  11 active torsions:
REMARK  status: ('A' for Active; 'I' for Inactive)
REMARK    1  A    between atoms: C2_2  and  C3_3 
REMARK    2  A    between atoms: C3_3  and  C4_4 
REMARK    3  A    between atoms: C4_4  and  C5_5 
REMARK    4  A    between atoms: C4_4  and  C9_11 
REMARK    5  A    between atoms: C6_6  and  C7_7 
REMARK    6  A    between atoms: C7_7  and  C8_8 
REMARK       I    between atoms: C8_8  and  N1_9 
REMARK    7  A    between atoms: C9_11  and  O2_12 
REMARK    8  A    between atoms: C9_11  and  C12_16 
REMARK    9  A    between atoms: O2_12  and  C10_13 
REMARK   10  A    between atoms: C12_16  and  C14_18 
REMARK   11  A    between atoms: C14_18  and  C15_19 
ROOT
HETATM    1  C10 UNL     1      21.998   4.621  51.972  1.00  0.00     0.291 C 
HETATM    2  C11 UNL     1      20.789   3.903  52.213  1.00  0.00     0.085 C 
HETATM    3  N2  UNL     1      19.820   3.318  52.425  1.00  0.00    -0.195 NA
ENDROOT
BRANCH   1   4
HETATM    4  O2  UNL     1      23.179   3.954  52.098  1.00  0.00    -0.371 OA
BRANCH   4   5
HETATM    5  C9  UNL     1      23.321   2.823  51.291  1.00  0.00     0.134 C 
BRANCH   5   6
HETATM    6  C4  UNL     1      24.254   1.928  52.078  1.00  0.00     0.037 C 
BRANCH   6   7
HETATM    7  C3  UNL     1      23.774   0.538  52.287  1.00  0.00     0.010 C 
BRANCH   7   8
HETATM    8  C2  UNL     1      22.251   0.583  52.489  1.00  0.00    -0.004 C 
HETATM    9  C1  UNL     1      21.874   0.111  53.885  1.00  0.00     0.005 C 
ENDBRANCH   7   8
ENDBRANCH   6   7
BRANCH   6  10
HETATM   10  C5  UNL     1      24.944   2.514  53.214  1.00  0.00    -0.023 C 
HETATM   11  C6  UNL     1      26.276   2.473  53.396  1.00  0.00    -0.021 C 
BRANCH  11  12
HETATM   12  C7  UNL     1      27.414   1.897  52.629  1.00  0.00     0.129 C 
BRANCH  12  13
HETATM   13  C8  UNL     1      28.594   1.828  53.552  1.00  0.00     0.218 C 
HETATM   14  N1  UNL     1      29.624   0.876  53.481  1.00  0.00    -0.370 N 
HETATM   15  H13 UNL     1      29.880  -0.042  53.936  1.00  0.00     0.159 HD
HETATM   16  H14 UNL     1      30.488   0.866  52.875  1.00  0.00     0.159 HD
HETATM   17  O1  UNL     1      29.002   2.497  54.552  1.00  0.00    -0.274 OA
ENDBRANCH  12  13
ENDBRANCH  11  12
ENDBRANCH   6  10
ENDBRANCH   5   6
BRANCH   5  18
HETATM   18  C12 UNL     1      23.770   3.274  49.958  1.00  0.00     0.011 C 
HETATM   19  C13 UNL     1      22.925   2.540  48.939  1.00  0.00     0.012 C 
BRANCH  18  20
HETATM   20  C14 UNL     1      25.236   3.181  49.750  1.00  0.00     0.010 C 
BRANCH  20  21
HETATM   21  C15 UNL     1      26.045   4.418  49.734  1.00  0.00    -0.022 C 
HETATM   22  C16 UNL     1      27.274   4.471  48.907  1.00  0.00     0.009 C 
HETATM   23  C17 UNL     1      25.154   5.637  49.544  1.00  0.00     0.009 C 
ENDBRANCH  20  21
ENDBRANCH  18  20
ENDBRANCH   5  18
ENDBRANCH   4   5
ENDBRANCH   1   4
TORSDOF 11
ENDMDL
MODEL 3
REMARK VINA RESULT:      -5.9      2.225      3.876
REMARK  11 active torsions:
REMARK  status: ('A' for Active; 'I' for Inactive)
REMARK    1  A    between atoms: C2_2  and  C3_3 
REMARK    2  A    between atoms: C3_3  and  C4_4 
REMARK    3  A    between atoms: C4_4  and  C5_5 
REMARK    4  A    between atoms: C4_4  and  C9_11 
REMARK    5  A    between atoms: C6_6  and  C7_7 
REMARK    6  A    between atoms: C7_7  and  C8_8 
REMARK       I    between atoms: C8_8  and  N1_9 
REMARK    7  A    between atoms: C9_11  and  O2_12 
REMARK    8  A    between atoms: C9_11  and  C12_16 
REMARK    9  A    between atoms: O2_12  and  C10_13 
REMARK   10  A    between atoms: C12_16  and  C14_18 
REMARK   11  A    between atoms: C14_18  and  C15_19 
ROOT
HETATM    1  C10 UNL     1      24.897   3.392  50.680  1.00  0.00     0.291 C 
HETATM    2  C11 UNL     1      26.124   3.640  49.994  1.00  0.00     0.085 C 
HETATM    3  N2  UNL     1      27.108   3.829  49.426  1.00  0.00    -0.195 NA
ENDROOT
BRANCH   1   4
HETATM    4  O2  UNL     1      24.512   2.097  50.862  1.00  0.00    -0.371 OA
BRANCH   4   5
HETATM    5  C9  UNL     1      24.115   1.764  52.160  1.00  0.00     0.134 C 
BRANCH   5   6
HETATM    6  C4  UNL     1      25.390   1.285  52.820  1.00  0.00     0.037 C 
BRANCH   6   7
HETATM    7  C3  UNL     1      25.481  -0.182  53.034  1.00  0.00     0.010 C 
BRANCH   7   8
HETATM    8  C2  UNL     1      26.516  -0.746  52.048  1.00  0.00    -0.004 C 
HETATM    9  C1  UNL     1      27.089  -2.060  52.556  1.00  0.00     0.005 C 
ENDBRANCH   7   8
ENDBRANCH   6   7
BRANCH   6  10
HETATM   10  C5  UNL     1      25.932   2.095  53.897  1.00  0.00    -0.023 C 
HETATM   11  C6  UNL     1      27.235   2.393  54.041  1.00  0.00    -0.021 C 
BRANCH  11  12
HETATM   12  C7  UNL     1      28.469   2.065  53.275  1.00  0.00     0.129 C 
BRANCH  12  13
HETATM   13  C8  UNL     1      29.094   0.862  53.916  1.00  0.00     0.218 C 
HETATM   14  N1  UNL     1      30.249   0.207  53.457  1.00  0.00    -0.370 N 
HETATM   15  H13 UNL     1      30.495  -0.632  52.866  1.00  0.00     0.159 HD
HETATM   16  H14 UNL     1      31.264   0.442  53.625  1.00  0.00     0.159 HD
HETATM   17  O1  UNL     1      28.837   0.140  54.928  1.00  0.00    -0.274 OA
ENDBRANCH  12  13
ENDBRANCH  11  12
ENDBRANCH   6  10
ENDBRANCH   5   6
BRANCH   5  18
HETATM   18  C12 UNL     1      22.997   0.804  52.055  1.00  0.00     0.011 C 
HETATM   19  C13 UNL     1      22.206   1.185  50.822  1.00  0.00     0.012 C 
BRANCH  18  20
HETATM   20  C14 UNL     1      22.201   0.667  53.300  1.00  0.00     0.010 C 
BRANCH  20  21
HETATM   21  C15 UNL     1      21.864  -0.685  53.798  1.00  0.00    -0.022 C 
HETATM   22  C16 UNL     1      22.485  -1.172  55.052  1.00  0.00     0.009 C 
HETATM   23  C17 UNL     1      20.359  -0.909  53.760  1.00  0.00     0.009 C 
ENDBRANCH  20  21
ENDBRANCH  18  20
ENDBRANCH   5  18
ENDBRANCH   4   5
ENDBRANCH   1   4
TORSDOF 11
ENDMDL
MODEL 4
REMARK VINA RESULT:      -5.9      3.185      5.925
REMARK  11 active torsions:
REMARK  status: ('A' for Active; 'I' for Inactive)
REMARK    1  A    between atoms: C2_2  and  C3_3 
REMARK    2  A    between atoms: C3_3  and  C4_4 
REMARK    3  A    between atoms: C4_4  and  C5_5 
REMARK    4  A    between atoms: C4_4  and  C9_11 
REMARK    5  A    between atoms: C6_6  and  C7_7 
REMARK    6  A    between atoms: C7_7  and  C8_8 
REMARK       I    between atoms: C8_8  and  N1_9 
REMARK    7  A    between atoms: C9_11  and  O2_12 
REMARK    8  A    between atoms: C9_11  and  C12_16 
REMARK    9  A    between atoms: O2_12  and  C10_13 
REMARK   10  A    between atoms: C12_16  and  C14_18 
REMARK   11  A    between atoms: C14_18  and  C15_19 
ROOT
HETATM    1  C10 UNL     1      23.715   5.071  52.091  1.00  0.00     0.291 C 
HETATM    2  C11 UNL     1      22.405   5.363  51.606  1.00  0.00     0.085 C 
HETATM    3  N2  UNL     1      21.340   5.590  51.231  1.00  0.00    -0.195 NA
ENDROOT
BRANCH   1   4
HETATM    4  O2  UNL     1      24.012   3.778  52.403  1.00  0.00    -0.371 OA
BRANCH   4   5
HETATM    5  C9  UNL     1      24.307   2.950  51.318  1.00  0.00     0.134 C 
BRANCH   5   6
HETATM    6  C4  UNL     1      23.343   1.793  51.469  1.00  0.00     0.037 C 
BRANCH   6   7
HETATM    7  C3  UNL     1      22.526   1.487  50.266  1.00  0.00     0.010 C 
BRANCH   7   8
HETATM    8  C2  UNL     1      22.849   2.535  49.190  1.00  0.00    -0.004 C 
HETATM    9  C1  UNL     1      22.403   2.057  47.816  1.00  0.00     0.005 C 
ENDBRANCH   7   8
ENDBRANCH   6   7
BRANCH   6  10
HETATM   10  C5  UNL     1      22.640   1.669  52.733  1.00  0.00    -0.023 C 
HETATM   11  C6  UNL     1      22.721   0.600  53.545  1.00  0.00    -0.021 C 
BRANCH  11  12
HETATM   12  C7  UNL     1      23.451  -0.697  53.490  1.00  0.00     0.129 C 
BRANCH  12  13
HETATM   13  C8  UNL     1      23.489  -1.256  54.880  1.00  0.00     0.218 C 
HETATM   14  N1  UNL     1      24.648  -1.419  55.657  1.00  0.00    -0.370 N 
HETATM   15  H13 UNL     1      25.333  -2.186  55.894  1.00  0.00     0.159 HD
HETATM   16  H14 UNL     1      25.158  -0.716  56.257  1.00  0.00     0.159 HD
HETATM   17  O1  UNL     1      22.627  -1.700  55.701  1.00  0.00    -0.274 OA
ENDBRANCH  12  13
ENDBRANCH  11  12
ENDBRANCH   6  10
ENDBRANCH   5   6
BRANCH   5  18
HETATM   18  C12 UNL     1      25.753   2.645  51.365  1.00  0.00     0.011 C 
HETATM   19  C13 UNL     1      26.369   3.254  50.124  1.00  0.00     0.012 C 
BRANCH  18  20
HETATM   20  C14 UNL     1      26.060   1.210  51.585  1.00  0.00     0.010 C 
BRANCH  20  21
HETATM   21  C15 UNL     1      26.832   0.811  52.782  1.00  0.00    -0.022 C 
HETATM   22  C16 UNL     1      26.438   1.340  54.109  1.00  0.00     0.009 C 
HETATM   23  C17 UNL     1      27.063  -0.693  52.793  1.00  0.00     0.009 C 
ENDBRANCH  20  21
ENDBRANCH  18  20
ENDBRANCH   5  18
ENDBRANCH   4   5
ENDBRANCH   1   4
TORSDOF 11
ENDMDL
MODEL 5
REMARK VINA RESULT:      -5.9      3.078      5.632
REMARK  11 active torsions:
REMARK  status: ('A' for Active; 'I' for Inactive)
REMARK    1  A    between atoms: C2_2  and  C3_3 
REMARK    2  A    between atoms: C3_3  and  C4_4 
REMARK    3  A    between atoms: C4_4  and  C5_5 
REMARK    4  A    between atoms: C4_4  and  C9_11 
REMARK    5  A    between atoms: C6_6  and  C7_7 
REMARK    6  A    between atoms: C7_7  and  C8_8 
REMARK       I    between atoms: C8_8  and  N1_9 
REMARK    7  A    between atoms: C9_11  and  O2_12 
REMARK    8  A    between atoms: C9_11  and  C12_16 
REMARK    9  A    between atoms: O2_12  and  C10_13 
REMARK   10  A    between atoms: C12_16  and  C14_18 
REMARK   11  A    between atoms: C14_18  and  C15_19 
ROOT
HETATM    1  C10 UNL     1      23.119  -0.325  53.441  1.00  0.00     0.291 C 
HETATM    2  C11 UNL     1      22.545  -1.161  54.445  1.00  0.00     0.085 C 
HETATM    3  N2  UNL     1      22.096  -1.833  55.267  1.00  0.00    -0.195 NA
ENDROOT
BRANCH   1   4
HETATM    4  O2  UNL     1      24.417  -0.541  53.088  1.00  0.00    -0.371 OA
BRANCH   4   5
HETATM    5  C9  UNL     1      25.313   0.472  53.439  1.00  0.00     0.134 C 
BRANCH   5   6
HETATM    6  C4  UNL     1      24.902   1.640  52.569  1.00  0.00     0.037 C 
BRANCH   6   7
HETATM    7  C3  UNL     1      25.474   1.641  51.197  1.00  0.00     0.010 C 
BRANCH   7   8
HETATM    8  C2  UNL     1      26.482   2.797  51.101  1.00  0.00    -0.004 C 
HETATM    9  C1  UNL     1      26.524   3.364  49.690  1.00  0.00     0.005 C 
ENDBRANCH   7   8
ENDBRANCH   6   7
BRANCH   6  10
HETATM   10  C5  UNL     1      24.818   2.946  53.197  1.00  0.00    -0.023 C 
HETATM   11  C6  UNL     1      23.821   3.824  52.991  1.00  0.00    -0.021 C 
BRANCH  11  12
HETATM   12  C7  UNL     1      22.585   3.821  52.161  1.00  0.00     0.129 C 
BRANCH  12  13
HETATM   13  C8  UNL     1      22.917   4.469  50.850  1.00  0.00     0.218 C 
HETATM   14  N1  UNL     1      23.807   5.541  50.678  1.00  0.00    -0.370 N 
HETATM   15  H13 UNL     1      23.764   6.591  50.586  1.00  0.00     0.159 HD
HETATM   16  H14 UNL     1      24.859   5.532  50.588  1.00  0.00     0.159 HD
HETATM   17  O1  UNL     1      22.566   4.297  49.642  1.00  0.00    -0.274 OA
ENDBRANCH  12  13
ENDBRANCH  11  12
ENDBRANCH   6  10
ENDBRANCH   5   6
BRANCH   5  18
HETATM   18  C12 UNL     1      26.681  -0.059  53.269  1.00  0.00     0.011 C 
HETATM   19  C13 UNL     1      26.540  -1.486  52.785  1.00  0.00     0.012 C 
BRANCH  18  20
HETATM   20  C14 UNL     1      27.552   0.123  54.457  1.00  0.00     0.010 C 
BRANCH  20  21
HETATM   21  C15 UNL     1      28.905   0.692  54.282  1.00  0.00    -0.022 C 
HETATM   22  C16 UNL     1      29.937  -0.096  53.567  1.00  0.00     0.009 C 
HETATM   23  C17 UNL     1      28.821   2.132  53.794  1.00  0.00     0.009 C 
ENDBRANCH  20  21
ENDBRANCH  18  20
ENDBRANCH   5  18
ENDBRANCH   4   5
ENDBRANCH   1   4
TORSDOF 11
ENDMDL
MODEL 6
REMARK VINA RESULT:      -5.7      3.063      5.399
REMARK  11 active torsions:
REMARK  status: ('A' for Active; 'I' for Inactive)
REMARK    1  A    between atoms: C2_2  and  C3_3 
REMARK    2  A    between atoms: C3_3  and  C4_4 
REMARK    3  A    between atoms: C4_4  and  C5_5 
REMARK    4  A    between atoms: C4_4  and  C9_11 
REMARK    5  A    between atoms: C6_6  and  C7_7 
REMARK    6  A    between atoms: C7_7  and  C8_8 
REMARK       I    between atoms: C8_8  and  N1_9 
REMARK    7  A    between atoms: C9_11  and  O2_12 
REMARK    8  A    between atoms: C9_11  and  C12_16 
REMARK    9  A    between atoms: O2_12  and  C10_13 
REMARK   10  A    between atoms: C12_16  and  C14_18 
REMARK   11  A    between atoms: C14_18  and  C15_19 
ROOT
HETATM    1  C10 UNL     1      21.910   4.513  52.267  1.00  0.00     0.291 C 
HETATM    2  C11 UNL     1      20.662   3.822  52.299  1.00  0.00     0.085 C 
HETATM    3  N2  UNL     1      19.660   3.255  52.341  1.00  0.00    -0.195 NA
ENDROOT
BRANCH   1   4
HETATM    4  O2  UNL     1      23.055   3.777  52.325  1.00  0.00    -0.371 OA
BRANCH   4   5
HETATM    5  C9  UNL     1      23.011   2.542  51.673  1.00  0.00     0.134 C 
BRANCH   5   6
HETATM    6  C4  UNL     1      24.018   1.698  52.424  1.00  0.00     0.037 C 
BRANCH   6   7
HETATM    7  C3  UNL     1      23.523   0.371  52.874  1.00  0.00     0.010 C 
BRANCH   7   8
HETATM    8  C2  UNL     1      22.022   0.498  53.176  1.00  0.00    -0.004 C 
HETATM    9  C1  UNL     1      21.657  -0.266  54.440  1.00  0.00     0.005 C 
ENDBRANCH   7   8
ENDBRANCH   6   7
BRANCH   6  10
HETATM   10  C5  UNL     1      24.892   2.376  53.364  1.00  0.00    -0.023 C 
HETATM   11  C6  UNL     1      26.202   2.110  53.510  1.00  0.00    -0.021 C 
BRANCH  11  12
HETATM   12  C7  UNL     1      27.149   1.157  52.869  1.00  0.00     0.129 C 
BRANCH  12  13
HETATM   13  C8  UNL     1      27.200  -0.076  53.721  1.00  0.00     0.218 C 
HETATM   14  N1  UNL     1      27.958  -0.220  54.894  1.00  0.00    -0.370 N 
HETATM   15  H13 UNL     1      28.891  -0.619  55.183  1.00  0.00     0.159 HD
HETATM   16  H14 UNL     1      27.730   0.079  55.880  1.00  0.00     0.159 HD
HETATM   17  O1  UNL     1      26.661  -1.226  53.681  1.00  0.00    -0.274 OA
ENDBRANCH  12  13
ENDBRANCH  11  12
ENDBRANCH   6  10
ENDBRANCH   5   6
BRANCH   5  18
HETATM   18  C12 UNL     1      23.255   2.782  50.236  1.00  0.00     0.011 C 
HETATM   19  C13 UNL     1      22.375   1.815  49.474  1.00  0.00     0.012 C 
BRANCH  18  20
HETATM   20  C14 UNL     1      24.690   2.767  49.857  1.00  0.00     0.010 C 
BRANCH  20  21
HETATM   21  C15 UNL     1      25.312   3.999  49.328  1.00  0.00    -0.022 C 
HETATM   22  C16 UNL     1      24.757   5.317  49.716  1.00  0.00     0.009 C 
HETATM   23  C17 UNL     1      26.827   3.935  49.464  1.00  0.00     0.009 C 
ENDBRANCH  20  21
ENDBRANCH  18  20
ENDBRANCH   5  18
ENDBRANCH   4   5
ENDBRANCH   1   4
TORSDOF 11
ENDMDL
MODEL 7
REMARK VINA RESULT:      -5.7      3.225      4.857
REMARK  11 active torsions:
REMARK  status: ('A' for Active; 'I' for Inactive)
REMARK    1  A    between atoms: C2_2  and  C3_3 
REMARK    2  A    between atoms: C3_3  and  C4_4 
REMARK    3  A    between atoms: C4_4  and  C5_5 
REMARK    4  A    between atoms: C4_4  and  C9_11 
REMARK    5  A    between atoms: C6_6  and  C7_7 
REMARK    6  A    between atoms: C7_7  and  C8_8 
REMARK       I    between atoms: C8_8  and  N1_9 
REMARK    7  A    between atoms: C9_11  and  O2_12 
REMARK    8  A    between atoms: C9_11  and  C12_16 
REMARK    9  A    between atoms: O2_12  and  C10_13 
REMARK   10  A    between atoms: C12_16  and  C14_18 
REMARK   11  A    between atoms: C14_18  and  C15_19 
ROOT
HETATM    1  C10 UNL     1      23.120   4.799  51.886  1.00  0.00     0.291 C 
HETATM    2  C11 UNL     1      22.424   5.883  51.272  1.00  0.00     0.085 C 
HETATM    3  N2  UNL     1      21.849   6.746  50.770  1.00  0.00    -0.195 NA
ENDROOT
BRANCH   1   4
HETATM    4  O2  UNL     1      23.386   3.695  51.133  1.00  0.00    -0.371 OA
BRANCH   4   5
HETATM    5  C9  UNL     1      24.208   2.740  51.735  1.00  0.00     0.134 C 
BRANCH   5   6
HETATM    6  C4  UNL     1      25.513   2.853  50.977  1.00  0.00     0.037 C 
BRANCH   6   7
HETATM    7  C3  UNL     1      25.418   3.492  49.640  1.00  0.00     0.010 C 
BRANCH   7   8
HETATM    8  C2  UNL     1      26.815   4.002  49.253  1.00  0.00    -0.004 C 
HETATM    9  C1  UNL     1      26.758   5.457  48.813  1.00  0.00     0.005 C 
ENDBRANCH   7   8
ENDBRANCH   6   7
BRANCH   6  10
HETATM   10  C5  UNL     1      26.431   1.730  51.055  1.00  0.00    -0.023 C 
HETATM   11  C6  UNL     1      27.239   1.481  52.100  1.00  0.00    -0.021 C 
BRANCH  11  12
HETATM   12  C7  UNL     1      27.487   2.149  53.407  1.00  0.00     0.129 C 
BRANCH  12  13
HETATM   13  C8  UNL     1      28.588   1.401  54.098  1.00  0.00     0.218 C 
HETATM   14  N1  UNL     1      29.790   0.992  53.498  1.00  0.00    -0.370 N 
HETATM   15  H13 UNL     1      30.191   0.122  53.054  1.00  0.00     0.159 HD
HETATM   16  H14 UNL     1      30.679   1.538  53.337  1.00  0.00     0.159 HD
HETATM   17  O1  UNL     1      28.781   0.955  55.271  1.00  0.00    -0.274 OA
ENDBRANCH  12  13
ENDBRANCH  11  12
ENDBRANCH   6  10
ENDBRANCH   5   6
BRANCH   5  18
HETATM   18  C12 UNL     1      23.500   1.443  51.688  1.00  0.00     0.011 C 
HETATM   19  C13 UNL     1      22.391   1.586  50.668  1.00  0.00     0.012 C 
BRANCH  18  20
HETATM   20  C14 UNL     1      23.077   0.937  53.017  1.00  0.00     0.010 C 
BRANCH  20  21
HETATM   21  C15 UNL     1      23.519  -0.404  53.455  1.00  0.00    -0.022 C 
HETATM   22  C16 UNL     1      24.865  -0.564  54.056  1.00  0.00     0.009 C 
HETATM   23  C17 UNL     1      22.427  -1.089  54.264  1.00  0.00     0.009 C 
ENDBRANCH  20  21
ENDBRANCH  18  20
ENDBRANCH   5  18
ENDBRANCH   4   5
ENDBRANCH   1   4
TORSDOF 11
ENDMDL
MODEL 8
REMARK VINA RESULT:      -5.6      2.313      3.834
REMARK  11 active torsions:
REMARK  status: ('A' for Active; 'I' for Inactive)
REMARK    1  A    between atoms: C2_2  and  C3_3 
REMARK    2  A    between atoms: C3_3  and  C4_4 
REMARK    3  A    between atoms: C4_4  and  C5_5 
REMARK    4  A    between atoms: C4_4  and  C9_11 
REMARK    5  A    between atoms: C6_6  and  C7_7 
REMARK    6  A    between atoms: C7_7  and  C8_8 
REMARK       I    between atoms: C8_8  and  N1_9 
REMARK    7  A    between atoms: C9_11  and  O2_12 
REMARK    8  A    between atoms: C9_11  and  C12_16 
REMARK    9  A    between atoms: O2_12  and  C10_13 
REMARK   10  A    between atoms: C12_16  and  C14_18 
REMARK   11  A    between atoms: C14_18  and  C15_19 
ROOT
HETATM    1  C10 UNL     1      26.662   2.735  51.269  1.00  0.00     0.291 C 
HETATM    2  C11 UNL     1      26.585   3.526  50.084  1.00  0.00     0.085 C 
HETATM    3  N2  UNL     1      26.503   4.165  49.129  1.00  0.00    -0.195 NA
ENDROOT
BRANCH   1   4
HETATM    4  O2  UNL     1      25.952   1.573  51.315  1.00  0.00    -0.371 OA
BRANCH   4   5
HETATM    5  C9  UNL     1      24.909   1.542  52.244  1.00  0.00     0.134 C 
BRANCH   5   6
HETATM    6  C4  UNL     1      24.941   0.128  52.781  1.00  0.00     0.037 C 
BRANCH   6   7
HETATM    7  C3  UNL     1      24.286  -0.065  54.101  1.00  0.00     0.010 C 
BRANCH   7   8
HETATM    8  C2  UNL     1      23.074  -0.989  53.903  1.00  0.00    -0.004 C 
HETATM    9  C1  UNL     1      21.842  -0.423  54.592  1.00  0.00     0.005 C 
ENDBRANCH   7   8
ENDBRANCH   6   7
BRANCH   6  10
HETATM   10  C5  UNL     1      26.161  -0.635  52.586  1.00  0.00    -0.023 C 
HETATM   11  C6  UNL     1      27.250  -0.537  53.368  1.00  0.00    -0.021 C 
BRANCH  11  12
HETATM   12  C7  UNL     1      27.601   0.270  54.569  1.00  0.00     0.129 C 
BRANCH  12  13
HETATM   13  C8  UNL     1      28.630   1.279  54.153  1.00  0.00     0.218 C 
HETATM   14  N1  UNL     1      29.864   0.978  53.555  1.00  0.00    -0.370 N 
HETATM   15  H13 UNL     1      30.870   0.851  53.848  1.00  0.00     0.159 HD
HETATM   16  H14 UNL     1      30.090   0.787  52.541  1.00  0.00     0.159 HD
HETATM   17  O1  UNL     1      28.723   2.544  54.193  1.00  0.00    -0.274 OA
ENDBRANCH  12  13
ENDBRANCH  11  12
ENDBRANCH   6  10
ENDBRANCH   5   6
BRANCH   5  18
HETATM   18  C12 UNL     1      23.679   1.984  51.554  1.00  0.00     0.011 C 
HETATM   19  C13 UNL     1      23.002   2.986  52.464  1.00  0.00     0.012 C 
BRANCH  18  20
HETATM   20  C14 UNL     1      22.816   0.871  51.085  1.00  0.00     0.010 C 
BRANCH  20  21
HETATM   21  C15 UNL     1      21.517   1.180  50.450  1.00  0.00    -0.022 C 
HETATM   22  C16 UNL     1      21.394   1.106  48.975  1.00  0.00     0.009 C 
HETATM   23  C17 UNL     1      20.385   0.465  51.173  1.00  0.00     0.009 C 
ENDBRANCH  20  21
ENDBRANCH  18  20
ENDBRANCH   5  18
ENDBRANCH   4   5
ENDBRANCH   1   4
TORSDOF 11
ENDMDL
MODEL 9
REMARK VINA RESULT:      -5.6      3.300      5.487
REMARK  11 active torsions:
REMARK  status: ('A' for Active; 'I' for Inactive)
REMARK    1  A    between atoms: C2_2  and  C3_3 
REMARK    2  A    between atoms: C3_3  and  C4_4 
REMARK    3  A    between atoms: C4_4  and  C5_5 
REMARK    4  A    between atoms: C4_4  and  C9_11 
REMARK    5  A    between atoms: C6_6  and  C7_7 
REMARK    6  A    between atoms: C7_7  and  C8_8 
REMARK       I    between atoms: C8_8  and  N1_9 
REMARK    7  A    between atoms: C9_11  and  O2_12 
REMARK    8  A    between atoms: C9_11  and  C12_16 
REMARK    9  A    between atoms: O2_12  and  C10_13 
REMARK   10  A    between atoms: C12_16  and  C14_18 
REMARK   11  A    between atoms: C14_18  and  C15_19 
ROOT
HETATM    1  C10 UNL     1      23.796  -0.975  54.805  1.00  0.00     0.291 C 
HETATM    2  C11 UNL     1      22.443  -1.422  54.886  1.00  0.00     0.085 C 
HETATM    3  N2  UNL     1      21.355  -1.796  54.936  1.00  0.00    -0.195 NA
ENDROOT
BRANCH   1   4
HETATM    4  O2  UNL     1      24.287  -0.626  53.584  1.00  0.00    -0.371 OA
BRANCH   4   5
HETATM    5  C9  UNL     1      24.990   0.580  53.540  1.00  0.00     0.134 C 
BRANCH   5   6
HETATM    6  C4  UNL     1      24.215   1.419  52.547  1.00  0.00     0.037 C 
BRANCH   6   7
HETATM    7  C3  UNL     1      23.013   0.766  51.967  1.00  0.00     0.010 C 
BRANCH   7   8
HETATM    8  C2  UNL     1      21.768   1.465  52.535  1.00  0.00    -0.004 C 
HETATM    9  C1  UNL     1      20.809   1.855  51.420  1.00  0.00     0.005 C 
ENDBRANCH   7   8
ENDBRANCH   6   7
BRANCH   6  10
HETATM   10  C5  UNL     1      24.978   2.231  51.616  1.00  0.00    -0.023 C 
HETATM   11  C6  UNL     1      24.703   3.515  51.328  1.00  0.00    -0.021 C 
BRANCH  11  12
HETATM   12  C7  UNL     1      23.664   4.483  51.773  1.00  0.00     0.129 C 
BRANCH  12  13
HETATM   13  C8  UNL     1      24.034   5.830  51.227  1.00  0.00     0.218 C 
HETATM   14  N1  UNL     1      24.397   6.945  51.998  1.00  0.00    -0.370 N 
HETATM   15  H13 UNL     1      23.941   7.813  52.390  1.00  0.00     0.159 HD
HETATM   16  H14 UNL     1      25.335   7.198  52.413  1.00  0.00     0.159 HD
HETATM   17  O1  UNL     1      24.131   6.341  50.068  1.00  0.00    -0.274 OA
ENDBRANCH  12  13
ENDBRANCH  11  12
ENDBRANCH   6  10
ENDBRANCH   5   6
BRANCH   5  18
HETATM   18  C12 UNL     1      26.399   0.269  53.218  1.00  0.00     0.011 C 
HETATM   19  C13 UNL     1      26.397  -1.047  52.472  1.00  0.00     0.012 C 
BRANCH  18  20
HETATM   20  C14 UNL     1      27.313   0.334  54.385  1.00  0.00     0.010 C 
BRANCH  20  21
HETATM   21  C15 UNL     1      28.656   0.930  54.220  1.00  0.00    -0.022 C 
HETATM   22  C16 UNL     1      29.749   0.109  53.645  1.00  0.00     0.009 C 
HETATM   23  C17 UNL     1      28.555   2.308  53.581  1.00  0.00     0.009 C 
ENDBRANCH  20  21
ENDBRANCH  18  20
ENDBRANCH   5  18
ENDBRANCH   4   5
ENDBRANCH   1   4
TORSDOF 11
ENDMDL
