MODEL 1
REMARK VINA RESULT:      -8.2      0.000      0.000
REMARK  2 active torsions:
REMARK  status: ('A' for Active; 'I' for Inactive)
REMARK    1  A    between atoms: C6_6  and  N1_8 
REMARK    2  A    between atoms: N1_8  and  C8_9 
ROOT
HETATM    1  C8  UNL     1      24.108   3.085  51.874  1.00  0.00     0.139 A 
HETATM    2  N2  UNL     1      22.898   3.605  51.875  1.00  0.00    -0.224 NA
HETATM    3  C9  UNL     1      21.816   2.995  52.295  1.00  0.00     0.236 A 
HETATM    4  N3  UNL     1      21.882   1.770  52.759  1.00  0.00    -0.234 NA
HETATM    5  C10 UNL     1      23.220   1.174  52.765  1.00  0.00     0.114 A 
HETATM    6  S1  UNL     1      23.792  -0.524  53.326  1.00  0.00    -0.073 SA
HETATM    7  C11 UNL     1      25.440  -0.239  52.937  1.00  0.00    -0.008 A 
HETATM    8  C12 UNL     1      25.519   1.070  52.417  1.00  0.00    -0.028 A 
HETATM    9  C13 UNL     1      24.415   1.837  52.306  1.00  0.00     0.053 A 
HETATM   10  C14 UNL     1      26.948   1.236  52.116  1.00  0.00     0.041 C 
HETATM   11  C15 UNL     1      27.648   1.099  53.489  1.00  0.00     0.005 C 
HETATM   12  C16 UNL     1      27.816  -0.389  53.710  1.00  0.00     0.005 C 
HETATM   13  C17 UNL     1      26.650  -1.080  53.052  1.00  0.00     0.047 C 
ENDROOT
BRANCH   1  14
HETATM   14  N1  UNL     1      25.137   3.925  51.373  1.00  0.00    -0.358 N 
HETATM   15  H10 UNL     1      25.897   4.523  51.716  1.00  0.00     0.162 HD
BRANCH  14  16
HETATM   16  C6  UNL     1      25.245   4.056  49.935  1.00  0.00     0.069 A 
HETATM   17  C2  UNL     1      25.287   5.422  49.437  1.00  0.00    -0.052 A 
HETATM   18  C1  UNL     1      24.090   6.278  49.657  1.00  0.00     0.046 C 
HETATM   19  C3  UNL     1      26.435   5.690  48.843  1.00  0.00     0.005 A 
HETATM   20  C4  UNL     1      27.247   4.492  48.909  1.00  0.00    -0.001 A 
HETATM   21  C5  UNL     1      26.597   3.519  49.535  1.00  0.00     0.008 A 
HETATM   22  C7  UNL     1      24.159   3.274  49.221  1.00  0.00     0.048 C 
ENDBRANCH  14  16
ENDBRANCH   1  14
TORSDOF 2
ENDMDL
MODEL 2
REMARK VINA RESULT:      -8.1      2.209      4.675
REMARK  2 active torsions:
REMARK  status: ('A' for Active; 'I' for Inactive)
REMARK    1  A    between atoms: C6_6  and  N1_8 
REMARK    2  A    between atoms: N1_8  and  C8_9 
ROOT
HETATM    1  C8  UNL     1      24.495   2.338  52.957  1.00  0.00     0.139 A 
HETATM    2  N2  UNL     1      24.766   3.566  52.563  1.00  0.00    -0.224 NA
HETATM    3  C9  UNL     1      23.913   4.378  51.988  1.00  0.00     0.236 A 
HETATM    4  N3  UNL     1      22.680   3.995  51.761  1.00  0.00    -0.234 NA
HETATM    5  C10 UNL     1      22.359   2.633  52.192  1.00  0.00     0.114 A 
HETATM    6  S1  UNL     1      20.752   1.668  52.075  1.00  0.00    -0.073 SA
HETATM    7  C11 UNL     1      21.394   0.259  52.816  1.00  0.00    -0.008 A 
HETATM    8  C12 UNL     1      22.744   0.534  53.122  1.00  0.00    -0.028 A 
HETATM    9  C13 UNL     1      23.289   1.732  52.825  1.00  0.00     0.053 A 
HETATM   10  C14 UNL     1      23.216  -0.707  53.752  1.00  0.00     0.041 C 
HETATM   11  C15 UNL     1      22.338  -0.853  55.017  1.00  0.00     0.005 C 
HETATM   12  C16 UNL     1      21.061  -1.516  54.549  1.00  0.00     0.005 C 
HETATM   13  C17 UNL     1      20.802  -1.056  53.138  1.00  0.00     0.047 C 
ENDROOT
BRANCH   1  14
HETATM   14  N1  UNL     1      25.570   1.633  53.557  1.00  0.00    -0.358 N 
HETATM   15  H10 UNL     1      25.895   1.340  54.484  1.00  0.00     0.162 HD
BRANCH  14  16
HETATM   16  C6  UNL     1      26.597   1.117  52.676  1.00  0.00     0.069 A 
HETATM   17  C2  UNL     1      27.946   1.125  53.222  1.00  0.00    -0.052 A 
HETATM   18  C1  UNL     1      28.558   2.442  53.540  1.00  0.00     0.046 C 
HETATM   19  C3  UNL     1      28.428  -0.098  53.351  1.00  0.00     0.005 A 
HETATM   20  C4  UNL     1      27.407  -1.017  52.887  1.00  0.00    -0.001 A 
HETATM   21  C5  UNL     1      26.328  -0.356  52.487  1.00  0.00     0.008 A 
HETATM   22  C7  UNL     1      26.576   1.811  51.328  1.00  0.00     0.048 C 
ENDBRANCH  14  16
ENDBRANCH   1  14
TORSDOF 2
ENDMDL
MODEL 3
REMARK VINA RESULT:      -8.0      2.093      5.117
REMARK  2 active torsions:
REMARK  status: ('A' for Active; 'I' for Inactive)
REMARK    1  A    between atoms: C6_6  and  N1_8 
REMARK    2  A    between atoms: N1_8  and  C8_9 
ROOT
HETATM    1  C8  UNL     1      25.674   1.303  51.844  1.00  0.00     0.139 A 
HETATM    2  N2  UNL     1      26.312   2.267  51.212  1.00  0.00    -0.224 NA
HETATM    3  C9  UNL     1      25.745   3.314  50.666  1.00  0.00     0.236 A 
HETATM    4  N3  UNL     1      24.444   3.470  50.721  1.00  0.00    -0.234 NA
HETATM    5  C10 UNL     1      23.715   2.409  51.420  1.00  0.00     0.114 A 
HETATM    6  S1  UNL     1      21.877   2.205  51.742  1.00  0.00    -0.073 SA
HETATM    7  C11 UNL     1      22.058   0.720  52.585  1.00  0.00    -0.008 A 
HETATM    8  C12 UNL     1      23.438   0.425  52.604  1.00  0.00    -0.028 A 
HETATM    9  C13 UNL     1      24.330   1.253  52.023  1.00  0.00     0.053 A 
HETATM   10  C14 UNL     1      23.509  -0.846  53.340  1.00  0.00     0.041 C 
HETATM   11  C15 UNL     1      22.954  -0.507  54.744  1.00  0.00     0.005 C 
HETATM   12  C16 UNL     1      21.449  -0.605  54.618  1.00  0.00     0.005 C 
HETATM   13  C17 UNL     1      21.082  -0.192  53.217  1.00  0.00     0.047 C 
ENDROOT
BRANCH   1  14
HETATM   14  N1  UNL     1      26.487   0.261  52.359  1.00  0.00    -0.358 N 
HETATM   15  H10 UNL     1      26.742  -0.711  52.149  1.00  0.00     0.162 HD
BRANCH  14  16
HETATM   16  C6  UNL     1      27.245   0.543  53.560  1.00  0.00     0.069 A 
HETATM   17  C2  UNL     1      28.639   0.126  53.528  1.00  0.00    -0.052 A 
HETATM   18  C1  UNL     1      28.925  -1.329  53.412  1.00  0.00     0.046 C 
HETATM   19  C3  UNL     1      29.459   1.157  53.611  1.00  0.00     0.005 A 
HETATM   20  C4  UNL     1      28.645   2.352  53.706  1.00  0.00    -0.001 A 
HETATM   21  C5  UNL     1      27.355   2.044  53.680  1.00  0.00     0.008 A 
HETATM   22  C7  UNL     1      26.562  -0.015  54.794  1.00  0.00     0.048 C 
ENDBRANCH  14  16
ENDBRANCH   1  14
TORSDOF 2
ENDMDL
MODEL 4
REMARK VINA RESULT:      -7.9      1.896      5.260
REMARK  2 active torsions:
REMARK  status: ('A' for Active; 'I' for Inactive)
REMARK    1  A    between atoms: C6_6  and  N1_8 
REMARK    2  A    between atoms: N1_8  and  C8_9 
ROOT
HETATM    1  C8  UNL     1      25.213   0.491  52.564  1.00  0.00     0.139 A 
HETATM    2  N2  UNL     1      24.486  -0.429  53.165  1.00  0.00    -0.224 NA
HETATM    3  C9  UNL     1      23.190  -0.364  53.349  1.00  0.00     0.236 A 
HETATM    4  N3  UNL     1      22.510   0.673  52.925  1.00  0.00    -0.234 NA
HETATM    5  C10 UNL     1      23.300   1.708  52.255  1.00  0.00     0.114 A 
HETATM    6  S1  UNL     1      22.770   3.343  51.497  1.00  0.00    -0.073 SA
HETATM    7  C11 UNL     1      24.357   3.776  51.005  1.00  0.00    -0.008 A 
HETATM    8  C12 UNL     1      25.212   2.727  51.404  1.00  0.00    -0.028 A 
HETATM    9  C13 UNL     1      24.725   1.646  52.046  1.00  0.00     0.053 A 
HETATM   10  C14 UNL     1      26.537   3.169  50.946  1.00  0.00     0.041 C 
HETATM   11  C15 UNL     1      26.398   3.270  49.409  1.00  0.00     0.005 C 
HETATM   12  C16 UNL     1      25.797   4.634  49.146  1.00  0.00     0.005 C 
HETATM   13  C17 UNL     1      24.894   4.962  50.306  1.00  0.00     0.047 C 
ENDROOT
BRANCH   1  14
HETATM   14  N1  UNL     1      26.602   0.216  52.474  1.00  0.00    -0.358 N 
HETATM   15  H10 UNL     1      27.292  -0.121  51.794  1.00  0.00     0.162 HD
BRANCH  14  16
HETATM   16  C6  UNL     1      27.401   0.447  53.659  1.00  0.00     0.069 A 
HETATM   17  C2  UNL     1      28.777  -0.020  53.582  1.00  0.00    -0.052 A 
HETATM   18  C1  UNL     1      29.007  -1.482  53.431  1.00  0.00     0.046 C 
HETATM   19  C3  UNL     1      29.637   0.978  53.662  1.00  0.00     0.005 A 
HETATM   20  C4  UNL     1      28.870   2.200  53.801  1.00  0.00    -0.001 A 
HETATM   21  C5  UNL     1      27.570   1.940  53.804  1.00  0.00     0.008 A 
HETATM   22  C7  UNL     1      26.731  -0.110  54.901  1.00  0.00     0.048 C 
ENDBRANCH  14  16
ENDBRANCH   1  14
TORSDOF 2
ENDMDL
MODEL 5
REMARK VINA RESULT:      -7.7      1.439      3.681
REMARK  2 active torsions:
REMARK  status: ('A' for Active; 'I' for Inactive)
REMARK    1  A    between atoms: C6_6  and  N1_8 
REMARK    2  A    between atoms: N1_8  and  C8_9 
ROOT
HETATM    1  C8  UNL     1      25.440   2.336  51.891  1.00  0.00     0.139 A 
HETATM    2  N2  UNL     1      26.627   1.768  51.824  1.00  0.00    -0.224 NA
HETATM    3  C9  UNL     1      26.893   0.534  52.176  1.00  0.00     0.236 A 
HETATM    4  N3  UNL     1      25.944  -0.244  52.638  1.00  0.00    -0.234 NA
HETATM    5  C10 UNL     1      24.616   0.369  52.720  1.00  0.00     0.114 A 
HETATM    6  S1  UNL     1      22.982  -0.345  53.310  1.00  0.00    -0.073 SA
HETATM    7  C11 UNL     1      22.100   1.100  53.021  1.00  0.00    -0.008 A 
HETATM    8  C12 UNL     1      23.015   2.045  52.509  1.00  0.00    -0.028 A 
HETATM    9  C13 UNL     1      24.314   1.724  52.336  1.00  0.00     0.053 A 
HETATM   10  C14 UNL     1      22.189   3.240  52.286  1.00  0.00     0.041 C 
HETATM   11  C15 UNL     1      21.146   2.794  51.235  1.00  0.00     0.005 C 
HETATM   12  C16 UNL     1      20.044   2.117  52.021  1.00  0.00     0.005 C 
HETATM   13  C17 UNL     1      20.679   1.455  53.215  1.00  0.00     0.047 C 
ENDROOT
BRANCH   1  14
HETATM   14  N1  UNL     1      25.378   3.685  51.457  1.00  0.00    -0.358 N 
HETATM   15  H10 UNL     1      25.337   4.633  51.848  1.00  0.00     0.162 HD
BRANCH  14  16
HETATM   16  C6  UNL     1      25.364   3.923  50.029  1.00  0.00     0.069 A 
HETATM   17  C2  UNL     1      25.258   5.318  49.632  1.00  0.00    -0.052 A 
HETATM   18  C1  UNL     1      24.018   6.053  49.999  1.00  0.00     0.046 C 
HETATM   19  C3  UNL     1      26.332   5.723  48.979  1.00  0.00     0.005 A 
HETATM   20  C4  UNL     1      27.240   4.597  48.898  1.00  0.00    -0.001 A 
HETATM   21  C5  UNL     1      26.720   3.532  49.495  1.00  0.00     0.008 A 
HETATM   22  C7  UNL     1      24.292   3.102  49.338  1.00  0.00     0.048 C 
ENDBRANCH  14  16
ENDBRANCH   1  14
TORSDOF 2
ENDMDL
MODEL 6
REMARK VINA RESULT:      -7.6      2.348      4.479
REMARK  2 active torsions:
REMARK  status: ('A' for Active; 'I' for Inactive)
REMARK    1  A    between atoms: C6_6  and  N1_8 
REMARK    2  A    between atoms: N1_8  and  C8_9 
ROOT
HETATM    1  C8  UNL     1      24.856   0.597  52.328  1.00  0.00     0.139 A 
HETATM    2  N2  UNL     1      26.102   0.241  52.564  1.00  0.00    -0.224 NA
HETATM    3  C9  UNL     1      26.492  -0.528  53.551  1.00  0.00     0.236 A 
HETATM    4  N3  UNL     1      25.619  -1.009  54.403  1.00  0.00    -0.234 NA
HETATM    5  C10 UNL     1      24.227  -0.624  54.158  1.00  0.00     0.114 A 
HETATM    6  S1  UNL     1      22.661  -1.062  55.097  1.00  0.00    -0.073 SA
HETATM    7  C11 UNL     1      21.633  -0.160  54.059  1.00  0.00    -0.008 A 
HETATM    8  C12 UNL     1      22.455   0.425  53.072  1.00  0.00    -0.028 A 
HETATM    9  C13 UNL     1      23.788   0.221  53.075  1.00  0.00     0.053 A 
HETATM   10  C14 UNL     1      21.508   1.169  52.229  1.00  0.00     0.041 C 
HETATM   11  C15 UNL     1      20.571   0.081  51.654  1.00  0.00     0.005 C 
HETATM   12  C16 UNL     1      19.520  -0.151  52.717  1.00  0.00     0.005 C 
HETATM   13  C17 UNL     1      20.173   0.070  54.056  1.00  0.00     0.047 C 
ENDROOT
BRANCH   1  14
HETATM   14  N1  UNL     1      24.660   1.438  51.202  1.00  0.00    -0.358 N 
HETATM   15  H10 UNL     1      24.375   1.377  50.218  1.00  0.00     0.162 HD
BRANCH  14  16
HETATM   16  C6  UNL     1      24.911   2.853  51.380  1.00  0.00     0.069 A 
HETATM   17  C2  UNL     1      23.918   3.740  50.792  1.00  0.00    -0.052 A 
HETATM   18  C1  UNL     1      23.757   3.719  49.313  1.00  0.00     0.046 C 
HETATM   19  C3  UNL     1      23.292   4.451  51.712  1.00  0.00     0.005 A 
HETATM   20  C4  UNL     1      23.843   4.074  52.999  1.00  0.00    -0.001 A 
HETATM   21  C5  UNL     1      24.783   3.151  52.854  1.00  0.00     0.008 A 
HETATM   22  C7  UNL     1      26.298   3.237  50.904  1.00  0.00     0.048 C 
ENDBRANCH  14  16
ENDBRANCH   1  14
TORSDOF 2
ENDMDL
MODEL 7
REMARK VINA RESULT:      -7.6      1.440      2.415
REMARK  2 active torsions:
REMARK  status: ('A' for Active; 'I' for Inactive)
REMARK    1  A    between atoms: C6_6  and  N1_8 
REMARK    2  A    between atoms: N1_8  and  C8_9 
ROOT
HETATM    1  C8  UNL     1      23.224   1.171  51.816  1.00  0.00     0.139 A 
HETATM    2  N2  UNL     1      21.929   1.138  52.059  1.00  0.00    -0.224 NA
HETATM    3  C9  UNL     1      21.370   0.550  53.088  1.00  0.00     0.236 A 
HETATM    4  N3  UNL     1      22.105  -0.072  53.978  1.00  0.00    -0.234 NA
HETATM    5  C10 UNL     1      23.548  -0.048  53.726  1.00  0.00     0.114 A 
HETATM    6  S1  UNL     1      24.966  -0.791  54.707  1.00  0.00    -0.073 SA
HETATM    7  C11 UNL     1      26.177  -0.231  53.627  1.00  0.00    -0.008 A 
HETATM    8  C12 UNL     1      25.515   0.472  52.597  1.00  0.00    -0.028 A 
HETATM    9  C13 UNL     1      24.172   0.596  52.598  1.00  0.00     0.053 A 
HETATM   10  C14 UNL     1      26.611   0.919  51.725  1.00  0.00     0.041 C 
HETATM   11  C15 UNL     1      27.464   1.845  52.624  1.00  0.00     0.005 C 
HETATM   12  C16 UNL     1      28.385   0.924  53.394  1.00  0.00     0.005 C 
HETATM   13  C17 UNL     1      27.648  -0.370  53.620  1.00  0.00     0.047 C 
ENDROOT
BRANCH   1  14
HETATM   14  N1  UNL     1      23.612   1.864  50.641  1.00  0.00    -0.358 N 
HETATM   15  H10 UNL     1      23.920   1.671  49.682  1.00  0.00     0.162 HD
BRANCH  14  16
HETATM   16  C6  UNL     1      23.613   3.312  50.696  1.00  0.00     0.069 A 
HETATM   17  C2  UNL     1      24.439   3.971  49.696  1.00  0.00    -0.052 A 
HETATM   18  C1  UNL     1      25.908   3.738  49.744  1.00  0.00     0.046 C 
HETATM   19  C3  UNL     1      23.714   4.703  48.870  1.00  0.00     0.005 A 
HETATM   20  C4  UNL     1      22.330   4.574  49.278  1.00  0.00    -0.001 A 
HETATM   21  C5  UNL     1      22.224   3.776  50.333  1.00  0.00     0.008 A 
HETATM   22  C7  UNL     1      23.970   3.816  52.081  1.00  0.00     0.048 C 
ENDBRANCH  14  16
ENDBRANCH   1  14
TORSDOF 2
ENDMDL
MODEL 8
REMARK VINA RESULT:      -7.5      2.272      5.123
REMARK  2 active torsions:
REMARK  status: ('A' for Active; 'I' for Inactive)
REMARK    1  A    between atoms: C6_6  and  N1_8 
REMARK    2  A    between atoms: N1_8  and  C8_9 
ROOT
HETATM    1  C8  UNL     1      24.138   0.750  53.287  1.00  0.00     0.139 A 
HETATM    2  N2  UNL     1      23.918  -0.534  53.485  1.00  0.00    -0.224 NA
HETATM    3  C9  UNL     1      22.779  -1.146  53.268  1.00  0.00     0.236 A 
HETATM    4  N3  UNL     1      21.743  -0.480  52.819  1.00  0.00    -0.234 NA
HETATM    5  C10 UNL     1      21.967   0.949  52.592  1.00  0.00     0.114 A 
HETATM    6  S1  UNL     1      20.797   2.279  51.967  1.00  0.00    -0.073 SA
HETATM    7  C11 UNL     1      21.967   3.533  52.062  1.00  0.00    -0.008 A 
HETATM    8  C12 UNL     1      23.159   2.948  52.540  1.00  0.00    -0.028 A 
HETATM    9  C13 UNL     1      23.214   1.631  52.827  1.00  0.00     0.053 A 
HETATM   10  C14 UNL     1      24.101   4.074  52.588  1.00  0.00     0.041 C 
HETATM   11  C15 UNL     1      24.217   4.541  51.118  1.00  0.00     0.005 C 
HETATM   12  C16 UNL     1      23.042   5.468  50.894  1.00  0.00     0.005 C 
HETATM   13  C17 UNL     1      21.907   4.977  51.754  1.00  0.00     0.047 C 
ENDROOT
BRANCH   1  14
HETATM   14  N1  UNL     1      25.448   1.203  53.589  1.00  0.00    -0.358 N 
HETATM   15  H10 UNL     1      25.938   1.772  54.288  1.00  0.00     0.162 HD
BRANCH  14  16
HETATM   16  C6  UNL     1      26.513   0.796  52.697  1.00  0.00     0.069 A 
HETATM   17  C2  UNL     1      27.860   0.960  53.221  1.00  0.00    -0.052 A 
HETATM   18  C1  UNL     1      28.326   2.341  53.520  1.00  0.00     0.046 C 
HETATM   19  C3  UNL     1      28.478  -0.200  53.352  1.00  0.00     0.005 A 
HETATM   20  C4  UNL     1      27.559  -1.231  52.911  1.00  0.00    -0.001 A 
HETATM   21  C5  UNL     1      26.407  -0.699  52.524  1.00  0.00     0.008 A 
HETATM   22  C7  UNL     1      26.394   1.471  51.344  1.00  0.00     0.048 C 
ENDBRANCH  14  16
ENDBRANCH   1  14
TORSDOF 2
ENDMDL
MODEL 9
REMARK VINA RESULT:      -7.3      2.035      4.156
REMARK  2 active torsions:
REMARK  status: ('A' for Active; 'I' for Inactive)
REMARK    1  A    between atoms: C6_6  and  N1_8 
REMARK    2  A    between atoms: N1_8  and  C8_9 
ROOT
HETATM    1  C8  UNL     1      24.351   2.019  51.522  1.00  0.00     0.139 A 
HETATM    2  N2  UNL     1      25.435   2.493  50.942  1.00  0.00    -0.224 NA
HETATM    3  C9  UNL     1      26.663   2.154  51.248  1.00  0.00     0.236 A 
HETATM    4  N3  UNL     1      26.893   1.280  52.198  1.00  0.00    -0.234 NA
HETATM    5  C10 UNL     1      25.701   0.741  52.856  1.00  0.00     0.114 A 
HETATM    6  S1  UNL     1      25.540  -0.511  54.246  1.00  0.00    -0.073 SA
HETATM    7  C11 UNL     1      23.825  -0.451  54.275  1.00  0.00    -0.008 A 
HETATM    8  C12 UNL     1      23.429   0.469  53.281  1.00  0.00    -0.028 A 
HETATM    9  C13 UNL     1      24.346   1.108  52.527  1.00  0.00     0.053 A 
HETATM   10  C14 UNL     1      21.961   0.459  53.366  1.00  0.00     0.041 C 
HETATM   11  C15 UNL     1      21.567  -0.995  53.019  1.00  0.00     0.005 C 
HETATM   12  C16 UNL     1      21.697  -1.769  54.313  1.00  0.00     0.005 C 
HETATM   13  C17 UNL     1      22.817  -1.145  55.104  1.00  0.00     0.047 C 
ENDROOT
BRANCH   1  14
HETATM   14  N1  UNL     1      23.119   2.527  51.032  1.00  0.00    -0.358 N 
HETATM   15  H10 UNL     1      22.371   2.271  50.379  1.00  0.00     0.162 HD
BRANCH  14  16
HETATM   16  C6  UNL     1      22.678   3.806  51.548  1.00  0.00     0.069 A 
HETATM   17  C2  UNL     1      22.565   4.869  50.561  1.00  0.00    -0.052 A 
HETATM   18  C1  UNL     1      23.808   5.314  49.876  1.00  0.00     0.046 C 
HETATM   19  C3  UNL     1      21.319   5.283  50.430  1.00  0.00     0.005 A 
HETATM   20  C4  UNL     1      20.505   4.505  51.343  1.00  0.00    -0.001 A 
HETATM   21  C5  UNL     1      21.251   3.635  52.011  1.00  0.00     0.008 A 
HETATM   22  C7  UNL     1      23.536   4.264  52.712  1.00  0.00     0.048 C 
ENDBRANCH  14  16
ENDBRANCH   1  14
TORSDOF 2
ENDMDL
