MODEL 1
REMARK VINA RESULT:      -8.2      0.000      0.000
REMARK  5 active torsions:
REMARK  status: ('A' for Active; 'I' for Inactive)
REMARK    1  A    between atoms: C3_3  and  C4_4 
REMARK       I    between atoms: C4_4  and  N1_6 
REMARK    2  A    between atoms: N1_6  and  C5_7 
REMARK    3  A    between atoms: C11_15  and  N3_16 
REMARK    4  A    between atoms: N3_16  and  C12_17 
REMARK    5  A    between atoms: C12_17  and  C13_18 
ROOT
HETATM    1  C1  UNL     1      28.607   6.604  47.828  1.00  0.00     0.112 C 
HETATM    2  C2  UNL     1      27.829   5.544  48.477  1.00  0.00    -0.101 C 
HETATM    3  C3  UNL     1      27.179   4.676  49.008  1.00  0.00    -0.006 C 
ENDROOT
BRANCH   3   4
HETATM    4  C4  UNL     1      26.393   3.641  49.666  1.00  0.00     0.300 C 
HETATM    5  O1  UNL     1      25.335   3.171  49.174  1.00  0.00    -0.258 OA
HETATM    6  N1  UNL     1      26.924   3.203  50.920  1.00  0.00    -0.316 N 
HETATM    7  H4  UNL     1      27.801   3.587  51.336  1.00  0.00     0.170 HD
BRANCH   6   8
HETATM    8  C5  UNL     1      26.549   2.255  51.912  1.00  0.00     0.036 A 
HETATM    9  C6  UNL     1      27.522   1.886  52.819  1.00  0.00     0.032 A 
HETATM   10  C7  UNL     1      27.172   0.975  53.778  1.00  0.00     0.035 A 
HETATM   11  C8  UNL     1      25.902   0.448  53.837  1.00  0.00     0.069 A 
HETATM   12  N2  UNL     1      25.697  -0.434  54.830  1.00  0.00    -0.259 NA
HETATM   13  C18 UNL     1      24.899   0.785  52.957  1.00  0.00     0.023 A 
HETATM   14  C9  UNL     1      24.474  -0.994  54.950  1.00  0.00     0.138 A 
HETATM   15  C10 UNL     1      23.495  -0.632  54.050  1.00  0.00     0.055 A 
HETATM   16 BR1  UNL     1      21.857  -1.543  54.335  1.00  0.00    -0.047 Br
HETATM   17  C11 UNL     1      23.641   0.265  53.013  1.00  0.00     0.060 A 
HETATM   18  C19 UNL     1      25.299   1.703  52.010  1.00  0.00     0.045 A 
BRANCH  17  19
HETATM   19  N3  UNL     1      22.640   0.651  52.120  1.00  0.00    -0.384 N 
HETATM   20  H8  UNL     1      22.655   0.241  51.189  1.00  0.00     0.160 HD
BRANCH  19  21
HETATM   21  C12 UNL     1      21.540   1.568  52.290  1.00  0.00     0.155 C 
BRANCH  21  22
HETATM   22  C13 UNL     1      21.804   2.880  51.630  1.00  0.00    -0.052 C 
HETATM   23  C14 UNL     1      21.979   3.167  50.320  1.00  0.00     0.054 C 
HETATM   24  S1  UNL     1      22.261   4.955  50.207  1.00  0.00    -0.114 SA
HETATM   25  C15 UNL     1      23.589   5.267  51.400  1.00  0.00     0.046 C 
HETATM   26  C16 UNL     1      23.196   4.715  52.562  1.00  0.00    -0.015 C 
HETATM   27  C17 UNL     1      21.875   4.043  52.567  1.00  0.00     0.064 C 
ENDBRANCH  21  22
ENDBRANCH  19  21
ENDBRANCH  17  19
ENDBRANCH   6   8
ENDBRANCH   3   4
TORSDOF 5
ENDMDL
MODEL 2
REMARK VINA RESULT:      -8.1      1.125      1.763
REMARK  5 active torsions:
REMARK  status: ('A' for Active; 'I' for Inactive)
REMARK    1  A    between atoms: C3_3  and  C4_4 
REMARK       I    between atoms: C4_4  and  N1_6 
REMARK    2  A    between atoms: N1_6  and  C5_7 
REMARK    3  A    between atoms: C11_15  and  N3_16 
REMARK    4  A    between atoms: N3_16  and  C12_17 
REMARK    5  A    between atoms: C12_17  and  C13_18 
ROOT
HETATM    1  C1  UNL     1      28.571   6.535  47.787  1.00  0.00     0.112 C 
HETATM    2  C2  UNL     1      27.790   5.512  48.490  1.00  0.00    -0.101 C 
HETATM    3  C3  UNL     1      27.156   4.664  49.070  1.00  0.00    -0.006 C 
ENDROOT
BRANCH   3   4
HETATM    4  C4  UNL     1      26.388   3.631  49.751  1.00  0.00     0.300 C 
HETATM    5  O1  UNL     1      25.306   3.175  49.301  1.00  0.00    -0.258 OA
HETATM    6  N1  UNL     1      26.967   3.177  50.978  1.00  0.00    -0.316 N 
HETATM    7  H4  UNL     1      27.865   3.549  51.361  1.00  0.00     0.170 HD
BRANCH   6   8
HETATM    8  C5  UNL     1      26.625   2.224  51.978  1.00  0.00     0.036 A 
HETATM    9  C6  UNL     1      27.635   1.829  52.833  1.00  0.00     0.032 A 
HETATM   10  C7  UNL     1      27.317   0.914  53.798  1.00  0.00     0.035 A 
HETATM   11  C8  UNL     1      26.042   0.407  53.914  1.00  0.00     0.069 A 
HETATM   12  N2  UNL     1      25.870  -0.483  54.906  1.00  0.00    -0.259 NA
HETATM   13  C18 UNL     1      25.004   0.769  53.087  1.00  0.00     0.023 A 
HETATM   14  C9  UNL     1      24.646  -1.024  55.080  1.00  0.00     0.138 A 
HETATM   15  C10 UNL     1      23.631  -0.636  54.232  1.00  0.00     0.055 A 
HETATM   16 BR1  UNL     1      21.993  -1.524  54.588  1.00  0.00    -0.047 Br
HETATM   17  C11 UNL     1      23.741   0.270  53.199  1.00  0.00     0.060 A 
HETATM   18  C19 UNL     1      25.373   1.692  52.131  1.00  0.00     0.045 A 
BRANCH  17  19
HETATM   19  N3  UNL     1      22.705   0.681  52.360  1.00  0.00    -0.384 N 
HETATM   20  H8  UNL     1      22.486   0.095  51.558  1.00  0.00     0.160 HD
BRANCH  19  21
HETATM   21  C12 UNL     1      21.850   1.841  52.431  1.00  0.00     0.155 C 
BRANCH  21  22
HETATM   22  C13 UNL     1      21.619   2.444  51.086  1.00  0.00    -0.052 C 
HETATM   23  C14 UNL     1      20.935   3.560  50.746  1.00  0.00     0.054 C 
HETATM   24  S1  UNL     1      21.047   3.716  48.943  1.00  0.00    -0.114 SA
HETATM   25  C15 UNL     1      20.523   2.095  48.327  1.00  0.00     0.046 C 
HETATM   26  C16 UNL     1      21.267   1.182  48.976  1.00  0.00    -0.015 C 
HETATM   27  C17 UNL     1      22.252   1.698  49.955  1.00  0.00     0.064 C 
ENDBRANCH  21  22
ENDBRANCH  19  21
ENDBRANCH  17  19
ENDBRANCH   6   8
ENDBRANCH   3   4
TORSDOF 5
ENDMDL
MODEL 3
REMARK VINA RESULT:      -8.0      2.295      4.621
REMARK  5 active torsions:
REMARK  status: ('A' for Active; 'I' for Inactive)
REMARK    1  A    between atoms: C3_3  and  C4_4 
REMARK       I    between atoms: C4_4  and  N1_6 
REMARK    2  A    between atoms: N1_6  and  C5_7 
REMARK    3  A    between atoms: C11_15  and  N3_16 
REMARK    4  A    between atoms: N3_16  and  C12_17 
REMARK    5  A    between atoms: C12_17  and  C13_18 
ROOT
HETATM    1  C1  UNL     1      28.356   6.940  47.671  1.00  0.00     0.112 C 
HETATM    2  C2  UNL     1      27.673   5.821  48.331  1.00  0.00    -0.101 C 
HETATM    3  C3  UNL     1      27.110   4.907  48.882  1.00  0.00    -0.006 C 
ENDROOT
BRANCH   3   4
HETATM    4  C4  UNL     1      26.448   3.799  49.557  1.00  0.00     0.300 C 
HETATM    5  O1  UNL     1      27.070   2.944  50.237  1.00  0.00    -0.258 OA
HETATM    6  N1  UNL     1      25.028   3.764  49.381  1.00  0.00    -0.316 N 
HETATM    7  H4  UNL     1      24.503   4.469  48.818  1.00  0.00     0.170 HD
BRANCH   6   8
HETATM    8  C5  UNL     1      23.966   2.922  49.814  1.00  0.00     0.036 A 
HETATM    9  C6  UNL     1      22.887   2.794  48.963  1.00  0.00     0.032 A 
HETATM   10  C7  UNL     1      21.861   1.986  49.369  1.00  0.00     0.035 A 
HETATM   11  C8  UNL     1      21.901   1.327  50.577  1.00  0.00     0.069 A 
HETATM   12  N2  UNL     1      20.826   0.568  50.849  1.00  0.00    -0.259 NA
HETATM   13  C18 UNL     1      22.953   1.424  51.459  1.00  0.00     0.023 A 
HETATM   14  C9  UNL     1      20.795  -0.108  52.017  1.00  0.00     0.138 A 
HETATM   15  C10 UNL     1      21.867   0.013  52.874  1.00  0.00     0.055 A 
HETATM   16 BR1  UNL     1      21.640  -0.964  54.483  1.00  0.00    -0.047 Br
HETATM   17  C11 UNL     1      22.997   0.773  52.655  1.00  0.00     0.060 A 
HETATM   18  C19 UNL     1      23.962   2.247  51.006  1.00  0.00     0.045 A 
BRANCH  17  19
HETATM   19  N3  UNL     1      24.094   0.871  53.512  1.00  0.00    -0.384 N 
HETATM   20  H8  UNL     1      24.152   1.691  54.111  1.00  0.00     0.160 HD
BRANCH  19  21
HETATM   21  C12 UNL     1      25.209  -0.023  53.708  1.00  0.00     0.155 C 
BRANCH  21  22
HETATM   22  C13 UNL     1      26.501   0.716  53.812  1.00  0.00    -0.052 C 
HETATM   23  C14 UNL     1      26.938   1.792  53.119  1.00  0.00     0.054 C 
HETATM   24  S1  UNL     1      28.596   2.182  53.744  1.00  0.00    -0.114 SA
HETATM   25  C15 UNL     1      29.484   0.605  53.646  1.00  0.00     0.046 C 
HETATM   26  C16 UNL     1      28.718  -0.304  54.277  1.00  0.00    -0.015 C 
HETATM   27  C17 UNL     1      27.440   0.182  54.847  1.00  0.00     0.064 C 
ENDBRANCH  21  22
ENDBRANCH  19  21
ENDBRANCH  17  19
ENDBRANCH   6   8
ENDBRANCH   3   4
TORSDOF 5
ENDMDL
MODEL 4
REMARK VINA RESULT:      -7.8      2.698      4.882
REMARK  5 active torsions:
REMARK  status: ('A' for Active; 'I' for Inactive)
REMARK    1  A    between atoms: C3_3  and  C4_4 
REMARK       I    between atoms: C4_4  and  N1_6 
REMARK    2  A    between atoms: N1_6  and  C5_7 
REMARK    3  A    between atoms: C11_15  and  N3_16 
REMARK    4  A    between atoms: N3_16  and  C12_17 
REMARK    5  A    between atoms: C12_17  and  C13_18 
ROOT
HETATM    1  C1  UNL     1      30.165  -0.887  53.660  1.00  0.00     0.112 C 
HETATM    2  C2  UNL     1      28.787  -0.413  53.827  1.00  0.00    -0.101 C 
HETATM    3  C3  UNL     1      27.651  -0.023  53.954  1.00  0.00    -0.006 C 
ENDROOT
BRANCH   3   4
HETATM    4  C4  UNL     1      26.289   0.467  54.106  1.00  0.00     0.300 C 
HETATM    5  O1  UNL     1      26.020   1.614  54.547  1.00  0.00    -0.258 OA
HETATM    6  N1  UNL     1      25.278  -0.466  53.712  1.00  0.00    -0.316 N 
HETATM    7  H4  UNL     1      25.490  -1.420  53.345  1.00  0.00     0.170 HD
BRANCH   6   8
HETATM    8  C5  UNL     1      23.856  -0.473  53.668  1.00  0.00     0.036 A 
HETATM    9  C6  UNL     1      23.201  -0.923  54.797  1.00  0.00     0.032 A 
HETATM   10  C7  UNL     1      21.834  -0.933  54.766  1.00  0.00     0.035 A 
HETATM   11  C8  UNL     1      21.138  -0.512  53.655  1.00  0.00     0.069 A 
HETATM   12  N2  UNL     1      19.800  -0.576  53.763  1.00  0.00    -0.259 NA
HETATM   13  C18 UNL     1      21.745  -0.056  52.508  1.00  0.00     0.023 A 
HETATM   14  C9  UNL     1      19.050  -0.179  52.712  1.00  0.00     0.138 A 
HETATM   15  C10 UNL     1      19.695   0.272  51.580  1.00  0.00     0.055 A 
HETATM   16 BR1  UNL     1      18.497   0.745  50.188  1.00  0.00    -0.047 Br
HETATM   17  C11 UNL     1      21.060   0.362  51.407  1.00  0.00     0.060 A 
HETATM   18  C19 UNL     1      23.121  -0.065  52.587  1.00  0.00     0.045 A 
BRANCH  17  19
HETATM   19  N3  UNL     1      21.708   0.846  50.270  1.00  0.00    -0.384 N 
HETATM   20  H8  UNL     1      22.332   0.211  49.777  1.00  0.00     0.160 HD
BRANCH  19  21
HETATM   21  C12 UNL     1      21.649   2.143  49.642  1.00  0.00     0.155 C 
BRANCH  21  22
HETATM   22  C13 UNL     1      22.538   3.130  50.320  1.00  0.00    -0.052 C 
HETATM   23  C14 UNL     1      22.230   4.310  50.906  1.00  0.00     0.054 C 
HETATM   24  S1  UNL     1      23.783   5.005  51.535  1.00  0.00    -0.114 SA
HETATM   25  C15 UNL     1      24.898   4.953  50.107  1.00  0.00     0.046 C 
HETATM   26  C16 UNL     1      24.860   3.692  49.640  1.00  0.00    -0.015 C 
HETATM   27  C17 UNL     1      23.982   2.741  50.359  1.00  0.00     0.064 C 
ENDBRANCH  21  22
ENDBRANCH  19  21
ENDBRANCH  17  19
ENDBRANCH   6   8
ENDBRANCH   3   4
TORSDOF 5
ENDMDL
MODEL 5
REMARK VINA RESULT:      -7.7      1.759      2.058
REMARK  5 active torsions:
REMARK  status: ('A' for Active; 'I' for Inactive)
REMARK    1  A    between atoms: C3_3  and  C4_4 
REMARK       I    between atoms: C4_4  and  N1_6 
REMARK    2  A    between atoms: N1_6  and  C5_7 
REMARK    3  A    between atoms: C11_15  and  N3_16 
REMARK    4  A    between atoms: N3_16  and  C12_17 
REMARK    5  A    between atoms: C12_17  and  C13_18 
ROOT
HETATM    1  C1  UNL     1      28.372   6.682  47.890  1.00  0.00     0.112 C 
HETATM    2  C2  UNL     1      27.606   5.629  48.566  1.00  0.00    -0.101 C 
HETATM    3  C3  UNL     1      26.977   4.756  49.113  1.00  0.00    -0.006 C 
ENDROOT
BRANCH   3   4
HETATM    4  C4  UNL     1      26.202   3.708  49.763  1.00  0.00     0.300 C 
HETATM    5  O1  UNL     1      25.093   3.308  49.326  1.00  0.00    -0.258 OA
HETATM    6  N1  UNL     1      26.807   3.172  50.944  1.00  0.00    -0.316 N 
HETATM    7  H4  UNL     1      27.727   3.498  51.315  1.00  0.00     0.170 HD
BRANCH   6   8
HETATM    8  C5  UNL     1      26.470   2.175  51.902  1.00  0.00     0.036 A 
HETATM    9  C6  UNL     1      27.509   1.644  52.639  1.00  0.00     0.032 A 
HETATM   10  C7  UNL     1      27.196   0.685  53.563  1.00  0.00     0.035 A 
HETATM   11  C8  UNL     1      25.898   0.267  53.751  1.00  0.00     0.069 A 
HETATM   12  N2  UNL     1      25.734  -0.679  54.691  1.00  0.00    -0.259 NA
HETATM   13  C18 UNL     1      24.830   0.766  53.041  1.00  0.00     0.023 A 
HETATM   14  C9  UNL     1      24.488  -1.139  54.931  1.00  0.00     0.138 A 
HETATM   15  C10 UNL     1      23.443  -0.615  54.200  1.00  0.00     0.055 A 
HETATM   16 BR1  UNL     1      21.773  -1.403  54.631  1.00  0.00    -0.047 Br
HETATM   17  C11 UNL     1      23.544   0.355  53.225  1.00  0.00     0.060 A 
HETATM   18  C19 UNL     1      25.195   1.727  52.124  1.00  0.00     0.045 A 
BRANCH  17  19
HETATM   19  N3  UNL     1      22.481   0.904  52.507  1.00  0.00    -0.384 N 
HETATM   20  H8  UNL     1      22.225   1.868  52.706  1.00  0.00     0.160 HD
BRANCH  19  21
HETATM   21  C12 UNL     1      21.642   0.321  51.488  1.00  0.00     0.155 C 
BRANCH  21  22
HETATM   22  C13 UNL     1      20.272   0.910  51.493  1.00  0.00    -0.052 C 
HETATM   23  C14 UNL     1      19.201   0.612  50.723  1.00  0.00     0.054 C 
HETATM   24  S1  UNL     1      17.853   1.705  51.250  1.00  0.00    -0.114 SA
HETATM   25  C15 UNL     1      18.585   3.362  51.200  1.00  0.00     0.046 C 
HETATM   26  C16 UNL     1      19.724   3.297  51.913  1.00  0.00    -0.015 C 
HETATM   27  C17 UNL     1      20.061   1.984  52.512  1.00  0.00     0.064 C 
ENDBRANCH  21  22
ENDBRANCH  19  21
ENDBRANCH  17  19
ENDBRANCH   6   8
ENDBRANCH   3   4
TORSDOF 5
ENDMDL
MODEL 6
REMARK VINA RESULT:      -7.6      2.600      5.391
REMARK  5 active torsions:
REMARK  status: ('A' for Active; 'I' for Inactive)
REMARK    1  A    between atoms: C3_3  and  C4_4 
REMARK       I    between atoms: C4_4  and  N1_6 
REMARK    2  A    between atoms: N1_6  and  C5_7 
REMARK    3  A    between atoms: C11_15  and  N3_16 
REMARK    4  A    between atoms: N3_16  and  C12_17 
REMARK    5  A    between atoms: C12_17  and  C13_18 
ROOT
HETATM    1  C1  UNL     1      16.865   1.788  50.130  1.00  0.00     0.112 C 
HETATM    2  C2  UNL     1      18.284   1.458  50.302  1.00  0.00    -0.101 C 
HETATM    3  C3  UNL     1      19.450   1.175  50.442  1.00  0.00    -0.006 C 
ENDROOT
BRANCH   3   4
HETATM    4  C4  UNL     1      20.852   0.830  50.629  1.00  0.00     0.300 C 
HETATM    5  O1  UNL     1      21.635   0.607  49.670  1.00  0.00    -0.258 OA
HETATM    6  N1  UNL     1      21.266   0.762  51.997  1.00  0.00    -0.316 N 
HETATM    7  H4  UNL     1      20.624   0.944  52.800  1.00  0.00     0.170 HD
BRANCH   6   8
HETATM    8  C5  UNL     1      22.479   0.477  52.684  1.00  0.00     0.036 A 
HETATM    9  C6  UNL     1      22.470  -0.608  53.537  1.00  0.00     0.032 A 
HETATM   10  C7  UNL     1      23.631  -0.893  54.202  1.00  0.00     0.035 A 
HETATM   11  C8  UNL     1      24.762  -0.128  54.029  1.00  0.00     0.069 A 
HETATM   12  N2  UNL     1      25.831  -0.520  54.743  1.00  0.00    -0.259 NA
HETATM   13  C18 UNL     1      24.820   0.962  53.191  1.00  0.00     0.023 A 
HETATM   14  C9  UNL     1      26.977   0.182  54.625  1.00  0.00     0.138 A 
HETATM   15  C10 UNL     1      26.997   1.268  53.776  1.00  0.00     0.055 A 
HETATM   16 BR1  UNL     1      28.667   2.165  53.763  1.00  0.00    -0.047 Br
HETATM   17  C11 UNL     1      25.939   1.720  53.016  1.00  0.00     0.060 A 
HETATM   18  C19 UNL     1      23.628   1.208  52.544  1.00  0.00     0.045 A 
BRANCH  17  19
HETATM   19  N3  UNL     1      25.970   2.802  52.136  1.00  0.00    -0.384 N 
HETATM   20  H8  UNL     1      25.706   3.714  52.500  1.00  0.00     0.160 HD
BRANCH  19  21
HETATM   21  C12 UNL     1      26.325   2.860  50.739  1.00  0.00     0.155 C 
BRANCH  21  22
HETATM   22  C13 UNL     1      25.466   3.820  49.986  1.00  0.00    -0.052 C 
HETATM   23  C14 UNL     1      25.670   5.127  49.708  1.00  0.00     0.054 C 
HETATM   24  S1  UNL     1      24.232   5.694  48.760  1.00  0.00    -0.114 SA
HETATM   25  C15 UNL     1      22.813   5.181  49.764  1.00  0.00     0.046 C 
HETATM   26  C16 UNL     1      22.982   3.871  50.022  1.00  0.00    -0.015 C 
HETATM   27  C17 UNL     1      24.195   3.233  49.459  1.00  0.00     0.064 C 
ENDBRANCH  21  22
ENDBRANCH  19  21
ENDBRANCH  17  19
ENDBRANCH   6   8
ENDBRANCH   3   4
TORSDOF 5
ENDMDL
MODEL 7
REMARK VINA RESULT:      -7.1      2.682      5.326
REMARK  5 active torsions:
REMARK  status: ('A' for Active; 'I' for Inactive)
REMARK    1  A    between atoms: C3_3  and  C4_4 
REMARK       I    between atoms: C4_4  and  N1_6 
REMARK    2  A    between atoms: N1_6  and  C5_7 
REMARK    3  A    between atoms: C11_15  and  N3_16 
REMARK    4  A    between atoms: N3_16  and  C12_17 
REMARK    5  A    between atoms: C12_17  and  C13_18 
ROOT
HETATM    1  C1  UNL     1      17.300   3.109  48.762  1.00  0.00     0.112 C 
HETATM    2  C2  UNL     1      18.570   2.462  49.106  1.00  0.00    -0.101 C 
HETATM    3  C3  UNL     1      19.620   1.939  49.395  1.00  0.00    -0.006 C 
ENDROOT
BRANCH   3   4
HETATM    4  C4  UNL     1      20.894   1.316  49.725  1.00  0.00     0.300 C 
HETATM    5  O1  UNL     1      21.587   0.691  48.882  1.00  0.00    -0.258 OA
HETATM    6  N1  UNL     1      21.292   1.473  51.090  1.00  0.00    -0.316 N 
HETATM    7  H4  UNL     1      20.724   1.990  51.797  1.00  0.00     0.170 HD
BRANCH   6   8
HETATM    8  C5  UNL     1      22.403   1.070  51.883  1.00  0.00     0.036 A 
HETATM    9  C6  UNL     1      22.212  -0.014  52.715  1.00  0.00     0.032 A 
HETATM   10  C7  UNL     1      23.273  -0.411  53.481  1.00  0.00     0.035 A 
HETATM   11  C8  UNL     1      24.483   0.244  53.425  1.00  0.00     0.069 A 
HETATM   12  N2  UNL     1      25.438  -0.252  54.230  1.00  0.00    -0.259 NA
HETATM   13  C18 UNL     1      24.722   1.328  52.612  1.00  0.00     0.023 A 
HETATM   14  C9  UNL     1      26.652   0.339  54.229  1.00  0.00     0.138 A 
HETATM   15  C10 UNL     1      26.853   1.423  53.401  1.00  0.00     0.055 A 
HETATM   16 BR1  UNL     1      28.594   2.157  53.557  1.00  0.00    -0.047 Br
HETATM   17  C11 UNL     1      25.918   1.978  52.553  1.00  0.00     0.060 A 
HETATM   18  C19 UNL     1      23.624   1.690  51.861  1.00  0.00     0.045 A 
BRANCH  17  19
HETATM   19  N3  UNL     1      26.133   3.057  51.695  1.00  0.00    -0.384 N 
HETATM   20  H8  UNL     1      26.084   3.992  52.092  1.00  0.00     0.160 HD
BRANCH  19  21
HETATM   21  C12 UNL     1      26.426   3.084  50.283  1.00  0.00     0.155 C 
BRANCH  21  22
HETATM   22  C13 UNL     1      26.090   4.402  49.671  1.00  0.00    -0.052 C 
HETATM   23  C14 UNL     1      26.861   5.233  48.933  1.00  0.00     0.054 C 
HETATM   24  S1  UNL     1      25.833   6.665  48.508  1.00  0.00    -0.114 SA
HETATM   25  C15 UNL     1      25.158   7.211  50.099  1.00  0.00     0.046 C 
HETATM   26  C16 UNL     1      24.606   6.125  50.671  1.00  0.00    -0.015 C 
HETATM   27  C17 UNL     1      24.685   4.857  49.909  1.00  0.00     0.064 C 
ENDBRANCH  21  22
ENDBRANCH  19  21
ENDBRANCH  17  19
ENDBRANCH   6   8
ENDBRANCH   3   4
TORSDOF 5
ENDMDL
MODEL 8
REMARK VINA RESULT:      -6.9      3.488      6.539
REMARK  5 active torsions:
REMARK  status: ('A' for Active; 'I' for Inactive)
REMARK    1  A    between atoms: C3_3  and  C4_4 
REMARK       I    between atoms: C4_4  and  N1_6 
REMARK    2  A    between atoms: N1_6  and  C5_7 
REMARK    3  A    between atoms: C11_15  and  N3_16 
REMARK    4  A    between atoms: N3_16  and  C12_17 
REMARK    5  A    between atoms: C12_17  and  C13_18 
ROOT
HETATM    1  C1  UNL     1      17.441  -2.774  53.454  1.00  0.00     0.112 C 
HETATM    2  C2  UNL     1      18.743  -2.153  53.719  1.00  0.00    -0.101 C 
HETATM    3  C3  UNL     1      19.815  -1.637  53.926  1.00  0.00    -0.006 C 
ENDROOT
BRANCH   3   4
HETATM    4  C4  UNL     1      21.117  -1.031  54.167  1.00  0.00     0.300 C 
HETATM    5  O1  UNL     1      21.626  -0.941  55.314  1.00  0.00    -0.258 OA
HETATM    6  N1  UNL     1      21.769  -0.544  52.991  1.00  0.00    -0.316 N 
HETATM    7  H4  UNL     1      21.354  -0.613  52.035  1.00  0.00     0.170 HD
BRANCH   6   8
HETATM    8  C5  UNL     1      23.002   0.104  52.701  1.00  0.00     0.036 A 
HETATM    9  C6  UNL     1      24.116  -0.345  53.380  1.00  0.00     0.032 A 
HETATM   10  C7  UNL     1      25.307   0.270  53.109  1.00  0.00     0.035 A 
HETATM   11  C8  UNL     1      25.392   1.296  52.195  1.00  0.00     0.069 A 
HETATM   12  N2  UNL     1      26.622   1.810  52.027  1.00  0.00    -0.259 NA
HETATM   13  C18 UNL     1      24.310   1.779  51.494  1.00  0.00     0.023 A 
HETATM   14  C9  UNL     1      26.783   2.820  51.146  1.00  0.00     0.138 A 
HETATM   15  C10 UNL     1      25.677   3.276  50.462  1.00  0.00     0.055 A 
HETATM   16 BR1  UNL     1      26.071   4.724  49.303  1.00  0.00    -0.047 Br
HETATM   17  C11 UNL     1      24.391   2.794  50.589  1.00  0.00     0.060 A 
HETATM   18  C19 UNL     1      23.135   1.128  51.801  1.00  0.00     0.045 A 
BRANCH  17  19
HETATM   19  N3  UNL     1      23.279   3.239  49.874  1.00  0.00    -0.384 N 
HETATM   20  H8  UNL     1      23.069   2.778  48.992  1.00  0.00     0.160 HD
BRANCH  19  21
HETATM   21  C12 UNL     1      22.331   4.284  50.176  1.00  0.00     0.155 C 
BRANCH  21  22
HETATM   22  C13 UNL     1      21.008   3.731  50.590  1.00  0.00    -0.052 C 
HETATM   23  C14 UNL     1      20.435   3.689  51.814  1.00  0.00     0.054 C 
HETATM   24  S1  UNL     1      18.824   2.880  51.612  1.00  0.00    -0.114 SA
HETATM   25  C15 UNL     1      19.209   1.347  50.726  1.00  0.00     0.046 C 
HETATM   26  C16 UNL     1      19.930   1.701  49.647  1.00  0.00    -0.015 C 
HETATM   27  C17 UNL     1      20.203   3.146  49.473  1.00  0.00     0.064 C 
ENDBRANCH  21  22
ENDBRANCH  19  21
ENDBRANCH  17  19
ENDBRANCH   6   8
ENDBRANCH   3   4
TORSDOF 5
ENDMDL
MODEL 9
REMARK VINA RESULT:      -6.8      3.052      5.730
REMARK  5 active torsions:
REMARK  status: ('A' for Active; 'I' for Inactive)
REMARK    1  A    between atoms: C3_3  and  C4_4 
REMARK       I    between atoms: C4_4  and  N1_6 
REMARK    2  A    between atoms: N1_6  and  C5_7 
REMARK    3  A    between atoms: C11_15  and  N3_16 
REMARK    4  A    between atoms: N3_16  and  C12_17 
REMARK    5  A    between atoms: C12_17  and  C13_18 
ROOT
HETATM    1  C1  UNL     1      29.691  10.588  48.588  1.00  0.00     0.112 C 
HETATM    2  C2  UNL     1      28.983   9.303  48.565  1.00  0.00    -0.101 C 
HETATM    3  C3  UNL     1      28.409   8.241  48.552  1.00  0.00    -0.006 C 
ENDROOT
BRANCH   3   4
HETATM    4  C4  UNL     1      27.728   6.954  48.520  1.00  0.00     0.300 C 
HETATM    5  O1  UNL     1      28.286   5.895  48.133  1.00  0.00    -0.258 OA
HETATM    6  N1  UNL     1      26.369   6.994  48.966  1.00  0.00    -0.316 N 
HETATM    7  H4  UNL     1      25.897   7.867  49.288  1.00  0.00     0.170 HD
BRANCH   6   8
HETATM    8  C5  UNL     1      25.316   6.048  49.120  1.00  0.00     0.036 A 
HETATM    9  C6  UNL     1      24.206   6.219  48.318  1.00  0.00     0.032 A 
HETATM   10  C7  UNL     1      23.188   5.315  48.457  1.00  0.00     0.035 A 
HETATM   11  C8  UNL     1      23.268   4.278  49.359  1.00  0.00     0.069 A 
HETATM   12  N2  UNL     1      22.197   3.466  49.391  1.00  0.00    -0.259 NA
HETATM   13  C18 UNL     1      24.353   4.068  50.179  1.00  0.00     0.023 A 
HETATM   14  C9  UNL     1      22.203   2.427  50.252  1.00  0.00     0.138 A 
HETATM   15  C10 UNL     1      23.308   2.248  51.057  1.00  0.00     0.055 A 
HETATM   16 BR1  UNL     1      23.132   0.772  52.234  1.00  0.00    -0.047 Br
HETATM   17  C11 UNL     1      24.435   3.042  51.072  1.00  0.00     0.060 A 
HETATM   18  C19 UNL     1      25.350   5.002  50.003  1.00  0.00     0.045 A 
BRANCH  17  19
HETATM   19  N3  UNL     1      25.564   2.842  51.868  1.00  0.00    -0.384 N 
HETATM   20  H8  UNL     1      25.513   3.135  52.841  1.00  0.00     0.160 HD
BRANCH  19  21
HETATM   21  C12 UNL     1      26.847   2.268  51.542  1.00  0.00     0.155 C 
BRANCH  21  22
HETATM   22  C13 UNL     1      27.444   1.548  52.705  1.00  0.00    -0.052 C 
HETATM   23  C14 UNL     1      28.447   1.924  53.530  1.00  0.00     0.054 C 
HETATM   24  S1  UNL     1      28.673   0.582  54.728  1.00  0.00    -0.114 SA
HETATM   25  C15 UNL     1      28.838  -0.902  53.701  1.00  0.00     0.046 C 
HETATM   26  C16 UNL     1      27.782  -0.908  52.867  1.00  0.00    -0.015 C 
HETATM   27  C17 UNL     1      26.827   0.217  52.995  1.00  0.00     0.064 C 
ENDBRANCH  21  22
ENDBRANCH  19  21
ENDBRANCH  17  19
ENDBRANCH   6   8
ENDBRANCH   3   4
TORSDOF 5
ENDMDL
