MODEL 1
REMARK VINA RESULT:      -7.8      0.000      0.000
REMARK  4 active torsions:
REMARK  status: ('A' for Active; 'I' for Inactive)
REMARK    1  A    between atoms: C3_4  and  C4_5 
REMARK    2  A    between atoms: N1_6  and  N2_7 
REMARK    3  A    between atoms: N2_7  and  C5_8 
REMARK    4  A    between atoms: C6_10  and  C7_11 
ROOT
HETATM    1  C5  UNL     1      26.283   1.465  52.984  1.00  0.00     0.187 A 
HETATM    2  N3  UNL     1      25.186   1.090  53.035  1.00  0.00    -0.222 NA
HETATM    3  C6  UNL     1      24.688   0.143  53.811  1.00  0.00     0.076 A 
HETATM    4  C13 UNL     1      25.564  -0.496  54.680  1.00  0.00     0.085 A 
HETATM    5  S1  UNL     1      27.133   0.373  54.285  1.00  0.00    -0.060 SA
ENDROOT
BRANCH   1   6
HETATM    6  N2  UNL     1      27.126   2.392  52.326  1.00  0.00    -0.256 N 
HETATM    7  H4  UNL     1      27.891   2.719  52.949  1.00  0.00     0.191 HD
BRANCH   6   8
HETATM    8  N1  UNL     1      27.008   2.846  51.034  1.00  0.00    -0.188 NA
HETATM    9  C4  UNL     1      26.042   3.603  50.628  1.00  0.00     0.124 C 
BRANCH   9  10
HETATM   10  C3  UNL     1      26.045   4.019  49.198  1.00  0.00     0.074 A 
HETATM   11  C2  UNL     1      27.414   4.417  48.838  1.00  0.00     0.006 A 
HETATM   12  C1  UNL     1      27.479   5.736  48.584  1.00  0.00     0.007 A 
HETATM   13 BR1  UNL     1      28.899   6.933  48.070  1.00  0.00    -0.051 Br
HETATM   14  C15 UNL     1      26.146   6.301  48.760  1.00  0.00     0.015 A 
HETATM   15  C14 UNL     1      25.325   5.324  49.110  1.00  0.00    -0.011 A 
ENDBRANCH   9  10
ENDBRANCH   6   8
ENDBRANCH   1   6
BRANCH   3  16
HETATM   16  C7  UNL     1      23.257  -0.228  53.762  1.00  0.00    -0.007 A 
HETATM   17  C8  UNL     1      22.634  -1.109  54.595  1.00  0.00     0.014 A 
HETATM   18  C9  UNL     1      21.300  -1.432  54.522  1.00  0.00     0.001 A 
HETATM   19  C10 UNL     1      20.515  -0.851  53.566  1.00  0.00     0.000 A 
HETATM   20  C11 UNL     1      21.067   0.042  52.694  1.00  0.00     0.001 A 
HETATM   21  C12 UNL     1      22.403   0.330  52.809  1.00  0.00     0.014 A 
ENDBRANCH   3  16
TORSDOF 4
ENDMDL
MODEL 2
REMARK VINA RESULT:      -7.7      3.694      7.779
REMARK  4 active torsions:
REMARK  status: ('A' for Active; 'I' for Inactive)
REMARK    1  A    between atoms: C3_4  and  C4_5 
REMARK    2  A    between atoms: N1_6  and  N2_7 
REMARK    3  A    between atoms: N2_7  and  C5_8 
REMARK    4  A    between atoms: C6_10  and  C7_11 
ROOT
HETATM    1  C5  UNL     1      24.137   3.668  51.371  1.00  0.00     0.187 A 
HETATM    2  N3  UNL     1      24.998   4.197  50.803  1.00  0.00    -0.222 NA
HETATM    3  C6  UNL     1      24.976   4.700  49.580  1.00  0.00     0.076 A 
HETATM    4  C13 UNL     1      23.786   4.594  48.869  1.00  0.00     0.085 A 
HETATM    5  S1  UNL     1      22.730   3.724  50.095  1.00  0.00    -0.060 SA
ENDROOT
BRANCH   1   6
HETATM    6  N2  UNL     1      23.815   3.045  52.600  1.00  0.00    -0.256 N 
HETATM    7  H4  UNL     1      23.159   3.625  53.161  1.00  0.00     0.191 HD
BRANCH   6   8
HETATM    8  N1  UNL     1      24.273   1.832  53.059  1.00  0.00    -0.188 NA
HETATM    9  C4  UNL     1      25.427   1.672  53.620  1.00  0.00     0.124 C 
BRANCH   9  10
HETATM   10  C3  UNL     1      25.789   0.298  54.070  1.00  0.00     0.074 A 
HETATM   11  C2  UNL     1      27.197   0.310  54.495  1.00  0.00     0.006 A 
HETATM   12  C1  UNL     1      27.954  -0.426  53.664  1.00  0.00     0.007 A 
HETATM   13 BR1  UNL     1      29.831  -0.857  53.590  1.00  0.00    -0.051 Br
HETATM   14  C15 UNL     1      27.090  -0.979  52.627  1.00  0.00     0.015 A 
HETATM   15  C14 UNL     1      25.853  -0.568  52.856  1.00  0.00    -0.011 A 
ENDBRANCH   9  10
ENDBRANCH   6   8
ENDBRANCH   1   6
BRANCH   3  16
HETATM   16  C7  UNL     1      26.163   5.351  48.986  1.00  0.00    -0.007 A 
HETATM   17  C8  UNL     1      26.212   6.622  48.495  1.00  0.00     0.014 A 
HETATM   18  C9  UNL     1      27.334   7.197  47.949  1.00  0.00     0.001 A 
HETATM   19  C10 UNL     1      28.495   6.480  47.877  1.00  0.00     0.000 A 
HETATM   20  C11 UNL     1      28.525   5.200  48.347  1.00  0.00     0.001 A 
HETATM   21  C12 UNL     1      27.378   4.672  48.883  1.00  0.00     0.014 A 
ENDBRANCH   3  16
TORSDOF 4
ENDMDL
MODEL 3
REMARK VINA RESULT:      -7.3      2.443      4.359
REMARK  4 active torsions:
REMARK  status: ('A' for Active; 'I' for Inactive)
REMARK    1  A    between atoms: C3_4  and  C4_5 
REMARK    2  A    between atoms: N1_6  and  N2_7 
REMARK    3  A    between atoms: N2_7  and  C5_8 
REMARK    4  A    between atoms: C6_10  and  C7_11 
ROOT
HETATM    1  C5  UNL     1      24.470   2.832  53.066  1.00  0.00     0.187 A 
HETATM    2  N3  UNL     1      25.495   2.303  53.182  1.00  0.00    -0.222 NA
HETATM    3  C6  UNL     1      25.742   1.004  53.183  1.00  0.00     0.076 A 
HETATM    4  C13 UNL     1      24.658   0.148  53.027  1.00  0.00     0.085 A 
HETATM    5  S1  UNL     1      23.284   1.359  52.882  1.00  0.00    -0.060 SA
ENDROOT
BRANCH   1   6
HETATM    6  N2  UNL     1      23.861   4.108  53.019  1.00  0.00    -0.256 N 
HETATM    7  H4  UNL     1      23.317   4.304  53.883  1.00  0.00     0.191 HD
BRANCH   6   8
HETATM    8  N1  UNL     1      23.936   5.025  51.996  1.00  0.00    -0.188 NA
HETATM    9  C4  UNL     1      24.379   4.741  50.815  1.00  0.00     0.124 C 
BRANCH   9  10
HETATM   10  C3  UNL     1      24.401   5.837  49.805  1.00  0.00     0.074 A 
HETATM   11  C2  UNL     1      25.495   5.568  48.860  1.00  0.00     0.006 A 
HETATM   12  C1  UNL     1      26.467   6.489  48.977  1.00  0.00     0.007 A 
HETATM   13 BR1  UNL     1      28.157   6.773  48.095  1.00  0.00    -0.051 Br
HETATM   14  C15 UNL     1      26.076   7.436  50.016  1.00  0.00     0.015 A 
HETATM   15  C14 UNL     1      24.897   7.066  50.491  1.00  0.00    -0.011 A 
ENDBRANCH   9  10
ENDBRANCH   6   8
ENDBRANCH   1   6
BRANCH   3  16
HETATM   16  C7  UNL     1      27.114   0.475  53.344  1.00  0.00    -0.007 A 
HETATM   17  C8  UNL     1      28.194   1.184  53.779  1.00  0.00     0.014 A 
HETATM   18  C9  UNL     1      29.458   0.661  53.917  1.00  0.00     0.001 A 
HETATM   19  C10 UNL     1      29.684  -0.651  53.607  1.00  0.00     0.000 A 
HETATM   20  C11 UNL     1      28.652  -1.425  53.164  1.00  0.00     0.001 A 
HETATM   21  C12 UNL     1      27.411  -0.855  53.043  1.00  0.00     0.014 A 
ENDBRANCH   3  16
TORSDOF 4
ENDMDL
MODEL 4
REMARK VINA RESULT:      -7.2      2.360      4.071
REMARK  4 active torsions:
REMARK  status: ('A' for Active; 'I' for Inactive)
REMARK    1  A    between atoms: C3_4  and  C4_5 
REMARK    2  A    between atoms: N1_6  and  N2_7 
REMARK    3  A    between atoms: N2_7  and  C5_8 
REMARK    4  A    between atoms: C6_10  and  C7_11 
ROOT
HETATM    1  C5  UNL     1      25.066   2.227  52.030  1.00  0.00     0.187 A 
HETATM    2  N3  UNL     1      25.925   1.470  52.210  1.00  0.00    -0.222 NA
HETATM    3  C6  UNL     1      25.858   0.292  52.808  1.00  0.00     0.076 A 
HETATM    4  C13 UNL     1      24.616  -0.108  53.289  1.00  0.00     0.085 A 
HETATM    5  S1  UNL     1      23.582   1.333  52.811  1.00  0.00    -0.060 SA
ENDROOT
BRANCH   1   6
HETATM    6  N2  UNL     1      24.782   3.494  51.467  1.00  0.00    -0.256 N 
HETATM    7  H4  UNL     1      24.203   4.074  52.107  1.00  0.00     0.191 HD
BRANCH   6   8
HETATM    8  N1  UNL     1      25.186   3.965  50.240  1.00  0.00    -0.188 NA
HETATM    9  C4  UNL     1      26.046   4.918  50.090  1.00  0.00     0.124 C 
BRANCH   9  10
HETATM   10  C3  UNL     1      26.390   5.323  48.698  1.00  0.00     0.074 A 
HETATM   11  C2  UNL     1      27.805   5.002  48.461  1.00  0.00     0.006 A 
HETATM   12  C1  UNL     1      28.533   6.122  48.312  1.00  0.00     0.007 A 
HETATM   13 BR1  UNL     1      30.399   6.473  47.985  1.00  0.00    -0.051 Br
HETATM   14  C15 UNL     1      27.639   7.268  48.440  1.00  0.00     0.015 A 
HETATM   15  C14 UNL     1      26.415   6.815  48.660  1.00  0.00    -0.011 A 
ENDBRANCH   9  10
ENDBRANCH   6   8
ENDBRANCH   1   6
BRANCH   3  16
HETATM   16  C7  UNL     1      27.050  -0.569  52.963  1.00  0.00    -0.007 A 
HETATM   17  C8  UNL     1      27.104  -1.906  52.702  1.00  0.00     0.014 A 
HETATM   18  C9  UNL     1      28.230  -2.679  52.857  1.00  0.00     0.001 A 
HETATM   19  C10 UNL     1      29.389  -2.104  53.300  1.00  0.00     0.000 A 
HETATM   20  C11 UNL     1      29.412  -0.770  53.583  1.00  0.00     0.001 A 
HETATM   21  C12 UNL     1      28.262  -0.044  53.412  1.00  0.00     0.014 A 
ENDBRANCH   3  16
TORSDOF 4
ENDMDL
MODEL 5
REMARK VINA RESULT:      -6.9      5.429     10.120
REMARK  4 active torsions:
REMARK  status: ('A' for Active; 'I' for Inactive)
REMARK    1  A    between atoms: C3_4  and  C4_5 
REMARK    2  A    between atoms: N1_6  and  N2_7 
REMARK    3  A    between atoms: N2_7  and  C5_8 
REMARK    4  A    between atoms: C6_10  and  C7_11 
ROOT
HETATM    1  C5  UNL     1      29.648   5.842  48.137  1.00  0.00     0.187 A 
HETATM    2  N3  UNL     1      30.613   5.283  47.820  1.00  0.00    -0.222 NA
HETATM    3  C6  UNL     1      31.674   5.780  47.206  1.00  0.00     0.076 A 
HETATM    4  C13 UNL     1      31.654   7.134  46.892  1.00  0.00     0.085 A 
HETATM    5  S1  UNL     1      30.005   7.612  47.546  1.00  0.00    -0.060 SA
ENDROOT
BRANCH   1   6
HETATM    6  N2  UNL     1      28.395   5.655  48.766  1.00  0.00    -0.256 N 
HETATM    7  H4  UNL     1      28.011   6.551  49.127  1.00  0.00     0.191 HD
BRANCH   6   8
HETATM    8  N1  UNL     1      27.712   4.470  48.917  1.00  0.00    -0.188 NA
HETATM    9  C4  UNL     1      26.577   4.374  49.528  1.00  0.00     0.124 C 
BRANCH   9  10
HETATM   10  C3  UNL     1      25.952   3.024  49.614  1.00  0.00     0.074 A 
HETATM   11  C2  UNL     1      24.526   3.197  49.927  1.00  0.00     0.006 A 
HETATM   12  C1  UNL     1      24.244   2.730  51.156  1.00  0.00     0.007 A 
HETATM   13 BR1  UNL     1      22.637   2.624  52.213  1.00  0.00    -0.051 Br
HETATM   14  C15 UNL     1      25.476   2.212  51.740  1.00  0.00     0.015 A 
HETATM   15  C14 UNL     1      26.453   2.378  50.863  1.00  0.00    -0.011 A 
ENDBRANCH   9  10
ENDBRANCH   6   8
ENDBRANCH   1   6
BRANCH   3  16
HETATM   16  C7  UNL     1      32.840   4.936  46.865  1.00  0.00    -0.007 A 
HETATM   17  C8  UNL     1      33.458   4.886  45.651  1.00  0.00     0.014 A 
HETATM   18  C9  UNL     1      34.541   4.089  45.366  1.00  0.00     0.001 A 
HETATM   19  C10 UNL     1      35.059   3.281  46.339  1.00  0.00     0.000 A 
HETATM   20  C11 UNL     1      34.494   3.275  47.580  1.00  0.00     0.001 A 
HETATM   21  C12 UNL     1      33.415   4.089  47.813  1.00  0.00     0.014 A 
ENDBRANCH   3  16
TORSDOF 4
ENDMDL
MODEL 6
REMARK VINA RESULT:      -6.8      2.901      3.700
REMARK  4 active torsions:
REMARK  status: ('A' for Active; 'I' for Inactive)
REMARK    1  A    between atoms: C3_4  and  C4_5 
REMARK    2  A    between atoms: N1_6  and  N2_7 
REMARK    3  A    between atoms: N2_7  and  C5_8 
REMARK    4  A    between atoms: C6_10  and  C7_11 
ROOT
HETATM    1  C5  UNL     1      23.727   5.244  51.678  1.00  0.00     0.187 A 
HETATM    2  N3  UNL     1      23.739   4.144  52.045  1.00  0.00    -0.222 NA
HETATM    3  C6  UNL     1      22.705   3.346  52.250  1.00  0.00     0.076 A 
HETATM    4  C13 UNL     1      21.440   3.864  52.003  1.00  0.00     0.085 A 
HETATM    5  S1  UNL     1      21.867   5.567  51.461  1.00  0.00    -0.060 SA
ENDROOT
BRANCH   1   6
HETATM    6  N2  UNL     1      24.571   6.335  51.364  1.00  0.00    -0.256 N 
HETATM    7  H4  UNL     1      24.626   7.014  52.150  1.00  0.00     0.191 HD
BRANCH   6   8
HETATM    8  N1  UNL     1      25.263   6.538  50.192  1.00  0.00    -0.188 NA
HETATM    9  C4  UNL     1      26.060   5.662  49.674  1.00  0.00     0.124 C 
BRANCH   9  10
HETATM   10  C3  UNL     1      26.742   6.019  48.398  1.00  0.00     0.074 A 
HETATM   11  C2  UNL     1      28.021   5.297  48.343  1.00  0.00     0.006 A 
HETATM   12  C1  UNL     1      29.057   6.151  48.421  1.00  0.00     0.007 A 
HETATM   13 BR1  UNL     1      30.972   5.937  48.413  1.00  0.00    -0.051 Br
HETATM   14  C15 UNL     1      28.526   7.505  48.532  1.00  0.00     0.015 A 
HETATM   15  C14 UNL     1      27.204   7.433  48.520  1.00  0.00    -0.011 A 
ENDBRANCH   9  10
ENDBRANCH   6   8
ENDBRANCH   1   6
BRANCH   3  16
HETATM   16  C7  UNL     1      22.881   1.955  52.723  1.00  0.00    -0.007 A 
HETATM   17  C8  UNL     1      21.876   1.099  53.064  1.00  0.00     0.014 A 
HETATM   18  C9  UNL     1      22.074  -0.189  53.501  1.00  0.00     0.001 A 
HETATM   19  C10 UNL     1      23.345  -0.678  53.613  1.00  0.00     0.000 A 
HETATM   20  C11 UNL     1      24.403   0.121  53.291  1.00  0.00     0.001 A 
HETATM   21  C12 UNL     1      24.152   1.398  52.860  1.00  0.00     0.014 A 
ENDBRANCH   3  16
TORSDOF 4
ENDMDL
MODEL 7
REMARK VINA RESULT:      -6.5      4.210      5.799
REMARK  4 active torsions:
REMARK  status: ('A' for Active; 'I' for Inactive)
REMARK    1  A    between atoms: C3_4  and  C4_5 
REMARK    2  A    between atoms: N1_6  and  N2_7 
REMARK    3  A    between atoms: N2_7  and  C5_8 
REMARK    4  A    between atoms: C6_10  and  C7_11 
ROOT
HETATM    1  C5  UNL     1      21.644   0.334  52.792  1.00  0.00     0.187 A 
HETATM    2  N3  UNL     1      20.591  -0.135  52.667  1.00  0.00    -0.222 NA
HETATM    3  C6  UNL     1      19.523   0.406  52.106  1.00  0.00     0.076 A 
HETATM    4  C13 UNL     1      19.653   1.692  51.595  1.00  0.00     0.085 A 
HETATM    5  S1  UNL     1      21.413   2.041  51.989  1.00  0.00    -0.060 SA
ENDROOT
BRANCH   1   6
HETATM    6  N2  UNL     1      22.938   0.076  53.302  1.00  0.00    -0.256 N 
HETATM    7  H4  UNL     1      22.897  -0.375  54.238  1.00  0.00     0.191 HD
BRANCH   6   8
HETATM    8  N1  UNL     1      24.140   0.356  52.694  1.00  0.00    -0.188 NA
HETATM    9  C4  UNL     1      25.137   0.906  53.305  1.00  0.00     0.124 C 
BRANCH   9  10
HETATM   10  C3  UNL     1      26.379   1.150  52.518  1.00  0.00     0.074 A 
HETATM   11  C2  UNL     1      27.187  -0.078  52.544  1.00  0.00     0.006 A 
HETATM   12  C1  UNL     1      28.324   0.110  53.236  1.00  0.00     0.007 A 
HETATM   13 BR1  UNL     1      29.824  -1.015  53.681  1.00  0.00    -0.051 Br
HETATM   14  C15 UNL     1      28.342   1.487  53.717  1.00  0.00     0.015 A 
HETATM   15  C14 UNL     1      27.233   2.084  53.309  1.00  0.00    -0.011 A 
ENDBRANCH   9  10
ENDBRANCH   6   8
ENDBRANCH   1   6
BRANCH   3  16
HETATM   16  C7  UNL     1      18.238  -0.322  52.021  1.00  0.00    -0.007 A 
HETATM   17  C8  UNL     1      17.790  -1.252  52.912  1.00  0.00     0.014 A 
HETATM   18  C9  UNL     1      16.590  -1.911  52.803  1.00  0.00     0.001 A 
HETATM   19  C10 UNL     1      15.763  -1.642  51.748  1.00  0.00     0.000 A 
HETATM   20  C11 UNL     1      16.143  -0.723  50.814  1.00  0.00     0.001 A 
HETATM   21  C12 UNL     1      17.351  -0.093  50.968  1.00  0.00     0.014 A 
ENDBRANCH   3  16
TORSDOF 4
ENDMDL
MODEL 8
REMARK VINA RESULT:      -6.4      3.986      8.919
REMARK  4 active torsions:
REMARK  status: ('A' for Active; 'I' for Inactive)
REMARK    1  A    between atoms: C3_4  and  C4_5 
REMARK    2  A    between atoms: N1_6  and  N2_7 
REMARK    3  A    between atoms: N2_7  and  C5_8 
REMARK    4  A    between atoms: C6_10  and  C7_11 
ROOT
HETATM    1  C5  UNL     1      24.462   5.653  50.925  1.00  0.00     0.187 A 
HETATM    2  N3  UNL     1      25.279   5.944  50.155  1.00  0.00    -0.222 NA
HETATM    3  C6  UNL     1      25.284   6.975  49.326  1.00  0.00     0.076 A 
HETATM    4  C13 UNL     1      24.187   7.827  49.363  1.00  0.00     0.085 A 
HETATM    5  S1  UNL     1      23.174   7.027  50.670  1.00  0.00    -0.060 SA
ENDROOT
BRANCH   1   6
HETATM    6  N2  UNL     1      24.136   4.692  51.910  1.00  0.00    -0.256 N 
HETATM    7  H4  UNL     1      24.015   5.129  52.845  1.00  0.00     0.191 HD
BRANCH   6   8
HETATM    8  N1  UNL     1      23.981   3.337  51.726  1.00  0.00    -0.188 NA
HETATM    9  C4  UNL     1      24.593   2.447  52.437  1.00  0.00     0.124 C 
BRANCH   9  10
HETATM   10  C3  UNL     1      24.327   1.014  52.125  1.00  0.00     0.074 A 
HETATM   11  C2  UNL     1      22.949   0.704  52.532  1.00  0.00     0.006 A 
HETATM   12  C1  UNL     1      22.935  -0.155  53.565  1.00  0.00     0.007 A 
HETATM   13 BR1  UNL     1      21.537  -0.984  54.600  1.00  0.00    -0.051 Br
HETATM   14  C15 UNL     1      24.316  -0.472  53.913  1.00  0.00     0.015 A 
HETATM   15  C14 UNL     1      25.113   0.193  53.093  1.00  0.00    -0.011 A 
ENDBRANCH   9  10
ENDBRANCH   6   8
ENDBRANCH   1   6
BRANCH   3  16
HETATM   16  C7  UNL     1      26.407   7.217  48.394  1.00  0.00    -0.007 A 
HETATM   17  C8  UNL     1      26.405   8.105  47.360  1.00  0.00     0.014 A 
HETATM   18  C9  UNL     1      27.467   8.306  46.511  1.00  0.00     0.001 A 
HETATM   19  C10 UNL     1      28.616   7.587  46.685  1.00  0.00     0.000 A 
HETATM   20  C11 UNL     1      28.694   6.678  47.700  1.00  0.00     0.001 A 
HETATM   21  C12 UNL     1      27.606   6.515  48.518  1.00  0.00     0.014 A 
ENDBRANCH   3  16
TORSDOF 4
ENDMDL
MODEL 9
REMARK VINA RESULT:      -6.3      5.209      9.453
REMARK  4 active torsions:
REMARK  status: ('A' for Active; 'I' for Inactive)
REMARK    1  A    between atoms: C3_4  and  C4_5 
REMARK    2  A    between atoms: N1_6  and  N2_7 
REMARK    3  A    between atoms: N2_7  and  C5_8 
REMARK    4  A    between atoms: C6_10  and  C7_11 
ROOT
HETATM    1  C5  UNL     1      29.057   5.947  48.173  1.00  0.00     0.187 A 
HETATM    2  N3  UNL     1      30.010   5.305  48.014  1.00  0.00    -0.222 NA
HETATM    3  C6  UNL     1      31.270   5.707  48.021  1.00  0.00     0.076 A 
HETATM    4  C13 UNL     1      31.507   7.058  48.242  1.00  0.00     0.085 A 
HETATM    5  S1  UNL     1      29.789   7.681  48.436  1.00  0.00    -0.060 SA
ENDROOT
BRANCH   1   6
HETATM    6  N2  UNL     1      27.646   5.871  48.230  1.00  0.00    -0.256 N 
HETATM    7  H4  UNL     1      27.200   6.613  47.654  1.00  0.00     0.191 HD
BRANCH   6   8
HETATM    8  N1  UNL     1      26.893   4.962  48.936  1.00  0.00    -0.188 NA
HETATM    9  C4  UNL     1      25.880   5.290  49.670  1.00  0.00     0.124 C 
BRANCH   9  10
HETATM   10  C3  UNL     1      25.157   4.196  50.377  1.00  0.00     0.074 A 
HETATM   11  C2  UNL     1      24.787   3.175  49.386  1.00  0.00     0.006 A 
HETATM   12  C1  UNL     1      23.453   3.121  49.228  1.00  0.00     0.007 A 
HETATM   13 BR1  UNL     1      22.275   2.060  48.132  1.00  0.00    -0.051 Br
HETATM   14  C15 UNL     1      22.848   4.110  50.113  1.00  0.00     0.015 A 
HETATM   15  C14 UNL     1      23.818   4.726  50.770  1.00  0.00    -0.011 A 
ENDBRANCH   9  10
ENDBRANCH   6   8
ENDBRANCH   1   6
BRANCH   3  16
HETATM   16  C7  UNL     1      32.386   4.762  47.802  1.00  0.00    -0.007 A 
HETATM   17  C8  UNL     1      33.685   4.969  48.162  1.00  0.00     0.014 A 
HETATM   18  C9  UNL     1      34.700   4.069  47.944  1.00  0.00     0.001 A 
HETATM   19  C10 UNL     1      34.429   2.879  47.328  1.00  0.00     0.000 A 
HETATM   20  C11 UNL     1      33.152   2.601  46.937  1.00  0.00     0.001 A 
HETATM   21  C12 UNL     1      32.175   3.532  47.178  1.00  0.00     0.014 A 
ENDBRANCH   3  16
TORSDOF 4
ENDMDL
