MODEL 1
REMARK VINA RESULT:      -8.5      0.000      0.000
REMARK  7 active torsions:
REMARK  status: ('A' for Active; 'I' for Inactive)
REMARK    1  A    between atoms: N1_1  and  C1_2 
REMARK    2  A    between atoms: C1_2  and  C2_3 
REMARK    3  A    between atoms: C2_3  and  C3_4 
REMARK    4  A    between atoms: C3_4  and  C4_5 
REMARK    5  A    between atoms: C4_5  and  C5_6 
REMARK    6  A    between atoms: C5_6  and  C6_7 
REMARK    7  A    between atoms: C6_7  and  O2_9 
ROOT
HETATM    1  C3  UNL     1      25.659   0.759  52.877  1.00  0.00    -0.017 A 
HETATM    2  C7  UNL     1      25.205   1.873  51.942  1.00  0.00     0.002 A 
HETATM    3  C8  UNL     1      24.361   1.653  52.890  1.00  0.00     0.010 A 
HETATM    4  C9  UNL     1      23.221   2.668  52.627  1.00  0.00     0.006 C 
HETATM    5  C10 UNL     1      21.901   1.969  52.585  1.00  0.00     0.001 C 
HETATM    6  C11 UNL     1      21.853   0.825  51.626  1.00  0.00     0.005 C 
HETATM    7  C12 UNL     1      21.671   1.261  50.211  1.00  0.00     0.047 C 
HETATM    8  C13 UNL     1      22.607   2.300  49.838  1.00  0.00     0.090 C 
HETATM    9  N2  UNL     1      23.787   2.395  49.295  1.00  0.00    -0.264 NA
HETATM   10  C14 UNL     1      24.318   3.716  49.131  1.00  0.00     0.066 A 
HETATM   11  C15 UNL     1      23.655   4.882  48.696  1.00  0.00     0.032 A 
HETATM   12  C16 UNL     1      24.282   6.098  48.647  1.00  0.00     0.002 A 
HETATM   13  C17 UNL     1      25.588   6.207  49.039  1.00  0.00     0.001 A 
HETATM   14  C18 UNL     1      26.250   5.064  49.468  1.00  0.00     0.014 A 
HETATM   15  C19 UNL     1      25.634   3.780  49.524  1.00  0.00    -0.008 A 
HETATM   16  C20 UNL     1      26.489   2.658  50.055  1.00  0.00     0.010 C 
HETATM   17  C21 UNL     1      26.304   1.856  51.069  1.00  0.00    -0.014 C 
ENDROOT
BRANCH   1  18
HETATM   18  C2  UNL     1      25.506  -0.004  54.028  1.00  0.00     0.030 C 
BRANCH  18  19
HETATM   19  C1  UNL     1      24.616  -0.969  54.707  1.00  0.00     0.272 C 
BRANCH  19  20
HETATM   20  N1  UNL     1      25.204  -1.341  56.035  1.00  0.00     0.078 N 
HETATM   21  H1  UNL     1      25.568  -0.525  56.538  1.00  0.00     0.312 HD
HETATM   22  H2  UNL     1      24.406  -1.815  56.563  1.00  0.00     0.312 HD
ENDBRANCH  19  20
ENDBRANCH  18  19
ENDBRANCH   1  18
BRANCH   1  23
HETATM   23  C4  UNL     1      26.575  -0.351  52.389  1.00  0.00     0.022 C 
BRANCH  23  24
HETATM   24  C5  UNL     1      27.832  -0.439  53.264  1.00  0.00     0.111 C 
BRANCH  24  25
HETATM   25  C6  UNL     1      28.292  -1.861  53.200  1.00  0.00     0.139 C 
HETATM   26  O1  UNL     1      27.234  -2.464  52.744  1.00  0.00    -0.650 OA
BRANCH  25  27
HETATM   27  O2  UNL     1      28.670  -3.185  53.122  1.00  0.00    -0.776 OA
HETATM   28  H10 UNL     1      28.686  -3.782  53.959  1.00  0.00     0.167 HD
ENDBRANCH  25  27
ENDBRANCH  24  25
ENDBRANCH  23  24
ENDBRANCH   1  23
TORSDOF 7
ENDMDL
MODEL 2
REMARK VINA RESULT:      -8.1      2.643      5.278
REMARK  7 active torsions:
REMARK  status: ('A' for Active; 'I' for Inactive)
REMARK    1  A    between atoms: N1_1  and  C1_2 
REMARK    2  A    between atoms: C1_2  and  C2_3 
REMARK    3  A    between atoms: C2_3  and  C3_4 
REMARK    4  A    between atoms: C3_4  and  C4_5 
REMARK    5  A    between atoms: C4_5  and  C5_6 
REMARK    6  A    between atoms: C5_6  and  C6_7 
REMARK    7  A    between atoms: C6_7  and  O2_9 
ROOT
HETATM    1  C3  UNL     1      24.355   1.066  52.127  1.00  0.00    -0.017 A 
HETATM    2  C7  UNL     1      22.875   1.300  51.848  1.00  0.00     0.002 A 
HETATM    3  C8  UNL     1      23.634   1.880  50.985  1.00  0.00     0.010 A 
HETATM    4  C9  UNL     1      22.646   2.582  50.020  1.00  0.00     0.006 C 
HETATM    5  C10 UNL     1      22.996   4.027  49.877  1.00  0.00     0.001 C 
HETATM    6  C11 UNL     1      23.107   4.754  51.179  1.00  0.00     0.005 C 
HETATM    7  C12 UNL     1      21.781   5.128  51.749  1.00  0.00     0.047 C 
HETATM    8  C13 UNL     1      20.867   4.006  51.780  1.00  0.00     0.090 C 
HETATM    9  N2  UNL     1      20.510   3.067  52.609  1.00  0.00    -0.264 NA
HETATM   10  C14 UNL     1      19.516   2.143  52.149  1.00  0.00     0.066 A 
HETATM   11  C15 UNL     1      18.339   2.411  51.419  1.00  0.00     0.032 A 
HETATM   12  C16 UNL     1      17.507   1.411  50.992  1.00  0.00     0.002 A 
HETATM   13  C17 UNL     1      17.816   0.106  51.261  1.00  0.00     0.001 A 
HETATM   14  C18 UNL     1      18.972  -0.168  51.980  1.00  0.00     0.014 A 
HETATM   15  C19 UNL     1      19.857   0.847  52.449  1.00  0.00    -0.008 A 
HETATM   16  C20 UNL     1      21.088   0.366  53.177  1.00  0.00     0.010 C 
HETATM   17  C21 UNL     1      22.354   0.562  52.924  1.00  0.00    -0.014 C 
ENDROOT
BRANCH   1  18
HETATM   18  C2  UNL     1      25.693   1.182  51.776  1.00  0.00     0.030 C 
BRANCH  18  19
HETATM   19  C1  UNL     1      26.896   2.027  51.932  1.00  0.00     0.272 C 
BRANCH  19  20
HETATM   20  N1  UNL     1      26.711   3.303  51.168  1.00  0.00     0.078 N 
HETATM   21  H1  UNL     1      27.598   3.669  50.807  1.00  0.00     0.312 HD
HETATM   22  H2  UNL     1      26.031   3.055  50.383  1.00  0.00     0.312 HD
ENDBRANCH  19  20
ENDBRANCH  18  19
ENDBRANCH   1  18
BRANCH   1  23
HETATM   23  C4  UNL     1      24.855   0.798  53.536  1.00  0.00     0.022 C 
BRANCH  23  24
HETATM   24  C5  UNL     1      25.333  -0.653  53.674  1.00  0.00     0.111 C 
BRANCH  24  25
HETATM   25  C6  UNL     1      25.128  -1.031  55.106  1.00  0.00     0.139 C 
HETATM   26  O1  UNL     1      26.202  -0.557  55.665  1.00  0.00    -0.650 OA
BRANCH  25  27
HETATM   27  O2  UNL     1      24.984  -1.358  56.438  1.00  0.00    -0.776 OA
HETATM   28  H10 UNL     1      24.097  -1.194  56.933  1.00  0.00     0.167 HD
ENDBRANCH  25  27
ENDBRANCH  24  25
ENDBRANCH  23  24
ENDBRANCH   1  23
TORSDOF 7
ENDMDL
MODEL 3
REMARK VINA RESULT:      -7.7      3.631      6.877
REMARK  7 active torsions:
REMARK  status: ('A' for Active; 'I' for Inactive)
REMARK    1  A    between atoms: N1_1  and  C1_2 
REMARK    2  A    between atoms: C1_2  and  C2_3 
REMARK    3  A    between atoms: C2_3  and  C3_4 
REMARK    4  A    between atoms: C3_4  and  C4_5 
REMARK    5  A    between atoms: C4_5  and  C5_6 
REMARK    6  A    between atoms: C5_6  and  C6_7 
REMARK    7  A    between atoms: C6_7  and  O2_9 
ROOT
HETATM    1  C3  UNL     1      22.917   3.652  48.888  1.00  0.00    -0.017 A 
HETATM    2  C7  UNL     1      23.373   2.614  49.907  1.00  0.00     0.002 A 
HETATM    3  C8  UNL     1      22.261   2.291  49.341  1.00  0.00     0.010 A 
HETATM    4  C9  UNL     1      21.884   0.936  49.990  1.00  0.00     0.006 C 
HETATM    5  C10 UNL     1      20.491   0.986  50.526  1.00  0.00     0.001 C 
HETATM    6  C11 UNL     1      20.241   2.131  51.454  1.00  0.00     0.005 C 
HETATM    7  C12 UNL     1      20.765   1.888  52.829  1.00  0.00     0.047 C 
HETATM    8  C13 UNL     1      22.140   1.435  52.815  1.00  0.00     0.090 C 
HETATM    9  N2  UNL     1      23.334   1.952  52.883  1.00  0.00    -0.264 NA
HETATM   10  C14 UNL     1      24.436   1.039  52.818  1.00  0.00     0.066 A 
HETATM   11  C15 UNL     1      24.577  -0.215  53.448  1.00  0.00     0.032 A 
HETATM   12  C16 UNL     1      25.672  -1.011  53.243  1.00  0.00     0.002 A 
HETATM   13  C17 UNL     1      26.664  -0.600  52.396  1.00  0.00     0.001 A 
HETATM   14  C18 UNL     1      26.535   0.633  51.772  1.00  0.00     0.014 A 
HETATM   15  C19 UNL     1      25.415   1.493  51.967  1.00  0.00    -0.008 A 
HETATM   16  C20 UNL     1      25.420   2.777  51.176  1.00  0.00     0.010 C 
HETATM   17  C21 UNL     1      24.558   3.246  50.314  1.00  0.00    -0.014 C 
ENDROOT
BRANCH   1  18
HETATM   18  C2  UNL     1      22.054   4.079  47.888  1.00  0.00     0.030 C 
BRANCH  18  19
HETATM   19  C1  UNL     1      22.000   4.695  46.545  1.00  0.00     0.272 C 
BRANCH  19  20
HETATM   20  N1  UNL     1      21.970   3.619  45.503  1.00  0.00     0.078 N 
HETATM   21  H1  UNL     1      21.653   2.722  45.883  1.00  0.00     0.312 HD
HETATM   22  H2  UNL     1      21.312   3.989  44.747  1.00  0.00     0.312 HD
ENDBRANCH  19  20
ENDBRANCH  18  19
ENDBRANCH   1  18
BRANCH   1  23
HETATM   23  C4  UNL     1      23.317   5.111  49.023  1.00  0.00     0.022 C 
BRANCH  23  24
HETATM   24  C5  UNL     1      22.391   5.837  50.006  1.00  0.00     0.111 C 
BRANCH  24  25
HETATM   25  C6  UNL     1      23.267   6.707  50.849  1.00  0.00     0.139 C 
HETATM   26  O1  UNL     1      22.847   7.897  50.533  1.00  0.00    -0.650 OA
BRANCH  25  27
HETATM   27  O2  UNL     1      24.052   7.552  51.606  1.00  0.00    -0.776 OA
HETATM   28  H10 UNL     1      24.945   7.913  51.246  1.00  0.00     0.167 HD
ENDBRANCH  25  27
ENDBRANCH  24  25
ENDBRANCH  23  24
ENDBRANCH   1  23
TORSDOF 7
ENDMDL
MODEL 4
REMARK VINA RESULT:      -7.7      2.762      5.769
REMARK  7 active torsions:
REMARK  status: ('A' for Active; 'I' for Inactive)
REMARK    1  A    between atoms: N1_1  and  C1_2 
REMARK    2  A    between atoms: C1_2  and  C2_3 
REMARK    3  A    between atoms: C2_3  and  C3_4 
REMARK    4  A    between atoms: C3_4  and  C4_5 
REMARK    5  A    between atoms: C4_5  and  C5_6 
REMARK    6  A    between atoms: C5_6  and  C6_7 
REMARK    7  A    between atoms: C6_7  and  O2_9 
ROOT
HETATM    1  C3  UNL     1      22.218   1.453  52.669  1.00  0.00    -0.017 A 
HETATM    2  C7  UNL     1      23.727   1.535  52.867  1.00  0.00     0.002 A 
HETATM    3  C8  UNL     1      23.195   2.691  52.667  1.00  0.00     0.010 A 
HETATM    4  C9  UNL     1      24.391   3.673  52.720  1.00  0.00     0.006 C 
HETATM    5  C10 UNL     1      24.412   4.535  51.500  1.00  0.00     0.001 C 
HETATM    6  C11 UNL     1      24.385   3.767  50.218  1.00  0.00     0.005 C 
HETATM    7  C12 UNL     1      25.717   3.206  49.850  1.00  0.00     0.047 C 
HETATM    8  C13 UNL     1      26.328   2.490  50.949  1.00  0.00     0.090 C 
HETATM    9  N2  UNL     1      26.386   1.269  51.400  1.00  0.00    -0.264 NA
HETATM   10  C14 UNL     1      27.158   1.056  52.588  1.00  0.00     0.066 A 
HETATM   11  C15 UNL     1      28.416   1.599  52.928  1.00  0.00     0.032 A 
HETATM   12  C16 UNL     1      29.010   1.351  54.136  1.00  0.00     0.002 A 
HETATM   13  C17 UNL     1      28.376   0.566  55.059  1.00  0.00     0.001 A 
HETATM   14  C18 UNL     1      27.138   0.027  54.734  1.00  0.00     0.014 A 
HETATM   15  C19 UNL     1      26.493   0.254  53.484  1.00  0.00    -0.008 A 
HETATM   16  C20 UNL     1      25.133  -0.376  53.317  1.00  0.00     0.010 C 
HETATM   17  C21 UNL     1      23.973   0.165  53.054  1.00  0.00    -0.014 C 
ENDROOT
BRANCH   1  18
HETATM   18  C2  UNL     1      20.977   2.055  52.510  1.00  0.00     0.030 C 
BRANCH  18  19
HETATM   19  C1  UNL     1      20.041   2.607  51.508  1.00  0.00     0.272 C 
BRANCH  19  20
HETATM   20  N1  UNL     1      20.212   4.095  51.432  1.00  0.00     0.078 N 
HETATM   21  H1  UNL     1      20.706   4.384  50.582  1.00  0.00     0.312 HD
HETATM   22  H2  UNL     1      19.219   4.486  51.472  1.00  0.00     0.312 HD
ENDBRANCH  19  20
ENDBRANCH  18  19
ENDBRANCH   1  18
BRANCH   1  23
HETATM   23  C4  UNL     1      21.566   0.199  52.111  1.00  0.00     0.022 C 
BRANCH  23  24
HETATM   24  C5  UNL     1      20.444  -0.285  53.040  1.00  0.00     0.111 C 
BRANCH  24  25
HETATM   25  C6  UNL     1      21.095  -1.150  54.071  1.00  0.00     0.139 C 
HETATM   26  O1  UNL     1      20.174  -2.042  54.291  1.00  0.00    -0.650 OA
BRANCH  25  27
HETATM   27  O2  UNL     1      21.652  -1.978  55.024  1.00  0.00    -0.776 OA
HETATM   28  H10 UNL     1      22.176  -1.594  55.821  1.00  0.00     0.167 HD
ENDBRANCH  25  27
ENDBRANCH  24  25
ENDBRANCH  23  24
ENDBRANCH   1  23
TORSDOF 7
ENDMDL
MODEL 5
REMARK VINA RESULT:      -7.2      2.298      2.630
REMARK  7 active torsions:
REMARK  status: ('A' for Active; 'I' for Inactive)
REMARK    1  A    between atoms: N1_1  and  C1_2 
REMARK    2  A    between atoms: C1_2  and  C2_3 
REMARK    3  A    between atoms: C2_3  and  C3_4 
REMARK    4  A    between atoms: C3_4  and  C4_5 
REMARK    5  A    between atoms: C4_5  and  C5_6 
REMARK    6  A    between atoms: C5_6  and  C6_7 
REMARK    7  A    between atoms: C6_7  and  O2_9 
ROOT
HETATM    1  C3  UNL     1      24.395   1.343  52.995  1.00  0.00    -0.017 A 
HETATM    2  C7  UNL     1      23.659   2.430  52.219  1.00  0.00     0.002 A 
HETATM    3  C8  UNL     1      22.853   1.590  52.772  1.00  0.00     0.010 A 
HETATM    4  C9  UNL     1      21.445   2.096  52.372  1.00  0.00     0.006 C 
HETATM    5  C10 UNL     1      20.650   0.991  51.757  1.00  0.00     0.001 C 
HETATM    6  C11 UNL     1      21.338   0.314  50.616  1.00  0.00     0.005 C 
HETATM    7  C12 UNL     1      21.251   1.089  49.345  1.00  0.00     0.047 C 
HETATM    8  C13 UNL     1      21.636   2.472  49.524  1.00  0.00     0.090 C 
HETATM    9  N2  UNL     1      22.712   3.202  49.427  1.00  0.00    -0.264 NA
HETATM   10  C14 UNL     1      22.575   4.596  49.727  1.00  0.00     0.066 A 
HETATM   11  C15 UNL     1      21.537   5.477  49.356  1.00  0.00     0.032 A 
HETATM   12  C16 UNL     1      21.511   6.781  49.770  1.00  0.00     0.002 A 
HETATM   13  C17 UNL     1      22.504   7.260  50.579  1.00  0.00     0.001 A 
HETATM   14  C18 UNL     1      23.530   6.401  50.950  1.00  0.00     0.014 A 
HETATM   15  C19 UNL     1      23.597   5.040  50.530  1.00  0.00    -0.008 A 
HETATM   16  C20 UNL     1      24.760   4.240  51.062  1.00  0.00     0.010 C 
HETATM   17  C21 UNL     1      24.783   3.142  51.768  1.00  0.00    -0.014 C 
ENDROOT
BRANCH   1  18
HETATM   18  C2  UNL     1      24.400   0.245  53.845  1.00  0.00     0.030 C 
BRANCH  18  19
HETATM   19  C1  UNL     1      25.074  -1.040  54.126  1.00  0.00     0.272 C 
BRANCH  19  20
HETATM   20  N1  UNL     1      24.973  -1.345  55.591  1.00  0.00     0.078 N 
HETATM   21  H1  UNL     1      25.318  -0.575  56.171  1.00  0.00     0.312 HD
HETATM   22  H2  UNL     1      23.937  -1.541  55.758  1.00  0.00     0.312 HD
ENDBRANCH  19  20
ENDBRANCH  18  19
ENDBRANCH   1  18
BRANCH   1  23
HETATM   23  C4  UNL     1      25.802   0.919  52.608  1.00  0.00     0.022 C 
BRANCH  23  24
HETATM   24  C5  UNL     1      26.782   1.188  53.758  1.00  0.00     0.111 C 
BRANCH  24  25
HETATM   25  C6  UNL     1      27.822   2.116  53.217  1.00  0.00     0.139 C 
HETATM   26  O1  UNL     1      28.247   2.701  54.298  1.00  0.00    -0.650 OA
BRANCH  25  27
HETATM   27  O2  UNL     1      28.791   2.988  52.766  1.00  0.00    -0.776 OA
HETATM   28  H10 UNL     1      28.934   3.150  51.761  1.00  0.00     0.167 HD
ENDBRANCH  25  27
ENDBRANCH  24  25
ENDBRANCH  23  24
ENDBRANCH   1  23
TORSDOF 7
ENDMDL
MODEL 6
REMARK VINA RESULT:      -7.1      8.160     11.151
REMARK  7 active torsions:
REMARK  status: ('A' for Active; 'I' for Inactive)
REMARK    1  A    between atoms: N1_1  and  C1_2 
REMARK    2  A    between atoms: C1_2  and  C2_3 
REMARK    3  A    between atoms: C2_3  and  C3_4 
REMARK    4  A    between atoms: C3_4  and  C4_5 
REMARK    5  A    between atoms: C4_5  and  C5_6 
REMARK    6  A    between atoms: C5_6  and  C6_7 
REMARK    7  A    between atoms: C6_7  and  O2_9 
ROOT
HETATM    1  C3  UNL     1      33.101   5.117  45.173  1.00  0.00    -0.017 A 
HETATM    2  C7  UNL     1      32.270   6.031  46.066  1.00  0.00     0.002 A 
HETATM    3  C8  UNL     1      33.022   6.690  45.253  1.00  0.00     0.010 A 
HETATM    4  C9  UNL     1      32.722   8.175  45.575  1.00  0.00     0.006 C 
HETATM    5  C10 UNL     1      33.991   8.917  45.839  1.00  0.00     0.001 C 
HETATM    6  C11 UNL     1      34.852   8.289  46.886  1.00  0.00     0.005 C 
HETATM    7  C12 UNL     1      34.388   8.583  48.272  1.00  0.00     0.047 C 
HETATM    8  C13 UNL     1      32.975   8.318  48.440  1.00  0.00     0.090 C 
HETATM    9  N2  UNL     1      32.209   7.335  48.820  1.00  0.00    -0.264 NA
HETATM   10  C14 UNL     1      30.797   7.576  48.809  1.00  0.00     0.066 A 
HETATM   11  C15 UNL     1      30.098   8.727  49.229  1.00  0.00     0.032 A 
HETATM   12  C16 UNL     1      28.740   8.838  49.101  1.00  0.00     0.002 A 
HETATM   13  C17 UNL     1      28.023   7.818  48.540  1.00  0.00     0.001 A 
HETATM   14  C18 UNL     1      28.701   6.680  48.124  1.00  0.00     0.014 A 
HETATM   15  C19 UNL     1      30.112   6.524  48.250  1.00  0.00    -0.008 A 
HETATM   16  C20 UNL     1      30.687   5.239  47.707  1.00  0.00     0.010 C 
HETATM   17  C21 UNL     1      31.596   5.036  46.792  1.00  0.00    -0.014 C 
ENDROOT
BRANCH   1  18
HETATM   18  C2  UNL     1      33.979   4.916  44.117  1.00  0.00     0.030 C 
BRANCH  18  19
HETATM   19  C1  UNL     1      34.105   4.976  42.645  1.00  0.00     0.272 C 
BRANCH  19  20
HETATM   20  N1  UNL     1      32.995   4.188  42.017  1.00  0.00     0.078 N 
HETATM   21  H1  UNL     1      32.446   3.672  42.712  1.00  0.00     0.312 HD
HETATM   22  H2  UNL     1      32.407   4.911  41.498  1.00  0.00     0.312 HD
ENDBRANCH  19  20
ENDBRANCH  18  19
ENDBRANCH   1  18
BRANCH   1  23
HETATM   23  C4  UNL     1      33.497   3.723  45.630  1.00  0.00     0.022 C 
BRANCH  23  24
HETATM   24  C5  UNL     1      34.971   3.690  46.053  1.00  0.00     0.111 C 
BRANCH  24  25
HETATM   25  C6  UNL     1      34.982   3.453  47.529  1.00  0.00     0.139 C 
HETATM   26  O1  UNL     1      34.968   4.667  47.995  1.00  0.00    -0.650 OA
BRANCH  25  27
HETATM   27  O2  UNL     1      34.992   3.286  48.898  1.00  0.00    -0.776 OA
HETATM   28  H10 UNL     1      34.628   4.016  49.525  1.00  0.00     0.167 HD
ENDBRANCH  25  27
ENDBRANCH  24  25
ENDBRANCH  23  24
ENDBRANCH   1  23
TORSDOF 7
ENDMDL
MODEL 7
REMARK VINA RESULT:      -7.0      7.319      9.885
REMARK  7 active torsions:
REMARK  status: ('A' for Active; 'I' for Inactive)
REMARK    1  A    between atoms: N1_1  and  C1_2 
REMARK    2  A    between atoms: C1_2  and  C2_3 
REMARK    3  A    between atoms: C2_3  and  C3_4 
REMARK    4  A    between atoms: C3_4  and  C4_5 
REMARK    5  A    between atoms: C4_5  and  C5_6 
REMARK    6  A    between atoms: C5_6  and  C6_7 
REMARK    7  A    between atoms: C6_7  and  O2_9 
ROOT
HETATM    1  C3  UNL     1      31.043   6.803  46.469  1.00  0.00    -0.017 A 
HETATM    2  C7  UNL     1      29.783   7.482  46.992  1.00  0.00     0.002 A 
HETATM    3  C8  UNL     1      30.521   8.282  46.302  1.00  0.00     0.010 A 
HETATM    4  C9  UNL     1      29.753   9.626  46.328  1.00  0.00     0.006 C 
HETATM    5  C10 UNL     1      30.650  10.730  46.785  1.00  0.00     0.001 C 
HETATM    6  C11 UNL     1      31.327  10.457  48.089  1.00  0.00     0.005 C 
HETATM    7  C12 UNL     1      30.437  10.687  49.264  1.00  0.00     0.047 C 
HETATM    8  C13 UNL     1      29.160  10.023  49.117  1.00  0.00     0.090 C 
HETATM    9  N2  UNL     1      28.615   8.883  49.435  1.00  0.00    -0.264 NA
HETATM   10  C14 UNL     1      27.250   8.689  49.044  1.00  0.00     0.066 A 
HETATM   11  C15 UNL     1      26.178   9.603  49.113  1.00  0.00     0.032 A 
HETATM   12  C16 UNL     1      24.930   9.294  48.642  1.00  0.00     0.002 A 
HETATM   13  C17 UNL     1      24.700   8.072  48.074  1.00  0.00     0.001 A 
HETATM   14  C18 UNL     1      25.749   7.164  48.002  1.00  0.00     0.014 A 
HETATM   15  C19 UNL     1      27.058   7.446  48.490  1.00  0.00    -0.008 A 
HETATM   16  C20 UNL     1      28.086   6.361  48.292  1.00  0.00     0.010 C 
HETATM   17  C21 UNL     1      29.232   6.380  47.665  1.00  0.00    -0.014 C 
ENDROOT
BRANCH   1  18
HETATM   18  C2  UNL     1      32.198   6.806  45.698  1.00  0.00     0.030 C 
BRANCH  18  19
HETATM   19  C1  UNL     1      32.903   6.102  44.606  1.00  0.00     0.272 C 
BRANCH  19  20
HETATM   20  N1  UNL     1      34.378   6.339  44.731  1.00  0.00     0.078 N 
HETATM   21  H1  UNL     1      34.633   7.309  44.521  1.00  0.00     0.312 HD
HETATM   22  H2  UNL     1      34.613   6.072  45.738  1.00  0.00     0.312 HD
ENDBRANCH  19  20
ENDBRANCH  18  19
ENDBRANCH   1  18
BRANCH   1  23
HETATM   23  C4  UNL     1      31.660   5.623  47.201  1.00  0.00     0.022 C 
BRANCH  23  24
HETATM   24  C5  UNL     1      32.672   6.107  48.249  1.00  0.00     0.111 C 
BRANCH  24  25
HETATM   25  C6  UNL     1      32.080   5.791  49.585  1.00  0.00     0.139 C 
HETATM   26  O1  UNL     1      31.747   6.972  50.016  1.00  0.00    -0.650 OA
BRANCH  25  27
HETATM   27  O2  UNL     1      31.525   5.551  50.824  1.00  0.00    -0.776 OA
HETATM   28  H10 UNL     1      30.838   4.799  50.962  1.00  0.00     0.167 HD
ENDBRANCH  25  27
ENDBRANCH  24  25
ENDBRANCH  23  24
ENDBRANCH   1  23
TORSDOF 7
ENDMDL
MODEL 8
REMARK VINA RESULT:      -7.0      3.686      6.601
REMARK  7 active torsions:
REMARK  status: ('A' for Active; 'I' for Inactive)
REMARK    1  A    between atoms: N1_1  and  C1_2 
REMARK    2  A    between atoms: C1_2  and  C2_3 
REMARK    3  A    between atoms: C2_3  and  C3_4 
REMARK    4  A    between atoms: C3_4  and  C4_5 
REMARK    5  A    between atoms: C4_5  and  C5_6 
REMARK    6  A    between atoms: C5_6  and  C6_7 
REMARK    7  A    between atoms: C6_7  and  O2_9 
ROOT
HETATM    1  C3  UNL     1      21.927   4.026  50.904  1.00  0.00    -0.017 A 
HETATM    2  C7  UNL     1      22.731   2.807  51.342  1.00  0.00     0.002 A 
HETATM    3  C8  UNL     1      21.672   2.485  50.682  1.00  0.00     0.010 A 
HETATM    4  C9  UNL     1      21.706   0.938  50.640  1.00  0.00     0.006 C 
HETATM    5  C10 UNL     1      20.412   0.375  51.129  1.00  0.00     0.001 C 
HETATM    6  C11 UNL     1      20.002   0.881  52.474  1.00  0.00     0.005 C 
HETATM    7  C12 UNL     1      20.722   0.205  53.592  1.00  0.00     0.047 C 
HETATM    8  C13 UNL     1      22.154   0.187  53.384  1.00  0.00     0.090 C 
HETATM    9  N2  UNL     1      23.190   0.917  53.690  1.00  0.00    -0.264 NA
HETATM   10  C14 UNL     1      24.464   0.455  53.225  1.00  0.00     0.066 A 
HETATM   11  C15 UNL     1      24.972  -0.861  53.216  1.00  0.00     0.032 A 
HETATM   12  C16 UNL     1      26.195  -1.163  52.680  1.00  0.00     0.002 A 
HETATM   13  C17 UNL     1      26.957  -0.174  52.121  1.00  0.00     0.001 A 
HETATM   14  C18 UNL     1      26.466   1.125  52.126  1.00  0.00     0.014 A 
HETATM   15  C19 UNL     1      25.203   1.479  52.682  1.00  0.00    -0.008 A 
HETATM   16  C20 UNL     1      24.810   2.930  52.562  1.00  0.00     0.010 C 
HETATM   17  C21 UNL     1      23.769   3.485  52.002  1.00  0.00    -0.014 C 
ENDROOT
BRANCH   1  18
HETATM   18  C2  UNL     1      20.879   4.605  50.201  1.00  0.00     0.030 C 
BRANCH  18  19
HETATM   19  C1  UNL     1      19.542   4.344  49.628  1.00  0.00     0.272 C 
BRANCH  19  20
HETATM   20  N1  UNL     1      18.532   4.265  50.733  1.00  0.00     0.078 N 
HETATM   21  H1  UNL     1      18.360   3.300  51.031  1.00  0.00     0.312 HD
HETATM   22  H2  UNL     1      18.941   4.860  51.519  1.00  0.00     0.312 HD
ENDBRANCH  19  20
ENDBRANCH  18  19
ENDBRANCH   1  18
BRANCH   1  23
HETATM   23  C4  UNL     1      21.978   5.324  51.692  1.00  0.00     0.022 C 
BRANCH  23  24
HETATM   24  C5  UNL     1      22.367   6.495  50.779  1.00  0.00     0.111 C 
BRANCH  24  25
HETATM   25  C6  UNL     1      23.789   6.828  51.102  1.00  0.00     0.139 C 
HETATM   26  O1  UNL     1      24.346   6.790  49.928  1.00  0.00    -0.650 OA
BRANCH  25  27
HETATM   27  O2  UNL     1      25.111   7.131  51.350  1.00  0.00    -0.776 OA
HETATM   28  H10 UNL     1      25.857   6.448  51.163  1.00  0.00     0.167 HD
ENDBRANCH  25  27
ENDBRANCH  24  25
ENDBRANCH  23  24
ENDBRANCH   1  23
TORSDOF 7
ENDMDL
MODEL 9
REMARK VINA RESULT:      -6.9      7.569     10.739
REMARK  7 active torsions:
REMARK  status: ('A' for Active; 'I' for Inactive)
REMARK    1  A    between atoms: N1_1  and  C1_2 
REMARK    2  A    between atoms: C1_2  and  C2_3 
REMARK    3  A    between atoms: C2_3  and  C3_4 
REMARK    4  A    between atoms: C3_4  and  C4_5 
REMARK    5  A    between atoms: C4_5  and  C5_6 
REMARK    6  A    between atoms: C5_6  and  C6_7 
REMARK    7  A    between atoms: C6_7  and  O2_9 
ROOT
HETATM    1  C3  UNL     1      32.683   5.985  45.945  1.00  0.00    -0.017 A 
HETATM    2  C7  UNL     1      31.388   6.577  46.489  1.00  0.00     0.002 A 
HETATM    3  C8  UNL     1      31.842   7.235  45.479  1.00  0.00     0.010 A 
HETATM    4  C9  UNL     1      30.816   8.378  45.277  1.00  0.00     0.006 C 
HETATM    5  C10 UNL     1      31.510   9.700  45.235  1.00  0.00     0.001 C 
HETATM    6  C11 UNL     1      32.396   9.955  46.411  1.00  0.00     0.005 C 
HETATM    7  C12 UNL     1      31.641  10.386  47.623  1.00  0.00     0.047 C 
HETATM    8  C13 UNL     1      30.525   9.510  47.909  1.00  0.00     0.090 C 
HETATM    9  N2  UNL     1      30.282   8.449  48.625  1.00  0.00    -0.264 NA
HETATM   10  C14 UNL     1      28.950   7.924  48.569  1.00  0.00     0.066 A 
HETATM   11  C15 UNL     1      27.727   8.627  48.584  1.00  0.00     0.032 A 
HETATM   12  C16 UNL     1      26.522   7.988  48.462  1.00  0.00     0.002 A 
HETATM   13  C17 UNL     1      26.484   6.630  48.307  1.00  0.00     0.001 A 
HETATM   14  C18 UNL     1      27.682   5.929  48.291  1.00  0.00     0.014 A 
HETATM   15  C19 UNL     1      28.955   6.557  48.425  1.00  0.00    -0.008 A 
HETATM   16  C20 UNL     1      30.155   5.647  48.344  1.00  0.00     0.010 C 
HETATM   17  C21 UNL     1      31.177   5.660  47.531  1.00  0.00    -0.014 C 
ENDROOT
BRANCH   1  18
HETATM   18  C2  UNL     1      33.698   5.941  44.999  1.00  0.00     0.030 C 
BRANCH  18  19
HETATM   19  C1  UNL     1      34.368   5.070  44.011  1.00  0.00     0.272 C 
BRANCH  19  20
HETATM   20  N1  UNL     1      35.488   5.823  43.359  1.00  0.00     0.078 N 
HETATM   21  H1  UNL     1      36.402   5.561  43.739  1.00  0.00     0.312 HD
HETATM   22  H2  UNL     1      35.404   5.592  42.320  1.00  0.00     0.312 HD
ENDBRANCH  19  20
ENDBRANCH  18  19
ENDBRANCH   1  18
BRANCH   1  23
HETATM   23  C4  UNL     1      33.628   5.206  46.844  1.00  0.00     0.022 C 
BRANCH  23  24
HETATM   24  C5  UNL     1      34.606   6.153  47.551  1.00  0.00     0.111 C 
BRANCH  24  25
HETATM   25  C6  UNL     1      35.082   5.434  48.773  1.00  0.00     0.139 C 
HETATM   26  O1  UNL     1      36.017   6.228  49.203  1.00  0.00    -0.650 OA
BRANCH  25  27
HETATM   27  O2  UNL     1      35.555   4.809  49.907  1.00  0.00    -0.776 OA
HETATM   28  H10 UNL     1      35.037   4.035  50.343  1.00  0.00     0.167 HD
ENDBRANCH  25  27
ENDBRANCH  24  25
ENDBRANCH  23  24
ENDBRANCH   1  23
TORSDOF 7
ENDMDL
