MODEL 1
REMARK VINA RESULT:      -9.8      0.000      0.000
REMARK  0 active torsions:
REMARK  status: ('A' for Active; 'I' for Inactive)
ROOT
HETATM    1  C1  UNL     1      27.189   4.546  48.892  1.00  0.00     0.014 C 
HETATM    2  C2  UNL     1      25.872   4.025  49.390  1.00  0.00     0.023 C 
HETATM    3  C3  UNL     1      24.819   5.096  49.187  1.00  0.00     0.120 C 
HETATM    4  N1  UNL     1      23.543   4.710  49.645  1.00  0.00    -0.414 N 
HETATM    5  C4  UNL     1      22.519   5.661  49.510  1.00  0.00     0.198 C 
HETATM    6  C5  UNL     1      21.207   5.211  50.024  1.00  0.00     0.183 C 
HETATM    7  O1  UNL     1      20.369   6.140  49.885  1.00  0.00    -0.290 OA
HETATM    8  C6  UNL     1      20.772   3.986  50.608  1.00  0.00     0.055 A 
HETATM    9  C7  UNL     1      21.275   3.075  51.625  1.00  0.00     0.041 A 
HETATM   10  C8  UNL     1      20.473   2.018  51.828  1.00  0.00     0.054 A 
HETATM   11  C9  UNL     1      20.859   1.101  52.772  1.00  0.00     0.186 A 
HETATM   12  N2  UNL     1      20.060   0.049  52.975  1.00  0.00    -0.217 NA
HETATM   13  C10 UNL     1      18.906  -0.220  52.354  1.00  0.00     0.237 A 
HETATM   14  N3  UNL     1      18.571   0.708  51.440  1.00  0.00    -0.234 NA
HETATM   15  C11 UNL     1      19.332   1.773  51.199  1.00  0.00     0.114 A 
HETATM   16  S1  UNL     1      19.166   3.128  50.096  1.00  0.00    -0.066 SA
HETATM   17  O2  UNL     1      21.974   1.039  53.606  1.00  0.00    -0.264 OA
HETATM   18  C12 UNL     1      22.542  -0.148  54.013  1.00  0.00     0.228 C 
HETATM   19  F1  UNL     1      21.524  -0.903  54.488  1.00  0.00    -0.178 F 
HETATM   20  C13 UNL     1      23.635  -0.848  54.136  1.00  0.00     0.052 C 
HETATM   21  C14 UNL     1      25.061  -0.961  53.961  1.00  0.00     0.049 C 
HETATM   22  C15 UNL     1      26.245  -0.590  53.625  1.00  0.00     0.006 C 
HETATM   23  C16 UNL     1      27.536  -0.074  53.213  1.00  0.00     0.029 C 
HETATM   24 CL1  UNL     1      28.924  -1.119  53.430  1.00  0.00    -0.085 Cl
HETATM   25  C17 UNL     1      27.747   1.123  52.687  1.00  0.00     0.022 C 
HETATM   26  C18 UNL     1      26.853   2.255  52.359  1.00  0.00     0.196 C 
HETATM   27  O3  UNL     1      26.890   2.563  50.975  1.00  0.00    -0.387 OA
HETATM   28  C19 UNL     1      25.982   3.595  50.806  1.00  0.00     0.173 C 
HETATM   29  H7  UNL     1      23.389   3.815  50.072  1.00  0.00     0.153 HD
ENDROOT
TORSDOF 0
ENDMDL
MODEL 2
REMARK VINA RESULT:      -9.4      1.134      1.261
REMARK  0 active torsions:
REMARK  status: ('A' for Active; 'I' for Inactive)
ROOT
HETATM    1  C1  UNL     1      25.863   4.643  49.260  1.00  0.00     0.014 C 
HETATM    2  C2  UNL     1      24.639   3.934  49.763  1.00  0.00     0.023 C 
HETATM    3  C3  UNL     1      23.429   4.807  49.496  1.00  0.00     0.120 C 
HETATM    4  N1  UNL     1      22.224   4.236  49.952  1.00  0.00    -0.414 N 
HETATM    5  C4  UNL     1      21.061   4.998  49.759  1.00  0.00     0.198 C 
HETATM    6  C5  UNL     1      19.829   4.361  50.274  1.00  0.00     0.183 C 
HETATM    7  O1  UNL     1      18.854   5.133  50.080  1.00  0.00    -0.290 OA
HETATM    8  C6  UNL     1      19.589   3.108  50.909  1.00  0.00     0.055 A 
HETATM    9  C7  UNL     1      20.212   2.338  51.975  1.00  0.00     0.041 A 
HETATM   10  C8  UNL     1      19.590   1.173  52.215  1.00  0.00     0.054 A 
HETATM   11  C9  UNL     1      20.101   0.375  53.207  1.00  0.00     0.186 A 
HETATM   12  N2  UNL     1      19.481  -0.785  53.446  1.00  0.00    -0.217 NA
HETATM   13  C10 UNL     1      18.401  -1.267  52.823  1.00  0.00     0.237 A 
HETATM   14  N3  UNL     1      17.938  -0.449  51.862  1.00  0.00    -0.234 NA
HETATM   15  C11 UNL     1      18.520   0.716  51.582  1.00  0.00     0.114 A 
HETATM   16  S1  UNL     1      18.157   1.975  50.414  1.00  0.00    -0.066 SA
HETATM   17  O2  UNL     1      21.192   0.533  54.058  1.00  0.00    -0.264 OA
HETATM   18  C12 UNL     1      21.938  -0.524  54.528  1.00  0.00     0.228 C 
HETATM   19  F1  UNL     1      21.049  -1.416  55.024  1.00  0.00    -0.178 F 
HETATM   20  C13 UNL     1      23.129  -1.029  54.699  1.00  0.00     0.052 C 
HETATM   21  C14 UNL     1      24.558  -0.913  54.551  1.00  0.00     0.049 C 
HETATM   22  C15 UNL     1      25.672  -0.366  54.214  1.00  0.00     0.006 C 
HETATM   23  C16 UNL     1      26.869   0.337  53.797  1.00  0.00     0.029 C 
HETATM   24 CL1  UNL     1      28.404  -0.455  54.083  1.00  0.00    -0.085 Cl
HETATM   25  C17 UNL     1      26.892   1.528  53.219  1.00  0.00     0.022 C 
HETATM   26  C18 UNL     1      25.832   2.482  52.825  1.00  0.00     0.196 C 
HETATM   27  O3  UNL     1      25.848   2.731  51.429  1.00  0.00    -0.387 OA
HETATM   28  C19 UNL     1      24.787   3.591  51.199  1.00  0.00     0.173 C 
HETATM   29  H7  UNL     1      22.210   3.348  50.419  1.00  0.00     0.153 HD
ENDROOT
TORSDOF 0
ENDMDL
MODEL 3
REMARK VINA RESULT:      -9.1      3.103      5.836
REMARK  0 active torsions:
REMARK  status: ('A' for Active; 'I' for Inactive)
ROOT
HETATM    1  C1  UNL     1      28.308   1.569  53.083  1.00  0.00     0.014 C 
HETATM    2  C2  UNL     1      26.835   1.724  52.835  1.00  0.00     0.023 C 
HETATM    3  C3  UNL     1      26.131   0.461  53.290  1.00  0.00     0.120 C 
HETATM    4  N1  UNL     1      24.738   0.499  53.080  1.00  0.00    -0.414 N 
HETATM    5  C4  UNL     1      24.020  -0.648  53.457  1.00  0.00     0.198 C 
HETATM    6  C5  UNL     1      22.567  -0.562  53.196  1.00  0.00     0.183 C 
HETATM    7  O1  UNL     1      22.021  -1.643  53.540  1.00  0.00    -0.290 OA
HETATM    8  C6  UNL     1      21.746   0.472  52.658  1.00  0.00     0.055 A 
HETATM    9  C7  UNL     1      21.816   1.379  51.522  1.00  0.00     0.041 A 
HETATM   10  C8  UNL     1      20.757   2.198  51.438  1.00  0.00     0.054 A 
HETATM   11  C9  UNL     1      20.728   3.091  50.396  1.00  0.00     0.186 A 
HETATM   12  N2  UNL     1      19.672   3.907  50.312  1.00  0.00    -0.217 NA
HETATM   13  C10 UNL     1      18.621   3.956  51.138  1.00  0.00     0.237 A 
HETATM   14  N3  UNL     1      18.696   3.063  52.140  1.00  0.00    -0.234 NA
HETATM   15  C11 UNL     1      19.726   2.229  52.270  1.00  0.00     0.114 A 
HETATM   16  S1  UNL     1      20.101   0.977  53.442  1.00  0.00    -0.066 SA
HETATM   17  O2  UNL     1      21.621   3.334  49.355  1.00  0.00    -0.264 OA
HETATM   18  C12 UNL     1      21.797   4.578  48.792  1.00  0.00     0.228 C 
HETATM   19  F1  UNL     1      20.557   5.032  48.497  1.00  0.00    -0.178 F 
HETATM   20  C13 UNL     1      22.644   5.499  48.424  1.00  0.00     0.052 C 
HETATM   21  C14 UNL     1      24.007   5.954  48.305  1.00  0.00     0.049 C 
HETATM   22  C15 UNL     1      25.287   5.898  48.414  1.00  0.00     0.006 C 
HETATM   23  C16 UNL     1      26.717   5.735  48.582  1.00  0.00     0.029 C 
HETATM   24 CL1  UNL     1      27.743   7.049  48.048  1.00  0.00    -0.085 Cl
HETATM   25  C17 UNL     1      27.307   4.672  49.107  1.00  0.00     0.022 C 
HETATM   26  C18 UNL     1      26.793   3.397  49.656  1.00  0.00     0.196 C 
HETATM   27  O3  UNL     1      27.156   3.232  51.017  1.00  0.00    -0.387 OA
HETATM   28  C19 UNL     1      26.576   2.038  51.408  1.00  0.00     0.173 C 
HETATM   29  H7  UNL     1      24.295   1.291  52.653  1.00  0.00     0.153 HD
ENDROOT
TORSDOF 0
ENDMDL
MODEL 4
REMARK VINA RESULT:      -9.1      3.655      6.389
REMARK  0 active torsions:
REMARK  status: ('A' for Active; 'I' for Inactive)
ROOT
HETATM    1  C1  UNL     1      20.435   4.960  48.851  1.00  0.00     0.014 C 
HETATM    2  C2  UNL     1      21.359   4.181  49.742  1.00  0.00     0.023 C 
HETATM    3  C3  UNL     1      22.778   4.352  49.238  1.00  0.00     0.120 C 
HETATM    4  N1  UNL     1      23.725   3.638  50.000  1.00  0.00    -0.414 N 
HETATM    5  C4  UNL     1      25.061   3.730  49.579  1.00  0.00     0.198 C 
HETATM    6  C5  UNL     1      26.009   2.946  50.401  1.00  0.00     0.183 C 
HETATM    7  O1  UNL     1      27.168   3.071  49.926  1.00  0.00    -0.290 OA
HETATM    8  C6  UNL     1      25.832   2.133  51.558  1.00  0.00     0.055 A 
HETATM    9  C7  UNL     1      24.899   1.098  51.977  1.00  0.00     0.041 A 
HETATM   10  C8  UNL     1      25.161   0.618  53.203  1.00  0.00     0.054 A 
HETATM   11  C9  UNL     1      24.338  -0.366  53.687  1.00  0.00     0.186 A 
HETATM   12  N2  UNL     1      24.600  -0.844  54.908  1.00  0.00    -0.217 NA
HETATM   13  C10 UNL     1      25.588  -0.469  55.728  1.00  0.00     0.237 A 
HETATM   14  N3  UNL     1      26.366   0.496  55.207  1.00  0.00    -0.234 NA
HETATM   15  C11 UNL     1      26.148   1.007  53.997  1.00  0.00     0.114 A 
HETATM   16  S1  UNL     1      26.971   2.245  53.064  1.00  0.00    -0.066 SA
HETATM   17  O2  UNL     1      23.226  -1.002  53.139  1.00  0.00    -0.264 OA
HETATM   18  C12 UNL     1      22.177  -1.469  53.899  1.00  0.00     0.228 C 
HETATM   19  F1  UNL     1      22.734  -2.209  54.887  1.00  0.00    -0.178 F 
HETATM   20  C13 UNL     1      20.885  -1.503  54.071  1.00  0.00     0.052 C 
HETATM   21  C14 UNL     1      19.566  -1.110  53.642  1.00  0.00     0.049 C 
HETATM   22  C15 UNL     1      18.685  -0.532  52.906  1.00  0.00     0.006 C 
HETATM   23  C16 UNL     1      17.775   0.158  52.013  1.00  0.00     0.029 C 
HETATM   24 CL1  UNL     1      16.063   0.033  52.359  1.00  0.00    -0.085 Cl
HETATM   25  C17 UNL     1      18.136   0.873  50.959  1.00  0.00     0.022 C 
HETATM   26  C18 UNL     1      19.449   1.202  50.361  1.00  0.00     0.196 C 
HETATM   27  O3  UNL     1      19.677   2.601  50.341  1.00  0.00    -0.387 OA
HETATM   28  C19 UNL     1      20.945   2.758  49.807  1.00  0.00     0.173 C 
HETATM   29  H7  UNL     1      23.448   3.070  50.780  1.00  0.00     0.153 HD
ENDROOT
TORSDOF 0
ENDMDL
MODEL 5
REMARK VINA RESULT:      -9.0      2.468      5.605
REMARK  0 active torsions:
REMARK  status: ('A' for Active; 'I' for Inactive)
ROOT
HETATM    1  C1  UNL     1      22.290  -1.915  55.333  1.00  0.00     0.014 C 
HETATM    2  C2  UNL     1      22.005  -0.817  54.350  1.00  0.00     0.023 C 
HETATM    3  C3  UNL     1      20.612  -1.019  53.787  1.00  0.00     0.120 C 
HETATM    4  N1  UNL     1      20.255  -0.044  52.833  1.00  0.00    -0.414 N 
HETATM    5  C4  UNL     1      18.984  -0.180  52.251  1.00  0.00     0.198 C 
HETATM    6  C5  UNL     1      18.669   0.856  51.243  1.00  0.00     0.183 C 
HETATM    7  O1  UNL     1      17.528   0.631  50.762  1.00  0.00    -0.290 OA
HETATM    8  C6  UNL     1      19.398   1.984  50.765  1.00  0.00     0.055 A 
HETATM    9  C7  UNL     1      20.763   2.243  50.333  1.00  0.00     0.041 A 
HETATM   10  C8  UNL     1      20.965   3.516  49.960  1.00  0.00     0.054 A 
HETATM   11  C9  UNL     1      22.222   3.859  49.533  1.00  0.00     0.186 A 
HETATM   12  N2  UNL     1      22.422   5.128  49.160  1.00  0.00    -0.217 NA
HETATM   13  C10 UNL     1      21.525   6.119  49.154  1.00  0.00     0.237 A 
HETATM   14  N3  UNL     1      20.310   5.733  49.580  1.00  0.00    -0.234 NA
HETATM   15  C11 UNL     1      20.058   4.483  49.963  1.00  0.00     0.114 A 
HETATM   16  S1  UNL     1      18.607   3.690  50.552  1.00  0.00    -0.066 SA
HETATM   17  O2  UNL     1      23.394   3.118  49.402  1.00  0.00    -0.264 OA
HETATM   18  C12 UNL     1      24.649   3.660  49.570  1.00  0.00     0.228 C 
HETATM   19  F1  UNL     1      24.679   4.774  48.802  1.00  0.00    -0.178 F 
HETATM   20  C13 UNL     1      25.812   3.559  50.150  1.00  0.00     0.052 C 
HETATM   21  C14 UNL     1      26.698   2.846  51.036  1.00  0.00     0.049 C 
HETATM   22  C15 UNL     1      27.067   1.916  51.844  1.00  0.00     0.006 C 
HETATM   23  C16 UNL     1      27.382   0.823  52.743  1.00  0.00     0.029 C 
HETATM   24 CL1  UNL     1      28.981   0.807  53.457  1.00  0.00    -0.085 Cl
HETATM   25  C17 UNL     1      26.558  -0.162  53.065  1.00  0.00     0.022 C 
HETATM   26  C18 UNL     1      25.167  -0.484  52.677  1.00  0.00     0.196 C 
HETATM   27  O3  UNL     1      24.306  -0.517  53.803  1.00  0.00    -0.387 OA
HETATM   28  C19 UNL     1      23.046  -0.779  53.293  1.00  0.00     0.173 C 
HETATM   29  H7  UNL     1      20.891   0.684  52.566  1.00  0.00     0.153 HD
ENDROOT
TORSDOF 0
ENDMDL
MODEL 6
REMARK VINA RESULT:      -8.9      4.064      8.247
REMARK  0 active torsions:
REMARK  status: ('A' for Active; 'I' for Inactive)
ROOT
HETATM    1  C1  UNL     1      16.957  -0.417  51.712  1.00  0.00     0.014 C 
HETATM    2  C2  UNL     1      18.421  -0.108  51.826  1.00  0.00     0.023 C 
HETATM    3  C3  UNL     1      18.983  -0.856  53.019  1.00  0.00     0.120 C 
HETATM    4  N1  UNL     1      20.357  -0.614  53.225  1.00  0.00    -0.414 N 
HETATM    5  C4  UNL     1      20.943  -1.258  54.327  1.00  0.00     0.198 C 
HETATM    6  C5  UNL     1      22.379  -0.953  54.509  1.00  0.00     0.183 C 
HETATM    7  O1  UNL     1      22.801  -1.550  55.534  1.00  0.00    -0.290 OA
HETATM    8  C6  UNL     1      23.293  -0.151  53.766  1.00  0.00     0.055 A 
HETATM    9  C7  UNL     1      23.277   1.177  53.171  1.00  0.00     0.041 A 
HETATM   10  C8  UNL     1      24.425   1.490  52.552  1.00  0.00     0.054 A 
HETATM   11  C9  UNL     1      24.510   2.725  51.962  1.00  0.00     0.186 A 
HETATM   12  N2  UNL     1      25.654   3.038  51.345  1.00  0.00    -0.217 NA
HETATM   13  C10 UNL     1      26.747   2.274  51.234  1.00  0.00     0.237 A 
HETATM   14  N3  UNL     1      26.614   1.075  51.829  1.00  0.00    -0.234 NA
HETATM   15  C11 UNL     1      25.495   0.715  52.455  1.00  0.00     0.114 A 
HETATM   16  S1  UNL     1      25.030  -0.746  53.309  1.00  0.00    -0.066 SA
HETATM   17  O2  UNL     1      23.599   3.775  51.868  1.00  0.00    -0.264 OA
HETATM   18  C12 UNL     1      23.551   4.634  50.792  1.00  0.00     0.228 C 
HETATM   19  F1  UNL     1      24.821   5.062  50.601  1.00  0.00    -0.178 F 
HETATM   20  C13 UNL     1      22.809   5.208  49.887  1.00  0.00     0.052 C 
HETATM   21  C14 UNL     1      21.511   5.412  49.294  1.00  0.00     0.049 C 
HETATM   22  C15 UNL     1      20.242   5.265  49.145  1.00  0.00     0.006 C 
HETATM   23  C16 UNL     1      18.814   5.031  49.065  1.00  0.00     0.029 C 
HETATM   24 CL1  UNL     1      17.935   5.862  47.799  1.00  0.00    -0.085 Cl
HETATM   25  C17 UNL     1      18.123   4.239  49.871  1.00  0.00     0.022 C 
HETATM   26  C18 UNL     1      18.502   3.393  51.025  1.00  0.00     0.196 C 
HETATM   27  O3  UNL     1      18.195   2.029  50.792  1.00  0.00    -0.387 OA
HETATM   28  C19 UNL     1      18.640   1.357  51.919  1.00  0.00     0.173 C 
HETATM   29  H7  UNL     1      20.873   0.010  52.634  1.00  0.00     0.153 HD
ENDROOT
TORSDOF 0
ENDMDL
MODEL 7
REMARK VINA RESULT:      -8.9      2.684      4.419
REMARK  0 active torsions:
REMARK  status: ('A' for Active; 'I' for Inactive)
ROOT
HETATM    1  C1  UNL     1      21.141   6.335  46.841  1.00  0.00     0.014 C 
HETATM    2  C2  UNL     1      21.120   5.295  47.923  1.00  0.00     0.023 C 
HETATM    3  C3  UNL     1      19.759   5.319  48.591  1.00  0.00     0.120 C 
HETATM    4  N1  UNL     1      19.644   4.387  49.643  1.00  0.00    -0.414 N 
HETATM    5  C4  UNL     1      18.416   4.366  50.324  1.00  0.00     0.198 C 
HETATM    6  C5  UNL     1      18.357   3.385  51.430  1.00  0.00     0.183 C 
HETATM    7  O1  UNL     1      17.233   3.465  51.993  1.00  0.00    -0.290 OA
HETATM    8  C6  UNL     1      19.298   2.435  51.923  1.00  0.00     0.055 A 
HETATM    9  C7  UNL     1      20.716   2.439  52.250  1.00  0.00     0.041 A 
HETATM   10  C8  UNL     1      21.156   1.253  52.697  1.00  0.00     0.054 A 
HETATM   11  C9  UNL     1      22.482   1.156  53.035  1.00  0.00     0.186 A 
HETATM   12  N2  UNL     1      22.920  -0.026  53.481  1.00  0.00    -0.217 NA
HETATM   13  C10 UNL     1      22.205  -1.145  53.640  1.00  0.00     0.237 A 
HETATM   14  N3  UNL     1      20.913  -0.998  53.297  1.00  0.00    -0.234 NA
HETATM   15  C11 UNL     1      20.427   0.156  52.846  1.00  0.00     0.114 A 
HETATM   16  S1  UNL     1      18.823   0.650  52.331  1.00  0.00    -0.066 SA
HETATM   17  O2  UNL     1      23.519   2.085  53.005  1.00  0.00    -0.264 OA
HETATM   18  C12 UNL     1      24.831   1.739  52.767  1.00  0.00     0.228 C 
HETATM   19  F1  UNL     1      25.106   0.717  53.610  1.00  0.00    -0.178 F 
HETATM   20  C13 UNL     1      25.914   1.976  52.080  1.00  0.00     0.052 C 
HETATM   21  C14 UNL     1      26.598   2.742  51.069  1.00  0.00     0.049 C 
HETATM   22  C15 UNL     1      26.743   3.645  50.164  1.00  0.00     0.006 C 
HETATM   23  C16 UNL     1      26.802   4.691  49.163  1.00  0.00     0.029 C 
HETATM   24 CL1  UNL     1      28.316   4.903  48.311  1.00  0.00    -0.085 Cl
HETATM   25  C17 UNL     1      25.802   5.498  48.843  1.00  0.00     0.022 C 
HETATM   26  C18 UNL     1      24.409   5.625  49.329  1.00  0.00     0.196 C 
HETATM   27  O3  UNL     1      23.473   5.419  48.284  1.00  0.00    -0.387 OA
HETATM   28  C19 UNL     1      22.229   5.519  48.884  1.00  0.00     0.173 C 
HETATM   29  H7  UNL     1      20.411   3.797  49.906  1.00  0.00     0.153 HD
ENDROOT
TORSDOF 0
ENDMDL
MODEL 8
REMARK VINA RESULT:      -8.4      2.820      6.026
REMARK  0 active torsions:
REMARK  status: ('A' for Active; 'I' for Inactive)
ROOT
HETATM    1  C1  UNL     1      18.208   0.190  51.971  1.00  0.00     0.014 C 
HETATM    2  C2  UNL     1      19.240   1.106  51.378  1.00  0.00     0.023 C 
HETATM    3  C3  UNL     1      18.754   1.569  50.019  1.00  0.00     0.120 C 
HETATM    4  N1  UNL     1      19.667   2.422  49.367  1.00  0.00    -0.414 N 
HETATM    5  C4  UNL     1      19.294   2.876  48.092  1.00  0.00     0.198 C 
HETATM    6  C5  UNL     1      20.297   3.750  47.445  1.00  0.00     0.183 C 
HETATM    7  O1  UNL     1      19.884   4.077  46.302  1.00  0.00    -0.290 OA
HETATM    8  C6  UNL     1      21.561   4.245  47.878  1.00  0.00     0.055 A 
HETATM    9  C7  UNL     1      22.739   3.687  48.526  1.00  0.00     0.041 A 
HETATM   10  C8  UNL     1      23.707   4.593  48.730  1.00  0.00     0.054 A 
HETATM   11  C9  UNL     1      24.861   4.162  49.334  1.00  0.00     0.186 A 
HETATM   12  N2  UNL     1      25.826   5.065  49.536  1.00  0.00    -0.217 NA
HETATM   13  C10 UNL     1      25.799   6.362  49.214  1.00  0.00     0.237 A 
HETATM   14  N3  UNL     1      24.648   6.735  48.625  1.00  0.00    -0.234 NA
HETATM   15  C11 UNL     1      23.656   5.876  48.402  1.00  0.00     0.114 A 
HETATM   16  S1  UNL     1      22.071   6.055  47.668  1.00  0.00    -0.066 SA
HETATM   17  O2  UNL     1      25.253   2.910  49.804  1.00  0.00    -0.264 OA
HETATM   18  C12 UNL     1      26.092   2.742  50.882  1.00  0.00     0.228 C 
HETATM   19  F1  UNL     1      27.160   3.541  50.651  1.00  0.00    -0.178 F 
HETATM   20  C13 UNL     1      26.296   2.145  52.024  1.00  0.00     0.052 C 
HETATM   21  C14 UNL     1      25.847   1.226  53.039  1.00  0.00     0.049 C 
HETATM   22  C15 UNL     1      25.061   0.381  53.607  1.00  0.00     0.006 C 
HETATM   23  C16 UNL     1      24.106  -0.559  54.160  1.00  0.00     0.029 C 
HETATM   24 CL1  UNL     1      24.500  -1.289  55.702  1.00  0.00    -0.085 Cl
HETATM   25  C17 UNL     1      22.962  -0.908  53.592  1.00  0.00     0.022 C 
HETATM   26  C18 UNL     1      22.301  -0.519  52.326  1.00  0.00     0.196 C 
HETATM   27  O3  UNL     1      21.036   0.078  52.562  1.00  0.00    -0.387 OA
HETATM   28  C19 UNL     1      20.560   0.431  51.311  1.00  0.00     0.173 C 
HETATM   29  H7  UNL     1      20.548   2.662  49.784  1.00  0.00     0.153 HD
ENDROOT
TORSDOF 0
ENDMDL
MODEL 9
REMARK VINA RESULT:      -8.0      4.202      8.456
REMARK  0 active torsions:
REMARK  status: ('A' for Active; 'I' for Inactive)
ROOT
HETATM    1  C1  UNL     1      18.608  -0.502  52.243  1.00  0.00     0.014 C 
HETATM    2  C2  UNL     1      19.896   0.206  51.938  1.00  0.00     0.023 C 
HETATM    3  C3  UNL     1      20.948  -0.254  52.927  1.00  0.00     0.120 C 
HETATM    4  N1  UNL     1      22.197   0.372  52.736  1.00  0.00    -0.414 N 
HETATM    5  C4  UNL     1      23.218   0.010  53.630  1.00  0.00     0.198 C 
HETATM    6  C5  UNL     1      24.499   0.712  53.398  1.00  0.00     0.183 C 
HETATM    7  O1  UNL     1      25.334   0.343  54.265  1.00  0.00    -0.290 OA
HETATM    8  C6  UNL     1      24.908   1.667  52.423  1.00  0.00     0.055 A 
HETATM    9  C7  UNL     1      24.352   2.884  51.851  1.00  0.00     0.041 A 
HETATM   10  C8  UNL     1      25.150   3.447  50.931  1.00  0.00     0.054 A 
HETATM   11  C9  UNL     1      24.714   4.603  50.335  1.00  0.00     0.186 A 
HETATM   12  N2  UNL     1      25.510   5.163  49.419  1.00  0.00    -0.217 NA
HETATM   13  C10 UNL     1      26.704   4.722  49.008  1.00  0.00     0.237 A 
HETATM   14  N3  UNL     1      27.087   3.588  49.621  1.00  0.00    -0.234 NA
HETATM   15  C11 UNL     1      26.331   2.990  50.539  1.00  0.00     0.114 A 
HETATM   16  S1  UNL     1      26.553   1.535  51.497  1.00  0.00    -0.066 SA
HETATM   17  O2  UNL     1      23.550   5.350  50.498  1.00  0.00    -0.264 OA
HETATM   18  C12 UNL     1      22.969   6.068  49.476  1.00  0.00     0.228 C 
HETATM   19  F1  UNL     1      23.962   6.810  48.932  1.00  0.00    -0.178 F 
HETATM   20  C13 UNL     1      21.878   6.337  48.814  1.00  0.00     0.052 C 
HETATM   21  C14 UNL     1      20.467   6.124  48.611  1.00  0.00     0.049 C 
HETATM   22  C15 UNL     1      19.303   5.623  48.828  1.00  0.00     0.006 C 
HETATM   23  C16 UNL     1      18.036   5.000  49.155  1.00  0.00     0.029 C 
HETATM   24 CL1  UNL     1      16.648   5.447  48.186  1.00  0.00    -0.085 Cl
HETATM   25  C17 UNL     1      17.846   4.121  50.127  1.00  0.00     0.022 C 
HETATM   26  C18 UNL     1      18.747   3.513  51.131  1.00  0.00     0.196 C 
HETATM   27  O3  UNL     1      18.795   2.102  51.001  1.00  0.00    -0.387 OA
HETATM   28  C19 UNL     1      19.700   1.677  51.959  1.00  0.00     0.173 C 
HETATM   29  H7  UNL     1      22.332   1.061  52.020  1.00  0.00     0.153 HD
ENDROOT
TORSDOF 0
ENDMDL
