MODEL 1
REMARK VINA RESULT:      -7.6      0.000      0.000
REMARK  8 active torsions:
REMARK  status: ('A' for Active; 'I' for Inactive)
REMARK    1  A    between atoms: N1_1  and  C1_2 
REMARK    2  A    between atoms: C1_2  and  C2_3 
REMARK    3  A    between atoms: C1_2  and  C6_8 
REMARK    4  A    between atoms: C2_3  and  C3_4 
REMARK    5  A    between atoms: C3_4  and  C4_5 
REMARK    6  A    between atoms: C4_5  and  C5_6 
REMARK    7  A    between atoms: C6_8  and  O2_9 
REMARK    8  A    between atoms: O2_9  and  C7_10 
ROOT
HETATM    1  C7  UNL     1      23.538   0.736  52.479  1.00  0.00     0.055 C 
HETATM    2  C8  UNL     1      22.829  -0.115  53.246  1.00  0.00     0.079 A 
HETATM    3  C9  UNL     1      23.236  -0.961  54.361  1.00  0.00    -0.014 A 
HETATM    4  C10 UNL     1      22.123  -1.607  54.763  1.00  0.00    -0.003 A 
HETATM    5  O3  UNL     1      21.559  -0.884  53.739  1.00  0.00     0.000 OA
HETATM    6  C11 UNL     1      20.551   0.051  53.973  1.00  0.00     0.043 C 
HETATM    7  C12 UNL     1      19.626   0.040  52.784  1.00  0.00    -0.052 A 
HETATM    8  C13 UNL     1      19.885   0.531  51.593  1.00  0.00    -0.051 A 
HETATM    9  C14 UNL     1      21.164   1.188  51.232  1.00  0.00     0.010 C 
HETATM   10  C15 UNL     1      22.435   1.210  51.597  1.00  0.00     0.033 C 
HETATM   11  C16 UNL     1      18.920   0.468  50.487  1.00  0.00     0.043 A 
HETATM   12  C17 UNL     1      17.639  -0.232  50.749  1.00  0.00     0.032 A 
HETATM   13  C18 UNL     1      17.475  -0.732  52.124  1.00  0.00    -0.026 A 
HETATM   14  C19 UNL     1      18.370  -0.622  53.082  1.00  0.00     0.004 A 
ENDROOT
BRANCH   1  15
HETATM   15  O2  UNL     1      24.795   1.340  52.167  1.00  0.00    -0.353 OA
BRANCH  15  16
HETATM   16  C6  UNL     1      26.008   0.715  52.540  1.00  0.00     0.210 C 
BRANCH  16  17
HETATM   17  C1  UNL     1      26.344   1.173  53.943  1.00  0.00     0.242 C 
BRANCH  17  18
HETATM   18  N1  UNL     1      26.897   2.506  53.902  1.00  0.00     0.085 N 
HETATM   19  H1  UNL     1      27.043   2.860  52.932  1.00  0.00     0.313 HD
HETATM   20  H2  UNL     1      26.328   3.220  54.409  1.00  0.00     0.313 HD
ENDBRANCH  17  18
BRANCH  17  21
HETATM   21  C2  UNL     1      27.177   0.187  54.665  1.00  0.00     0.041 C 
BRANCH  21  22
HETATM   22  C3  UNL     1      28.645   0.504  54.694  1.00  0.00     0.033 C 
BRANCH  22  23
HETATM   23  C4  UNL     1      29.435  -0.299  53.748  1.00  0.00     0.032 C 
BRANCH  23  24
HETATM   24  C5  UNL     1      29.085  -1.540  53.479  1.00  0.00     0.217 C 
HETATM   25  O1  UNL     1      29.052  -2.785  53.337  1.00  0.00    -0.284 OA
ENDBRANCH  23  24
ENDBRANCH  22  23
ENDBRANCH  21  22
ENDBRANCH  17  21
ENDBRANCH  16  17
ENDBRANCH  15  16
ENDBRANCH   1  15
TORSDOF 8
ENDMDL
MODEL 2
REMARK VINA RESULT:      -7.3      4.074      5.370
REMARK  8 active torsions:
REMARK  status: ('A' for Active; 'I' for Inactive)
REMARK    1  A    between atoms: N1_1  and  C1_2 
REMARK    2  A    between atoms: C1_2  and  C2_3 
REMARK    3  A    between atoms: C1_2  and  C6_8 
REMARK    4  A    between atoms: C2_3  and  C3_4 
REMARK    5  A    between atoms: C3_4  and  C4_5 
REMARK    6  A    between atoms: C4_5  and  C5_6 
REMARK    7  A    between atoms: C6_8  and  O2_9 
REMARK    8  A    between atoms: O2_9  and  C7_10 
ROOT
HETATM    1  C7  UNL     1      26.038   1.809  51.596  1.00  0.00     0.055 C 
HETATM    2  C8  UNL     1      26.052   0.583  52.154  1.00  0.00     0.079 A 
HETATM    3  C9  UNL     1      27.130  -0.388  52.300  1.00  0.00    -0.014 A 
HETATM    4  C10 UNL     1      26.592  -1.448  52.936  1.00  0.00    -0.003 A 
HETATM    5  O3  UNL     1      25.463  -0.667  52.889  1.00  0.00     0.000 OA
HETATM    6  C11 UNL     1      24.830  -0.225  54.051  1.00  0.00     0.043 C 
HETATM    7  C12 UNL     1      23.350  -0.166  53.777  1.00  0.00    -0.052 A 
HETATM    8  C13 UNL     1      22.732   0.725  53.034  1.00  0.00    -0.051 A 
HETATM    9  C14 UNL     1      23.421   1.835  52.334  1.00  0.00     0.010 C 
HETATM   10  C15 UNL     1      24.610   2.150  51.850  1.00  0.00     0.033 C 
HETATM   11  C16 UNL     1      21.279   0.698  52.817  1.00  0.00     0.043 A 
HETATM   12  C17 UNL     1      20.525  -0.421  53.431  1.00  0.00     0.032 A 
HETATM   13  C18 UNL     1      21.337  -1.345  54.240  1.00  0.00    -0.026 A 
HETATM   14  C19 UNL     1      22.637  -1.255  54.418  1.00  0.00     0.004 A 
ENDROOT
BRANCH   1  15
HETATM   15  O2  UNL     1      26.744   2.850  50.919  1.00  0.00    -0.353 OA
BRANCH  15  16
HETATM   16  C6  UNL     1      26.397   3.215  49.597  1.00  0.00     0.210 C 
BRANCH  16  17
HETATM   17  C1  UNL     1      25.889   4.641  49.637  1.00  0.00     0.242 C 
BRANCH  17  18
HETATM   18  N1  UNL     1      24.499   4.675  49.250  1.00  0.00     0.085 N 
HETATM   19  H1  UNL     1      24.285   5.418  48.549  1.00  0.00     0.313 HD
HETATM   20  H2  UNL     1      24.142   3.773  48.861  1.00  0.00     0.313 HD
ENDBRANCH  17  18
BRANCH  17  21
HETATM   21  C2  UNL     1      26.759   5.561  48.873  1.00  0.00     0.041 C 
BRANCH  21  22
HETATM   22  C3  UNL     1      28.091   4.989  48.482  1.00  0.00     0.033 C 
BRANCH  22  23
HETATM   23  C4  UNL     1      29.068   6.010  48.071  1.00  0.00     0.032 C 
BRANCH  23  24
HETATM   24  C5  UNL     1      30.359   5.784  48.207  1.00  0.00     0.217 C 
HETATM   25  O1  UNL     1      31.521   5.321  48.133  1.00  0.00    -0.284 OA
ENDBRANCH  23  24
ENDBRANCH  22  23
ENDBRANCH  21  22
ENDBRANCH  17  21
ENDBRANCH  16  17
ENDBRANCH  15  16
ENDBRANCH   1  15
TORSDOF 8
ENDMDL
MODEL 3
REMARK VINA RESULT:      -7.3      2.651      5.336
REMARK  8 active torsions:
REMARK  status: ('A' for Active; 'I' for Inactive)
REMARK    1  A    between atoms: N1_1  and  C1_2 
REMARK    2  A    between atoms: C1_2  and  C2_3 
REMARK    3  A    between atoms: C1_2  and  C6_8 
REMARK    4  A    between atoms: C2_3  and  C3_4 
REMARK    5  A    between atoms: C3_4  and  C4_5 
REMARK    6  A    between atoms: C4_5  and  C5_6 
REMARK    7  A    between atoms: C6_8  and  O2_9 
REMARK    8  A    between atoms: O2_9  and  C7_10 
ROOT
HETATM    1  C7  UNL     1      25.611   2.030  51.651  1.00  0.00     0.055 C 
HETATM    2  C8  UNL     1      25.726   0.777  52.130  1.00  0.00     0.079 A 
HETATM    3  C9  UNL     1      26.854  -0.146  52.132  1.00  0.00    -0.014 A 
HETATM    4  C10 UNL     1      26.418  -1.266  52.742  1.00  0.00    -0.003 A 
HETATM    5  O3  UNL     1      25.254  -0.541  52.831  1.00  0.00     0.000 OA
HETATM    6  C11 UNL     1      24.698  -0.199  54.064  1.00  0.00     0.043 C 
HETATM    7  C12 UNL     1      23.200  -0.198  53.910  1.00  0.00    -0.052 A 
HETATM    8  C13 UNL     1      22.484   0.702  53.273  1.00  0.00    -0.051 A 
HETATM    9  C14 UNL     1      23.063   1.883  52.591  1.00  0.00     0.010 C 
HETATM   10  C15 UNL     1      24.194   2.285  52.036  1.00  0.00     0.033 C 
HETATM   11  C16 UNL     1      21.021   0.616  53.169  1.00  0.00     0.043 A 
HETATM   12  C17 UNL     1      20.370  -0.573  53.770  1.00  0.00     0.032 A 
HETATM   13  C18 UNL     1      21.286  -1.501  54.456  1.00  0.00    -0.026 A 
HETATM   14  C19 UNL     1      22.591  -1.356  54.537  1.00  0.00     0.004 A 
ENDROOT
BRANCH   1  15
HETATM   15  O2  UNL     1      26.212   3.143  50.986  1.00  0.00    -0.353 OA
BRANCH  15  16
HETATM   16  C6  UNL     1      26.100   3.290  49.584  1.00  0.00     0.210 C 
BRANCH  16  17
HETATM   17  C1  UNL     1      25.476   4.644  49.316  1.00  0.00     0.242 C 
BRANCH  17  18
HETATM   18  N1  UNL     1      25.849   5.568  50.360  1.00  0.00     0.085 N 
HETATM   19  H1  UNL     1      26.552   5.176  51.024  1.00  0.00     0.313 HD
HETATM   20  H2  UNL     1      26.228   6.477  50.011  1.00  0.00     0.313 HD
ENDBRANCH  17  18
BRANCH  17  21
HETATM   21  C2  UNL     1      24.019   4.547  49.078  1.00  0.00     0.041 C 
BRANCH  21  22
HETATM   22  C3  UNL     1      23.546   3.199  48.613  1.00  0.00     0.033 C 
BRANCH  22  23
HETATM   23  C4  UNL     1      22.145   2.919  48.964  1.00  0.00     0.032 C 
BRANCH  23  24
HETATM   24  C5  UNL     1      21.744   1.678  49.153  1.00  0.00     0.217 C 
HETATM   25  O1  UNL     1      21.485   0.549  49.632  1.00  0.00    -0.284 OA
ENDBRANCH  23  24
ENDBRANCH  22  23
ENDBRANCH  21  22
ENDBRANCH  17  21
ENDBRANCH  16  17
ENDBRANCH  15  16
ENDBRANCH   1  15
TORSDOF 8
ENDMDL
MODEL 4
REMARK VINA RESULT:      -7.2      4.261      5.941
REMARK  8 active torsions:
REMARK  status: ('A' for Active; 'I' for Inactive)
REMARK    1  A    between atoms: N1_1  and  C1_2 
REMARK    2  A    between atoms: C1_2  and  C2_3 
REMARK    3  A    between atoms: C1_2  and  C6_8 
REMARK    4  A    between atoms: C2_3  and  C3_4 
REMARK    5  A    between atoms: C3_4  and  C4_5 
REMARK    6  A    between atoms: C4_5  and  C5_6 
REMARK    7  A    between atoms: C6_8  and  O2_9 
REMARK    8  A    between atoms: O2_9  and  C7_10 
ROOT
HETATM    1  C7  UNL     1      26.104   1.769  51.581  1.00  0.00     0.055 C 
HETATM    2  C8  UNL     1      26.085   0.547  52.147  1.00  0.00     0.079 A 
HETATM    3  C9  UNL     1      27.138  -0.448  52.309  1.00  0.00    -0.014 A 
HETATM    4  C10 UNL     1      26.570  -1.491  52.947  1.00  0.00    -0.003 A 
HETATM    5  O3  UNL     1      25.459  -0.684  52.883  1.00  0.00     0.000 OA
HETATM    6  C11 UNL     1      24.826  -0.221  54.037  1.00  0.00     0.043 C 
HETATM    7  C12 UNL     1      23.350  -0.130  53.748  1.00  0.00    -0.052 A 
HETATM    8  C13 UNL     1      22.760   0.770  52.992  1.00  0.00    -0.051 A 
HETATM    9  C14 UNL     1      23.481   1.859  52.292  1.00  0.00     0.010 C 
HETATM   10  C15 UNL     1      24.682   2.145  51.819  1.00  0.00     0.033 C 
HETATM   11  C16 UNL     1      21.309   0.775  52.761  1.00  0.00     0.043 A 
HETATM   12  C17 UNL     1      20.523  -0.322  53.374  1.00  0.00     0.032 A 
HETATM   13  C18 UNL     1      21.306  -1.260  54.198  1.00  0.00    -0.026 A 
HETATM   14  C19 UNL     1      22.606  -1.198  54.388  1.00  0.00     0.004 A 
ENDROOT
BRANCH   1  15
HETATM   15  O2  UNL     1      26.841   2.790  50.905  1.00  0.00    -0.353 OA
BRANCH  15  16
HETATM   16  C6  UNL     1      26.485   3.186  49.594  1.00  0.00     0.210 C 
BRANCH  16  17
HETATM   17  C1  UNL     1      26.360   4.695  49.593  1.00  0.00     0.242 C 
BRANCH  17  18
HETATM   18  N1  UNL     1      24.976   5.070  49.425  1.00  0.00     0.085 N 
HETATM   19  H1  UNL     1      24.311   4.299  49.652  1.00  0.00     0.313 HD
HETATM   20  H2  UNL     1      24.688   5.901  49.989  1.00  0.00     0.313 HD
ENDBRANCH  17  18
BRANCH  17  21
HETATM   21  C2  UNL     1      27.286   5.328  48.629  1.00  0.00     0.041 C 
BRANCH  21  22
HETATM   22  C3  UNL     1      26.914   6.726  48.223  1.00  0.00     0.033 C 
BRANCH  22  23
HETATM   23  C4  UNL     1      27.794   7.755  48.799  1.00  0.00     0.032 C 
BRANCH  23  24
HETATM   24  C5  UNL     1      27.294   8.696  49.574  1.00  0.00     0.217 C 
HETATM   25  O1  UNL     1      27.101   9.550  50.470  1.00  0.00    -0.284 OA
ENDBRANCH  23  24
ENDBRANCH  22  23
ENDBRANCH  21  22
ENDBRANCH  17  21
ENDBRANCH  16  17
ENDBRANCH  15  16
ENDBRANCH   1  15
TORSDOF 8
ENDMDL
MODEL 5
REMARK VINA RESULT:      -7.1      3.050      5.433
REMARK  8 active torsions:
REMARK  status: ('A' for Active; 'I' for Inactive)
REMARK    1  A    between atoms: N1_1  and  C1_2 
REMARK    2  A    between atoms: C1_2  and  C2_3 
REMARK    3  A    between atoms: C1_2  and  C6_8 
REMARK    4  A    between atoms: C2_3  and  C3_4 
REMARK    5  A    between atoms: C3_4  and  C4_5 
REMARK    6  A    between atoms: C4_5  and  C5_6 
REMARK    7  A    between atoms: C6_8  and  O2_9 
REMARK    8  A    between atoms: O2_9  and  C7_10 
ROOT
HETATM    1  C7  UNL     1      26.055   1.796  51.524  1.00  0.00     0.055 C 
HETATM    2  C8  UNL     1      26.089   0.590  52.124  1.00  0.00     0.079 A 
HETATM    3  C9  UNL     1      27.185  -0.352  52.313  1.00  0.00    -0.014 A 
HETATM    4  C10 UNL     1      26.662  -1.401  52.980  1.00  0.00    -0.003 A 
HETATM    5  O3  UNL     1      25.518  -0.645  52.896  1.00  0.00     0.000 OA
HETATM    6  C11 UNL     1      24.865  -0.178  54.036  1.00  0.00     0.043 C 
HETATM    7  C12 UNL     1      23.386  -0.159  53.747  1.00  0.00    -0.052 A 
HETATM    8  C13 UNL     1      22.758   0.693  52.968  1.00  0.00    -0.051 A 
HETATM    9  C14 UNL     1      23.430   1.792  52.236  1.00  0.00     0.010 C 
HETATM   10  C15 UNL     1      24.618   2.116  51.753  1.00  0.00     0.033 C 
HETATM   11  C16 UNL     1      21.308   0.628  52.738  1.00  0.00     0.043 A 
HETATM   12  C17 UNL     1      20.571  -0.485  53.383  1.00  0.00     0.032 A 
HETATM   13  C18 UNL     1      21.394  -1.364  54.232  1.00  0.00    -0.026 A 
HETATM   14  C19 UNL     1      22.690  -1.240  54.418  1.00  0.00     0.004 A 
ENDROOT
BRANCH   1  15
HETATM   15  O2  UNL     1      26.746   2.829  50.819  1.00  0.00    -0.353 OA
BRANCH  15  16
HETATM   16  C6  UNL     1      26.563   2.996  49.426  1.00  0.00     0.210 C 
BRANCH  16  17
HETATM   17  C1  UNL     1      26.510   4.484  49.149  1.00  0.00     0.242 C 
BRANCH  17  18
HETATM   18  N1  UNL     1      27.833   5.049  49.263  1.00  0.00     0.085 N 
HETATM   19  H1  UNL     1      28.148   5.163  50.251  1.00  0.00     0.313 HD
HETATM   20  H2  UNL     1      28.573   4.506  48.764  1.00  0.00     0.313 HD
ENDBRANCH  17  18
BRANCH  17  21
HETATM   21  C2  UNL     1      25.482   5.164  49.966  1.00  0.00     0.041 C 
BRANCH  21  22
HETATM   22  C3  UNL     1      24.108   5.186  49.360  1.00  0.00     0.033 C 
BRANCH  22  23
HETATM   23  C4  UNL     1      23.045   5.485  50.332  1.00  0.00     0.032 C 
BRANCH  23  24
HETATM   24  C5  UNL     1      23.318   5.529  51.620  1.00  0.00     0.217 C 
HETATM   25  O1  UNL     1      23.558   5.246  52.817  1.00  0.00    -0.284 OA
ENDBRANCH  23  24
ENDBRANCH  22  23
ENDBRANCH  21  22
ENDBRANCH  17  21
ENDBRANCH  16  17
ENDBRANCH  15  16
ENDBRANCH   1  15
TORSDOF 8
ENDMDL
MODEL 6
REMARK VINA RESULT:      -7.0      1.521      2.798
REMARK  8 active torsions:
REMARK  status: ('A' for Active; 'I' for Inactive)
REMARK    1  A    between atoms: N1_1  and  C1_2 
REMARK    2  A    between atoms: C1_2  and  C2_3 
REMARK    3  A    between atoms: C1_2  and  C6_8 
REMARK    4  A    between atoms: C2_3  and  C3_4 
REMARK    5  A    between atoms: C3_4  and  C4_5 
REMARK    6  A    between atoms: C4_5  and  C5_6 
REMARK    7  A    between atoms: C6_8  and  O2_9 
REMARK    8  A    between atoms: O2_9  and  C7_10 
ROOT
HETATM    1  C7  UNL     1      23.630   2.457  52.528  1.00  0.00     0.055 C 
HETATM    2  C8  UNL     1      22.536   2.830  51.836  1.00  0.00     0.079 A 
HETATM    3  C9  UNL     1      22.274   4.014  51.027  1.00  0.00    -0.014 A 
HETATM    4  C10 UNL     1      21.016   3.876  50.563  1.00  0.00    -0.003 A 
HETATM    5  O3  UNL     1      21.078   2.706  51.281  1.00  0.00     0.000 OA
HETATM    6  C11 UNL     1      20.956   1.462  50.662  1.00  0.00     0.043 C 
HETATM    7  C12 UNL     1      20.258   0.535  51.622  1.00  0.00    -0.052 A 
HETATM    8  C13 UNL     1      20.777   0.008  52.709  1.00  0.00    -0.051 A 
HETATM    9  C14 UNL     1      22.165   0.256  53.164  1.00  0.00     0.010 C 
HETATM   10  C15 UNL     1      23.125   1.159  53.058  1.00  0.00     0.033 C 
HETATM   11  C16 UNL     1      20.014  -0.884  53.594  1.00  0.00     0.043 A 
HETATM   12  C17 UNL     1      18.595  -1.130  53.243  1.00  0.00     0.032 A 
HETATM   13  C18 UNL     1      18.142  -0.483  52.000  1.00  0.00    -0.026 A 
HETATM   14  C19 UNL     1      18.883   0.288  51.234  1.00  0.00     0.004 A 
ENDROOT
BRANCH   1  15
HETATM   15  O2  UNL     1      24.968   2.741  52.943  1.00  0.00    -0.353 OA
BRANCH  15  16
HETATM   16  C6  UNL     1      26.052   1.983  52.444  1.00  0.00     0.210 C 
BRANCH  16  17
HETATM   17  C1  UNL     1      26.940   1.630  53.619  1.00  0.00     0.242 C 
BRANCH  17  18
HETATM   18  N1  UNL     1      27.792   2.750  53.941  1.00  0.00     0.085 N 
HETATM   19  H1  UNL     1      28.611   2.841  53.300  1.00  0.00     0.313 HD
HETATM   20  H2  UNL     1      27.301   3.672  53.945  1.00  0.00     0.313 HD
ENDBRANCH  17  18
BRANCH  17  21
HETATM   21  C2  UNL     1      27.659   0.355  53.408  1.00  0.00     0.041 C 
BRANCH  21  22
HETATM   22  C3  UNL     1      29.154   0.447  53.532  1.00  0.00     0.033 C 
BRANCH  22  23
HETATM   23  C4  UNL     1      29.817  -0.865  53.582  1.00  0.00     0.032 C 
BRANCH  23  24
HETATM   24  C5  UNL     1      29.115  -1.969  53.431  1.00  0.00     0.217 C 
HETATM   25  O1  UNL     1      28.687  -3.094  53.080  1.00  0.00    -0.284 OA
ENDBRANCH  23  24
ENDBRANCH  22  23
ENDBRANCH  21  22
ENDBRANCH  17  21
ENDBRANCH  16  17
ENDBRANCH  15  16
ENDBRANCH   1  15
TORSDOF 8
ENDMDL
MODEL 7
REMARK VINA RESULT:      -7.0      9.024     11.439
REMARK  8 active torsions:
REMARK  status: ('A' for Active; 'I' for Inactive)
REMARK    1  A    between atoms: N1_1  and  C1_2 
REMARK    2  A    between atoms: C1_2  and  C2_3 
REMARK    3  A    between atoms: C1_2  and  C6_8 
REMARK    4  A    between atoms: C2_3  and  C3_4 
REMARK    5  A    between atoms: C3_4  and  C4_5 
REMARK    6  A    between atoms: C4_5  and  C5_6 
REMARK    7  A    between atoms: C6_8  and  O2_9 
REMARK    8  A    between atoms: O2_9  and  C7_10 
ROOT
HETATM    1  C7  UNL     1      31.967   7.058  48.057  1.00  0.00     0.055 C 
HETATM    2  C8  UNL     1      31.071   7.943  48.535  1.00  0.00     0.079 A 
HETATM    3  C9  UNL     1      31.229   9.329  48.959  1.00  0.00    -0.014 A 
HETATM    4  C10 UNL     1      30.006   9.741  49.349  1.00  0.00    -0.003 A 
HETATM    5  O3  UNL     1      29.667   8.456  49.000  1.00  0.00     0.000 OA
HETATM    6  C11 UNL     1      28.753   8.193  47.980  1.00  0.00     0.043 C 
HETATM    7  C12 UNL     1      27.994   6.945  48.350  1.00  0.00    -0.052 A 
HETATM    8  C13 UNL     1      28.460   5.717  48.328  1.00  0.00    -0.051 A 
HETATM    9  C14 UNL     1      29.842   5.366  47.924  1.00  0.00     0.010 C 
HETATM   10  C15 UNL     1      31.049   5.901  47.855  1.00  0.00     0.033 C 
HETATM   11  C16 UNL     1      27.644   4.557  48.715  1.00  0.00     0.043 A 
HETATM   12  C17 UNL     1      26.268   4.830  49.196  1.00  0.00     0.032 A 
HETATM   13  C18 UNL     1      25.871   6.248  49.167  1.00  0.00    -0.026 A 
HETATM   14  C19 UNL     1      26.642   7.243  48.784  1.00  0.00     0.004 A 
ENDROOT
BRANCH   1  15
HETATM   15  O2  UNL     1      33.315   6.766  47.682  1.00  0.00    -0.353 OA
BRANCH  15  16
HETATM   16  C6  UNL     1      34.375   6.965  48.597  1.00  0.00     0.210 C 
BRANCH  16  17
HETATM   17  C1  UNL     1      34.926   5.601  48.959  1.00  0.00     0.242 C 
BRANCH  17  18
HETATM   18  N1  UNL     1      36.161   5.752  49.691  1.00  0.00     0.085 N 
HETATM   19  H1  UNL     1      36.025   6.140  50.650  1.00  0.00     0.313 HD
HETATM   20  H2  UNL     1      36.708   4.869  49.791  1.00  0.00     0.313 HD
ENDBRANCH  17  18
BRANCH  17  21
HETATM   21  C2  UNL     1      35.017   4.709  47.783  1.00  0.00     0.041 C 
BRANCH  21  22
HETATM   22  C3  UNL     1      34.218   3.442  47.890  1.00  0.00     0.033 C 
BRANCH  22  23
HETATM   23  C4  UNL     1      33.643   3.004  46.609  1.00  0.00     0.032 C 
BRANCH  23  24
HETATM   24  C5  UNL     1      33.337   3.889  45.683  1.00  0.00     0.217 C 
HETATM   25  O1  UNL     1      32.750   4.709  44.938  1.00  0.00    -0.284 OA
ENDBRANCH  23  24
ENDBRANCH  22  23
ENDBRANCH  21  22
ENDBRANCH  17  21
ENDBRANCH  16  17
ENDBRANCH  15  16
ENDBRANCH   1  15
TORSDOF 8
ENDMDL
MODEL 8
REMARK VINA RESULT:      -6.9      5.176      7.942
REMARK  8 active torsions:
REMARK  status: ('A' for Active; 'I' for Inactive)
REMARK    1  A    between atoms: N1_1  and  C1_2 
REMARK    2  A    between atoms: C1_2  and  C2_3 
REMARK    3  A    between atoms: C1_2  and  C6_8 
REMARK    4  A    between atoms: C2_3  and  C3_4 
REMARK    5  A    between atoms: C3_4  and  C4_5 
REMARK    6  A    between atoms: C4_5  and  C5_6 
REMARK    7  A    between atoms: C6_8  and  O2_9 
REMARK    8  A    between atoms: O2_9  and  C7_10 
ROOT
HETATM    1  C7  UNL     1      24.306   3.493  49.728  1.00  0.00     0.055 C 
HETATM    2  C8  UNL     1      24.013   4.576  48.984  1.00  0.00     0.079 A 
HETATM    3  C9  UNL     1      22.735   5.095  48.512  1.00  0.00    -0.014 A 
HETATM    4  C10 UNL     1      23.022   6.208  47.807  1.00  0.00    -0.003 A 
HETATM    5  O3  UNL     1      24.308   5.871  48.156  1.00  0.00     0.000 OA
HETATM    6  C11 UNL     1      25.097   6.714  48.939  1.00  0.00     0.043 C 
HETATM    7  C12 UNL     1      26.526   6.561  48.486  1.00  0.00    -0.052 A 
HETATM    8  C13 UNL     1      27.306   5.526  48.710  1.00  0.00    -0.051 A 
HETATM    9  C14 UNL     1      26.882   4.322  49.463  1.00  0.00     0.010 C 
HETATM   10  C15 UNL     1      25.786   3.656  49.784  1.00  0.00     0.033 C 
HETATM   11  C16 UNL     1      28.690   5.463  48.221  1.00  0.00     0.043 A 
HETATM   12  C17 UNL     1      29.170   6.602  47.402  1.00  0.00     0.032 A 
HETATM   13  C18 UNL     1      28.197   7.695  47.231  1.00  0.00    -0.026 A 
HETATM   14  C19 UNL     1      26.975   7.705  47.716  1.00  0.00     0.004 A 
ENDROOT
BRANCH   1  15
HETATM   15  O2  UNL     1      23.849   2.341  50.440  1.00  0.00    -0.353 OA
BRANCH  15  16
HETATM   16  C6  UNL     1      23.247   2.473  51.713  1.00  0.00     0.210 C 
BRANCH  16  17
HETATM   17  C1  UNL     1      24.217   1.918  52.735  1.00  0.00     0.242 C 
BRANCH  17  18
HETATM   18  N1  UNL     1      24.998   2.992  53.300  1.00  0.00     0.085 N 
HETATM   19  H1  UNL     1      25.446   3.598  52.578  1.00  0.00     0.313 HD
HETATM   20  H2  UNL     1      24.461   3.621  53.939  1.00  0.00     0.313 HD
ENDBRANCH  17  18
BRANCH  17  21
HETATM   21  C2  UNL     1      25.018   0.800  52.191  1.00  0.00     0.041 C 
BRANCH  21  22
HETATM   22  C3  UNL     1      26.500   1.041  52.166  1.00  0.00     0.033 C 
BRANCH  22  23
HETATM   23  C4  UNL     1      27.276  -0.019  52.829  1.00  0.00     0.032 C 
BRANCH  23  24
HETATM   24  C5  UNL     1      27.759   0.173  54.039  1.00  0.00     0.217 C 
HETATM   25  O1  UNL     1      28.210   0.669  55.098  1.00  0.00    -0.284 OA
ENDBRANCH  23  24
ENDBRANCH  22  23
ENDBRANCH  21  22
ENDBRANCH  17  21
ENDBRANCH  16  17
ENDBRANCH  15  16
ENDBRANCH   1  15
TORSDOF 8
ENDMDL
MODEL 9
REMARK VINA RESULT:      -6.8      3.108      7.161
REMARK  8 active torsions:
REMARK  status: ('A' for Active; 'I' for Inactive)
REMARK    1  A    between atoms: N1_1  and  C1_2 
REMARK    2  A    between atoms: C1_2  and  C2_3 
REMARK    3  A    between atoms: C1_2  and  C6_8 
REMARK    4  A    between atoms: C2_3  and  C3_4 
REMARK    5  A    between atoms: C3_4  and  C4_5 
REMARK    6  A    between atoms: C4_5  and  C5_6 
REMARK    7  A    between atoms: C6_8  and  O2_9 
REMARK    8  A    between atoms: O2_9  and  C7_10 
ROOT
HETATM    1  C7  UNL     1      23.000   1.009  52.329  1.00  0.00     0.055 C 
HETATM    2  C8  UNL     1      23.479   0.234  53.321  1.00  0.00     0.079 A 
HETATM    3  C9  UNL     1      22.809  -0.716  54.201  1.00  0.00    -0.014 A 
HETATM    4  C10 UNL     1      23.766  -1.213  55.010  1.00  0.00    -0.003 A 
HETATM    5  O3  UNL     1      24.562  -0.363  54.281  1.00  0.00     0.000 OA
HETATM    6  C11 UNL     1      25.615  -0.839  53.500  1.00  0.00     0.043 C 
HETATM    7  C12 UNL     1      26.713   0.193  53.526  1.00  0.00    -0.052 A 
HETATM    8  C13 UNL     1      26.703   1.354  52.910  1.00  0.00    -0.051 A 
HETATM    9  C14 UNL     1      25.579   1.834  52.073  1.00  0.00     0.010 C 
HETATM   10  C15 UNL     1      24.276   1.664  51.924  1.00  0.00     0.033 C 
HETATM   11  C16 UNL     1      27.822   2.303  53.000  1.00  0.00     0.043 A 
HETATM   12  C17 UNL     1      28.959   1.925  53.873  1.00  0.00     0.032 A 
HETATM   13  C18 UNL     1      28.844   0.598  54.501  1.00  0.00    -0.026 A 
HETATM   14  C19 UNL     1      27.824  -0.221  54.362  1.00  0.00     0.004 A 
ENDROOT
BRANCH   1  15
HETATM   15  O2  UNL     1      21.884   1.443  51.550  1.00  0.00    -0.353 OA
BRANCH  15  16
HETATM   16  C6  UNL     1      21.628   0.875  50.280  1.00  0.00     0.210 C 
BRANCH  16  17
HETATM   17  C1  UNL     1      21.412   2.014  49.306  1.00  0.00     0.242 C 
BRANCH  17  18
HETATM   18  N1  UNL     1      20.255   1.744  48.487  1.00  0.00     0.085 N 
HETATM   19  H1  UNL     1      19.506   1.222  48.993  1.00  0.00     0.313 HD
HETATM   20  H2  UNL     1      19.812   2.597  48.078  1.00  0.00     0.313 HD
ENDBRANCH  17  18
BRANCH  17  21
HETATM   21  C2  UNL     1      22.639   2.332  48.544  1.00  0.00     0.041 C 
BRANCH  21  22
HETATM   22  C3  UNL     1      23.289   3.635  48.913  1.00  0.00     0.033 C 
BRANCH  22  23
HETATM   23  C4  UNL     1      22.466   4.467  49.804  1.00  0.00     0.032 C 
BRANCH  23  24
HETATM   24  C5  UNL     1      22.983   4.967  50.908  1.00  0.00     0.217 C 
HETATM   25  O1  UNL     1      23.610   5.146  51.978  1.00  0.00    -0.284 OA
ENDBRANCH  23  24
ENDBRANCH  22  23
ENDBRANCH  21  22
ENDBRANCH  17  21
ENDBRANCH  16  17
ENDBRANCH  15  16
ENDBRANCH   1  15
TORSDOF 8
ENDMDL
