MODEL 1
REMARK VINA RESULT:      -7.2      0.000      0.000
REMARK  8 active torsions:
REMARK  status: ('A' for Active; 'I' for Inactive)
REMARK    1  A    between atoms: N1_1  and  C1_2 
REMARK    2  A    between atoms: C1_2  and  C2_3 
REMARK    3  A    between atoms: C3_4  and  C4_5 
REMARK    4  A    between atoms: C5_6  and  C6_8 
REMARK    5  A    between atoms: C6_8  and  C7_9 
REMARK    6  A    between atoms: C7_9  and  C8_10 
REMARK    7  A    between atoms: C10_12  and  N2_13 
REMARK    8  A    between atoms: N2_13  and  C11_14 
ROOT
HETATM    1  C8  UNL     1      23.120   2.169  51.106  1.00  0.00    -0.074 A 
HETATM    2  C9  UNL     1      24.435   2.189  50.996  1.00  0.00     0.032 A 
HETATM    3  C10 UNL     1      25.161   2.713  52.143  1.00  0.00     0.029 A 
HETATM    4  C17 UNL     1      24.195   3.023  52.987  1.00  0.00     0.007 A 
HETATM    5  C18 UNL     1      22.840   2.739  52.474  1.00  0.00     0.063 A 
ENDROOT
BRANCH   1   6
HETATM    6  C7  UNL     1      21.872   1.811  50.416  1.00  0.00     0.040 C 
BRANCH   6   7
HETATM    7  C6  UNL     1      21.342   0.435  50.687  1.00  0.00     0.055 C 
BRANCH   7   8
HETATM    8  C5  UNL     1      19.969   0.379  51.211  1.00  0.00     0.012 C 
HETATM    9  C4  UNL     1      19.859   0.298  52.561  1.00  0.00     0.019 C 
HETATM   10 CL1  UNL     1      18.315   0.381  50.641  1.00  0.00    -0.089 Cl
BRANCH   9  11
HETATM   11  C3  UNL     1      20.511   0.233  53.877  1.00  0.00    -0.001 C 
HETATM   12  C2  UNL     1      21.393  -0.204  54.773  1.00  0.00     0.003 C 
BRANCH  12  13
HETATM   13  C1  UNL     1      22.390  -1.229  54.446  1.00  0.00     0.294 C 
BRANCH  13  14
HETATM   14  N1  UNL     1      23.401  -0.622  53.596  1.00  0.00     0.081 N 
HETATM   15  H1  UNL     1      23.743  -1.304  52.879  1.00  0.00     0.313 HD
HETATM   16  H2  UNL     1      24.212  -0.297  54.173  1.00  0.00     0.313 HD
ENDBRANCH  13  14
ENDBRANCH  12  13
ENDBRANCH   9  11
ENDBRANCH   7   8
ENDBRANCH   6   7
ENDBRANCH   1   6
BRANCH   3  17
HETATM   17  N2  UNL     1      26.575   2.802  52.186  1.00  0.00    -0.356 N 
HETATM   18  H13 UNL     1      26.983   3.659  51.754  1.00  0.00     0.166 HD
BRANCH  17  19
HETATM   19  C11 UNL     1      27.400   1.818  52.763  1.00  0.00     0.033 A 
HETATM   20  C12 UNL     1      28.462   2.123  53.555  1.00  0.00     0.029 A 
HETATM   21  C13 UNL     1      29.261   1.137  54.113  1.00  0.00     0.004 A 
HETATM   22  C14 UNL     1      29.027  -0.218  53.898  1.00  0.00     0.019 A 
HETATM   23  C15 UNL     1      27.933  -0.512  53.082  1.00  0.00     0.013 A 
HETATM   24 BR1  UNL     1      27.523  -2.345  52.723  1.00  0.00    -0.051 Br
HETATM   25  C16 UNL     1      27.159   0.497  52.544  1.00  0.00     0.048 A 
ENDBRANCH  17  19
ENDBRANCH   3  17
TORSDOF 8
ENDMDL
MODEL 2
REMARK VINA RESULT:      -7.0      3.226      5.938
REMARK  8 active torsions:
REMARK  status: ('A' for Active; 'I' for Inactive)
REMARK    1  A    between atoms: N1_1  and  C1_2 
REMARK    2  A    between atoms: C1_2  and  C2_3 
REMARK    3  A    between atoms: C3_4  and  C4_5 
REMARK    4  A    between atoms: C5_6  and  C6_8 
REMARK    5  A    between atoms: C6_8  and  C7_9 
REMARK    6  A    between atoms: C7_9  and  C8_10 
REMARK    7  A    between atoms: C10_12  and  N2_13 
REMARK    8  A    between atoms: N2_13  and  C11_14 
ROOT
HETATM    1  C8  UNL     1      23.102   3.496  49.862  1.00  0.00    -0.074 A 
HETATM    2  C9  UNL     1      22.496   2.341  50.065  1.00  0.00     0.032 A 
HETATM    3  C10 UNL     1      21.778   2.214  51.325  1.00  0.00     0.029 A 
HETATM    4  C17 UNL     1      21.981   3.384  51.900  1.00  0.00     0.007 A 
HETATM    5  C18 UNL     1      22.805   4.309  51.097  1.00  0.00     0.063 A 
ENDROOT
BRANCH   1   6
HETATM    6  C7  UNL     1      23.928   4.257  48.913  1.00  0.00     0.040 C 
BRANCH   6   7
HETATM    7  C6  UNL     1      24.976   5.143  49.516  1.00  0.00     0.055 C 
BRANCH   7   8
HETATM    8  C5  UNL     1      26.367   4.740  49.262  1.00  0.00     0.012 C 
HETATM    9  C4  UNL     1      26.754   3.574  49.840  1.00  0.00     0.019 C 
HETATM   10 CL1  UNL     1      27.789   5.294  48.408  1.00  0.00    -0.089 Cl
BRANCH   9  11
HETATM   11  C3  UNL     1      26.424   2.411  50.676  1.00  0.00    -0.001 C 
HETATM   12  C2  UNL     1      26.002   1.787  51.773  1.00  0.00     0.003 C 
BRANCH  12  13
HETATM   13  C1  UNL     1      25.564   2.522  52.966  1.00  0.00     0.294 C 
BRANCH  13  14
HETATM   14  N1  UNL     1      26.687   2.600  53.886  1.00  0.00     0.081 N 
HETATM   15  H1  UNL     1      27.570   2.841  53.378  1.00  0.00     0.313 HD
HETATM   16  H2  UNL     1      26.815   1.685  54.379  1.00  0.00     0.313 HD
ENDBRANCH  13  14
ENDBRANCH  12  13
ENDBRANCH   9  11
ENDBRANCH   7   8
ENDBRANCH   6   7
ENDBRANCH   1   6
BRANCH   3  17
HETATM   17  N2  UNL     1      21.074   1.041  51.696  1.00  0.00    -0.356 N 
HETATM   18  H13 UNL     1      20.212   0.842  51.143  1.00  0.00     0.166 HD
BRANCH  17  19
HETATM   19  C11 UNL     1      21.482   0.184  52.735  1.00  0.00     0.033 A 
HETATM   20  C12 UNL     1      20.610  -0.594  53.430  1.00  0.00     0.029 A 
HETATM   21  C13 UNL     1      21.036  -1.432  54.451  1.00  0.00     0.004 A 
HETATM   22  C14 UNL     1      22.374  -1.527  54.823  1.00  0.00     0.019 A 
HETATM   23  C15 UNL     1      23.254  -0.722  54.099  1.00  0.00     0.013 A 
HETATM   24 BR1  UNL     1      25.116  -0.779  54.531  1.00  0.00    -0.051 Br
HETATM   25  C16 UNL     1      22.794   0.100  53.089  1.00  0.00     0.048 A 
ENDBRANCH  17  19
ENDBRANCH   3  17
TORSDOF 8
ENDMDL
MODEL 3
REMARK VINA RESULT:      -6.9      3.432      6.878
REMARK  8 active torsions:
REMARK  status: ('A' for Active; 'I' for Inactive)
REMARK    1  A    between atoms: N1_1  and  C1_2 
REMARK    2  A    between atoms: C1_2  and  C2_3 
REMARK    3  A    between atoms: C3_4  and  C4_5 
REMARK    4  A    between atoms: C5_6  and  C6_8 
REMARK    5  A    between atoms: C6_8  and  C7_9 
REMARK    6  A    between atoms: C7_9  and  C8_10 
REMARK    7  A    between atoms: C10_12  and  N2_13 
REMARK    8  A    between atoms: N2_13  and  C11_14 
ROOT
HETATM    1  C8  UNL     1      24.163  -0.689  54.228  1.00  0.00    -0.074 A 
HETATM    2  C9  UNL     1      23.325  -0.252  53.306  1.00  0.00     0.032 A 
HETATM    3  C10 UNL     1      21.910  -0.390  53.617  1.00  0.00     0.029 A 
HETATM    4  C17 UNL     1      21.923  -0.950  54.812  1.00  0.00     0.007 A 
HETATM    5  C18 UNL     1      23.279  -1.205  55.336  1.00  0.00     0.063 A 
ENDROOT
BRANCH   1   6
HETATM    6  C7  UNL     1      25.585  -0.852  54.564  1.00  0.00     0.040 C 
BRANCH   6   7
HETATM    7  C6  UNL     1      26.382   0.412  54.681  1.00  0.00     0.055 C 
BRANCH   7   8
HETATM    8  C5  UNL     1      27.486   0.553  53.720  1.00  0.00     0.012 C 
HETATM    9  C4  UNL     1      27.154   1.089  52.519  1.00  0.00     0.019 C 
HETATM   10 CL1  UNL     1      29.203   0.239  53.595  1.00  0.00    -0.089 Cl
BRANCH   9  11
HETATM   11  C3  UNL     1      26.126   1.651  51.630  1.00  0.00    -0.001 C 
HETATM   12  C2  UNL     1      25.049   2.371  51.326  1.00  0.00     0.003 C 
BRANCH  12  13
HETATM   13  C1  UNL     1      24.305   3.124  52.341  1.00  0.00     0.294 C 
BRANCH  13  14
HETATM   14  N1  UNL     1      24.296   4.524  51.950  1.00  0.00     0.081 N 
HETATM   15  H1  UNL     1      23.877   5.119  52.703  1.00  0.00     0.313 HD
HETATM   16  H2  UNL     1      23.745   4.650  51.068  1.00  0.00     0.313 HD
ENDBRANCH  13  14
ENDBRANCH  12  13
ENDBRANCH   9  11
ENDBRANCH   7   8
ENDBRANCH   6   7
ENDBRANCH   1   6
BRANCH   3  17
HETATM   17  N2  UNL     1      20.882   0.030  52.735  1.00  0.00    -0.356 N 
HETATM   18  H13 UNL     1      20.045  -0.591  52.697  1.00  0.00     0.166 HD
BRANCH  17  19
HETATM   19  C11 UNL     1      20.956   1.196  51.951  1.00  0.00     0.033 A 
HETATM   20  C12 UNL     1      20.580   2.417  52.414  1.00  0.00     0.029 A 
HETATM   21  C13 UNL     1      20.662   3.554  51.623  1.00  0.00     0.004 A 
HETATM   22  C14 UNL     1      21.132   3.513  50.313  1.00  0.00     0.019 A 
HETATM   23  C15 UNL     1      21.513   2.251  49.855  1.00  0.00     0.013 A 
HETATM   24 BR1  UNL     1      22.174   2.086  48.068  1.00  0.00    -0.051 Br
HETATM   25  C16 UNL     1      21.418   1.142  50.671  1.00  0.00     0.048 A 
ENDBRANCH  17  19
ENDBRANCH   3  17
TORSDOF 8
ENDMDL
MODEL 4
REMARK VINA RESULT:      -6.9      4.412      5.874
REMARK  8 active torsions:
REMARK  status: ('A' for Active; 'I' for Inactive)
REMARK    1  A    between atoms: N1_1  and  C1_2 
REMARK    2  A    between atoms: C1_2  and  C2_3 
REMARK    3  A    between atoms: C3_4  and  C4_5 
REMARK    4  A    between atoms: C5_6  and  C6_8 
REMARK    5  A    between atoms: C6_8  and  C7_9 
REMARK    6  A    between atoms: C7_9  and  C8_10 
REMARK    7  A    between atoms: C10_12  and  N2_13 
REMARK    8  A    between atoms: N2_13  and  C11_14 
ROOT
HETATM    1  C8  UNL     1      23.328   2.923  51.553  1.00  0.00    -0.074 A 
HETATM    2  C9  UNL     1      23.797   4.098  51.178  1.00  0.00     0.032 A 
HETATM    3  C10 UNL     1      23.937   4.297  49.743  1.00  0.00     0.029 A 
HETATM    4  C17 UNL     1      23.518   3.150  49.243  1.00  0.00     0.007 A 
HETATM    5  C18 UNL     1      23.098   2.171  50.266  1.00  0.00     0.063 A 
ENDROOT
BRANCH   1   6
HETATM    6  C7  UNL     1      22.959   2.105  52.718  1.00  0.00     0.040 C 
BRANCH   6   7
HETATM    7  C6  UNL     1      22.765   0.641  52.458  1.00  0.00     0.055 C 
BRANCH   7   8
HETATM    8  C5  UNL     1      23.271  -0.259  53.506  1.00  0.00     0.012 C 
HETATM    9  C4  UNL     1      24.593  -0.556  53.435  1.00  0.00     0.019 C 
HETATM   10 CL1  UNL     1      22.704  -1.136  54.909  1.00  0.00    -0.089 Cl
BRANCH   9  11
HETATM   11  C3  UNL     1      25.886  -0.399  52.753  1.00  0.00    -0.001 C 
HETATM   12  C2  UNL     1      26.809   0.239  52.037  1.00  0.00     0.003 C 
BRANCH  12  13
HETATM   13  C1  UNL     1      26.601   1.603  51.539  1.00  0.00     0.294 C 
BRANCH  13  14
HETATM   14  N1  UNL     1      26.770   2.522  52.653  1.00  0.00     0.081 N 
HETATM   15  H1  UNL     1      25.937   3.150  52.747  1.00  0.00     0.313 HD
HETATM   16  H2  UNL     1      27.625   3.108  52.512  1.00  0.00     0.313 HD
ENDBRANCH  13  14
ENDBRANCH  12  13
ENDBRANCH   9  11
ENDBRANCH   7   8
ENDBRANCH   6   7
ENDBRANCH   1   6
BRANCH   3  17
HETATM   17  N2  UNL     1      24.424   5.501  49.174  1.00  0.00    -0.356 N 
HETATM   18  H13 UNL     1      23.711   6.248  49.030  1.00  0.00     0.166 HD
BRANCH  17  19
HETATM   19  C11 UNL     1      25.771   5.705  48.817  1.00  0.00     0.033 A 
HETATM   20  C12 UNL     1      26.726   4.752  48.979  1.00  0.00     0.029 A 
HETATM   21  C13 UNL     1      28.047   4.975  48.619  1.00  0.00     0.004 A 
HETATM   22  C14 UNL     1      28.472   6.183  48.073  1.00  0.00     0.019 A 
HETATM   23  C15 UNL     1      27.478   7.149  47.913  1.00  0.00     0.013 A 
HETATM   24 BR1  UNL     1      27.958   8.844  47.170  1.00  0.00    -0.051 Br
HETATM   25  C16 UNL     1      26.173   6.890  48.283  1.00  0.00     0.048 A 
ENDBRANCH  17  19
ENDBRANCH   3  17
TORSDOF 8
ENDMDL
MODEL 5
REMARK VINA RESULT:      -6.8      2.886      5.085
REMARK  8 active torsions:
REMARK  status: ('A' for Active; 'I' for Inactive)
REMARK    1  A    between atoms: N1_1  and  C1_2 
REMARK    2  A    between atoms: C1_2  and  C2_3 
REMARK    3  A    between atoms: C3_4  and  C4_5 
REMARK    4  A    between atoms: C5_6  and  C6_8 
REMARK    5  A    between atoms: C6_8  and  C7_9 
REMARK    6  A    between atoms: C7_9  and  C8_10 
REMARK    7  A    between atoms: C10_12  and  N2_13 
REMARK    8  A    between atoms: N2_13  and  C11_14 
ROOT
HETATM    1  C8  UNL     1      22.027   1.407  50.024  1.00  0.00    -0.074 A 
HETATM    2  C9  UNL     1      22.927   1.574  50.975  1.00  0.00     0.032 A 
HETATM    3  C10 UNL     1      22.745   0.766  52.171  1.00  0.00     0.029 A 
HETATM    4  C17 UNL     1      21.655   0.074  51.898  1.00  0.00     0.007 A 
HETATM    5  C18 UNL     1      21.078   0.369  50.571  1.00  0.00     0.063 A 
ENDROOT
BRANCH   1   6
HETATM    6  C7  UNL     1      21.620   1.839  48.679  1.00  0.00     0.040 C 
BRANCH   6   7
HETATM    7  C6  UNL     1      22.652   2.587  47.888  1.00  0.00     0.055 C 
BRANCH   7   8
HETATM    8  C5  UNL     1      22.699   4.037  48.124  1.00  0.00     0.012 C 
HETATM    9  C4  UNL     1      23.767   4.482  48.834  1.00  0.00     0.019 C 
HETATM   10 CL1  UNL     1      21.778   5.483  47.775  1.00  0.00    -0.089 Cl
BRANCH   9  11
HETATM   11  C3  UNL     1      25.018   4.186  49.548  1.00  0.00    -0.001 C 
HETATM   12  C2  UNL     1      26.336   4.171  49.728  1.00  0.00     0.003 C 
BRANCH  12  13
HETATM   13  C1  UNL     1      27.262   4.736  48.741  1.00  0.00     0.294 C 
BRANCH  13  14
HETATM   14  N1  UNL     1      27.550   6.108  49.124  1.00  0.00     0.081 N 
HETATM   15  H1  UNL     1      27.667   6.188  50.162  1.00  0.00     0.313 HD
HETATM   16  H2  UNL     1      26.773   6.740  48.819  1.00  0.00     0.313 HD
ENDBRANCH  13  14
ENDBRANCH  12  13
ENDBRANCH   9  11
ENDBRANCH   7   8
ENDBRANCH   6   7
ENDBRANCH   1   6
BRANCH   3  17
HETATM   17  N2  UNL     1      23.623   0.825  53.283  1.00  0.00    -0.356 N 
HETATM   18  H13 UNL     1      23.202   1.185  54.167  1.00  0.00     0.166 HD
BRANCH  17  19
HETATM   19  C11 UNL     1      24.974   0.434  53.231  1.00  0.00     0.033 A 
HETATM   20  C12 UNL     1      25.358  -0.853  53.023  1.00  0.00     0.029 A 
HETATM   21  C13 UNL     1      26.697  -1.214  52.976  1.00  0.00     0.004 A 
HETATM   22  C14 UNL     1      27.722  -0.287  53.136  1.00  0.00     0.019 A 
HETATM   23  C15 UNL     1      27.309   1.029  53.348  1.00  0.00     0.013 A 
HETATM   24 BR1  UNL     1      28.639   2.383  53.580  1.00  0.00    -0.051 Br
HETATM   25  C16 UNL     1      25.967   1.352  53.389  1.00  0.00     0.048 A 
ENDBRANCH  17  19
ENDBRANCH   3  17
TORSDOF 8
ENDMDL
MODEL 6
REMARK VINA RESULT:      -6.8      1.513      2.116
REMARK  8 active torsions:
REMARK  status: ('A' for Active; 'I' for Inactive)
REMARK    1  A    between atoms: N1_1  and  C1_2 
REMARK    2  A    between atoms: C1_2  and  C2_3 
REMARK    3  A    between atoms: C3_4  and  C4_5 
REMARK    4  A    between atoms: C5_6  and  C6_8 
REMARK    5  A    between atoms: C6_8  and  C7_9 
REMARK    6  A    between atoms: C7_9  and  C8_10 
REMARK    7  A    between atoms: C10_12  and  N2_13 
REMARK    8  A    between atoms: N2_13  and  C11_14 
ROOT
HETATM    1  C8  UNL     1      22.860   3.653  51.718  1.00  0.00    -0.074 A 
HETATM    2  C9  UNL     1      23.943   3.271  52.370  1.00  0.00     0.032 A 
HETATM    3  C10 UNL     1      25.130   3.052  51.557  1.00  0.00     0.029 A 
HETATM    4  C17 UNL     1      24.707   3.328  50.337  1.00  0.00     0.007 A 
HETATM    5  C18 UNL     1      23.287   3.724  50.273  1.00  0.00     0.063 A 
ENDROOT
BRANCH   1   6
HETATM    6  C7  UNL     1      21.446   4.023  51.872  1.00  0.00     0.040 C 
BRANCH   6   7
HETATM    7  C6  UNL     1      20.558   2.985  52.491  1.00  0.00     0.055 C 
BRANCH   7   8
HETATM    8  C5  UNL     1      20.533   1.685  51.805  1.00  0.00     0.012 C 
HETATM    9  C4  UNL     1      20.717   0.599  52.598  1.00  0.00     0.019 C 
HETATM   10 CL1  UNL     1      20.334   1.020  50.199  1.00  0.00    -0.089 Cl
BRANCH   9  11
HETATM   11  C3  UNL     1      20.950   0.042  53.939  1.00  0.00    -0.001 C 
HETATM   12  C2  UNL     1      21.641  -0.587  54.886  1.00  0.00     0.003 C 
BRANCH  12  13
HETATM   13  C1  UNL     1      22.990  -1.111  54.647  1.00  0.00     0.294 C 
BRANCH  13  14
HETATM   14  N1  UNL     1      23.504  -1.628  55.904  1.00  0.00     0.081 N 
HETATM   15  H1  UNL     1      22.865  -1.384  56.697  1.00  0.00     0.313 HD
HETATM   16  H2  UNL     1      24.454  -1.232  56.097  1.00  0.00     0.313 HD
ENDBRANCH  13  14
ENDBRANCH  12  13
ENDBRANCH   9  11
ENDBRANCH   7   8
ENDBRANCH   6   7
ENDBRANCH   1   6
BRANCH   3  17
HETATM   17  N2  UNL     1      26.372   2.640  52.101  1.00  0.00    -0.356 N 
HETATM   18  H13 UNL     1      27.063   3.405  52.267  1.00  0.00     0.166 HD
BRANCH  17  19
HETATM   19  C11 UNL     1      26.685   1.302  52.405  1.00  0.00     0.033 A 
HETATM   20  C12 UNL     1      25.786   0.291  52.278  1.00  0.00     0.029 A 
HETATM   21  C13 UNL     1      26.118  -1.021  52.584  1.00  0.00     0.004 A 
HETATM   22  C14 UNL     1      27.384  -1.380  53.036  1.00  0.00     0.019 A 
HETATM   23  C15 UNL     1      28.294  -0.329  53.160  1.00  0.00     0.013 A 
HETATM   24 BR1  UNL     1      30.063  -0.715  53.774  1.00  0.00    -0.051 Br
HETATM   25  C16 UNL     1      27.928   0.965  52.846  1.00  0.00     0.048 A 
ENDBRANCH  17  19
ENDBRANCH   3  17
TORSDOF 8
ENDMDL
MODEL 7
REMARK VINA RESULT:      -6.7      4.697      6.360
REMARK  8 active torsions:
REMARK  status: ('A' for Active; 'I' for Inactive)
REMARK    1  A    between atoms: N1_1  and  C1_2 
REMARK    2  A    between atoms: C1_2  and  C2_3 
REMARK    3  A    between atoms: C3_4  and  C4_5 
REMARK    4  A    between atoms: C5_6  and  C6_8 
REMARK    5  A    between atoms: C6_8  and  C7_9 
REMARK    6  A    between atoms: C7_9  and  C8_10 
REMARK    7  A    between atoms: C10_12  and  N2_13 
REMARK    8  A    between atoms: N2_13  and  C11_14 
ROOT
HETATM    1  C8  UNL     1      24.790   2.994  51.704  1.00  0.00    -0.074 A 
HETATM    2  C9  UNL     1      24.582   4.050  50.940  1.00  0.00     0.032 A 
HETATM    3  C10 UNL     1      25.590   4.307  49.922  1.00  0.00     0.029 A 
HETATM    4  C17 UNL     1      26.452   3.324  50.106  1.00  0.00     0.007 A 
HETATM    5  C18 UNL     1      26.085   2.406  51.203  1.00  0.00     0.063 A 
ENDROOT
BRANCH   1   6
HETATM    6  C7  UNL     1      24.246   2.205  52.819  1.00  0.00     0.040 C 
BRANCH   6   7
HETATM    7  C6  UNL     1      23.840   0.799  52.495  1.00  0.00     0.055 C 
BRANCH   7   8
HETATM    8  C5  UNL     1      24.046  -0.182  53.571  1.00  0.00     0.012 C 
HETATM    9  C4  UNL     1      25.326  -0.595  53.751  1.00  0.00     0.019 C 
HETATM   10 CL1  UNL     1      23.133  -1.056  54.781  1.00  0.00    -0.089 Cl
BRANCH   9  11
HETATM   11  C3  UNL     1      26.740  -0.530  53.354  1.00  0.00    -0.001 C 
HETATM   12  C2  UNL     1      28.041  -0.323  53.535  1.00  0.00     0.003 C 
BRANCH  12  13
HETATM   13  C1  UNL     1      28.589   0.093  54.832  1.00  0.00     0.294 C 
BRANCH  13  14
HETATM   14  N1  UNL     1      29.006   1.481  54.723  1.00  0.00     0.081 N 
HETATM   15  H1  UNL     1      28.813   1.999  55.612  1.00  0.00     0.313 HD
HETATM   16  H2  UNL     1      28.497   1.951  53.937  1.00  0.00     0.313 HD
ENDBRANCH  13  14
ENDBRANCH  12  13
ENDBRANCH   9  11
ENDBRANCH   7   8
ENDBRANCH   6   7
ENDBRANCH   1   6
BRANCH   3  17
HETATM   17  N2  UNL     1      25.517   5.398  49.021  1.00  0.00    -0.356 N 
HETATM   18  H13 UNL     1      24.784   5.320  48.282  1.00  0.00     0.166 HD
BRANCH  17  19
HETATM   19  C11 UNL     1      26.359   6.524  49.090  1.00  0.00     0.033 A 
HETATM   20  C12 UNL     1      26.112   7.576  49.914  1.00  0.00     0.029 A 
HETATM   21  C13 UNL     1      26.956   8.675  49.965  1.00  0.00     0.004 A 
HETATM   22  C14 UNL     1      28.102   8.767  49.180  1.00  0.00     0.019 A 
HETATM   23  C15 UNL     1      28.340   7.678  48.341  1.00  0.00     0.013 A 
HETATM   24 BR1  UNL     1      29.889   7.705  47.220  1.00  0.00    -0.051 Br
HETATM   25  C16 UNL     1      27.477   6.601  48.317  1.00  0.00     0.048 A 
ENDBRANCH  17  19
ENDBRANCH   3  17
TORSDOF 8
ENDMDL
MODEL 8
REMARK VINA RESULT:      -6.7      5.668      7.058
REMARK  8 active torsions:
REMARK  status: ('A' for Active; 'I' for Inactive)
REMARK    1  A    between atoms: N1_1  and  C1_2 
REMARK    2  A    between atoms: C1_2  and  C2_3 
REMARK    3  A    between atoms: C3_4  and  C4_5 
REMARK    4  A    between atoms: C5_6  and  C6_8 
REMARK    5  A    between atoms: C6_8  and  C7_9 
REMARK    6  A    between atoms: C7_9  and  C8_10 
REMARK    7  A    between atoms: C10_12  and  N2_13 
REMARK    8  A    between atoms: N2_13  and  C11_14 
ROOT
HETATM    1  C8  UNL     1      26.911   4.183  49.163  1.00  0.00    -0.074 A 
HETATM    2  C9  UNL     1      27.909   4.807  48.566  1.00  0.00     0.032 A 
HETATM    3  C10 UNL     1      27.726   6.234  48.347  1.00  0.00     0.029 A 
HETATM    4  C17 UNL     1      26.528   6.460  48.854  1.00  0.00     0.007 A 
HETATM    5  C18 UNL     1      25.880   5.256  49.411  1.00  0.00     0.063 A 
ENDROOT
BRANCH   1   6
HETATM    6  C7  UNL     1      26.448   2.879  49.659  1.00  0.00     0.040 C 
BRANCH   6   7
HETATM    7  C6  UNL     1      26.648   2.623  51.123  1.00  0.00     0.055 C 
BRANCH   7   8
HETATM    8  C5  UNL     1      25.604   1.814  51.770  1.00  0.00     0.012 C 
HETATM    9  C4  UNL     1      26.024   0.648  52.323  1.00  0.00     0.019 C 
HETATM   10 CL1  UNL     1      23.884   1.850  52.089  1.00  0.00    -0.089 Cl
BRANCH   9  11
HETATM   11  C3  UNL     1      27.122  -0.285  52.615  1.00  0.00    -0.001 C 
HETATM   12  C2  UNL     1      28.223  -0.706  53.233  1.00  0.00     0.003 C 
BRANCH  12  13
HETATM   13  C1  UNL     1      28.886   0.093  54.270  1.00  0.00     0.294 C 
BRANCH  13  14
HETATM   14  N1  UNL     1      29.562   1.204  53.622  1.00  0.00     0.081 N 
HETATM   15  H1  UNL     1      30.106   1.766  54.318  1.00  0.00     0.313 HD
HETATM   16  H2  UNL     1      28.864   1.827  53.151  1.00  0.00     0.313 HD
ENDBRANCH  13  14
ENDBRANCH  12  13
ENDBRANCH   9  11
ENDBRANCH   7   8
ENDBRANCH   6   7
ENDBRANCH   1   6
BRANCH   3  17
HETATM   17  N2  UNL     1      28.701   7.050  47.721  1.00  0.00    -0.356 N 
HETATM   18  H13 UNL     1      28.348   7.656  46.947  1.00  0.00     0.166 HD
BRANCH  17  19
HETATM   19  C11 UNL     1      30.059   7.065  48.091  1.00  0.00     0.033 A 
HETATM   20  C12 UNL     1      30.549   7.892  49.052  1.00  0.00     0.029 A 
HETATM   21  C13 UNL     1      31.891   7.889  49.400  1.00  0.00     0.004 A 
HETATM   22  C14 UNL     1      32.814   7.044  48.791  1.00  0.00     0.019 A 
HETATM   23  C15 UNL     1      32.293   6.202  47.807  1.00  0.00     0.013 A 
HETATM   24 BR1  UNL     1      33.478   5.000  46.907  1.00  0.00    -0.051 Br
HETATM   25  C16 UNL     1      30.950   6.233  47.487  1.00  0.00     0.048 A 
ENDBRANCH  17  19
ENDBRANCH   3  17
TORSDOF 8
ENDMDL
MODEL 9
REMARK VINA RESULT:      -6.6      4.113      7.378
REMARK  8 active torsions:
REMARK  status: ('A' for Active; 'I' for Inactive)
REMARK    1  A    between atoms: N1_1  and  C1_2 
REMARK    2  A    between atoms: C1_2  and  C2_3 
REMARK    3  A    between atoms: C3_4  and  C4_5 
REMARK    4  A    between atoms: C5_6  and  C6_8 
REMARK    5  A    between atoms: C6_8  and  C7_9 
REMARK    6  A    between atoms: C7_9  and  C8_10 
REMARK    7  A    between atoms: C10_12  and  N2_13 
REMARK    8  A    between atoms: N2_13  and  C11_14 
ROOT
HETATM    1  C8  UNL     1      25.457   2.267  51.597  1.00  0.00    -0.074 A 
HETATM    2  C9  UNL     1      24.890   1.121  51.926  1.00  0.00     0.032 A 
HETATM    3  C10 UNL     1      23.663   1.219  52.703  1.00  0.00     0.029 A 
HETATM    4  C17 UNL     1      23.502   2.522  52.837  1.00  0.00     0.007 A 
HETATM    5  C18 UNL     1      24.560   3.324  52.191  1.00  0.00     0.063 A 
ENDROOT
BRANCH   1   6
HETATM    6  C7  UNL     1      26.595   2.873  50.891  1.00  0.00     0.040 C 
BRANCH   6   7
HETATM    7  C6  UNL     1      26.377   3.190  49.441  1.00  0.00     0.055 C 
BRANCH   7   8
HETATM    8  C5  UNL     1      26.881   4.498  48.999  1.00  0.00     0.012 C 
HETATM    9  C4  UNL     1      25.972   5.505  48.991  1.00  0.00     0.019 C 
HETATM   10 CL1  UNL     1      28.361   5.245  48.438  1.00  0.00    -0.089 Cl
BRANCH   9  11
HETATM   11  C3  UNL     1      24.597   5.964  49.236  1.00  0.00    -0.001 C 
HETATM   12  C2  UNL     1      23.648   6.691  49.820  1.00  0.00     0.003 C 
BRANCH  12  13
HETATM   13  C1  UNL     1      23.953   7.675  50.864  1.00  0.00     0.294 C 
BRANCH  13  14
HETATM   14  N1  UNL     1      24.464   6.962  52.023  1.00  0.00     0.081 N 
HETATM   15  H1  UNL     1      25.484   7.155  52.160  1.00  0.00     0.313 HD
HETATM   16  H2  UNL     1      24.326   5.931  51.903  1.00  0.00     0.313 HD
ENDBRANCH  13  14
ENDBRANCH  12  13
ENDBRANCH   9  11
ENDBRANCH   7   8
ENDBRANCH   6   7
ENDBRANCH   1   6
BRANCH   3  17
HETATM   17  N2  UNL     1      22.931   0.085  53.136  1.00  0.00    -0.356 N 
HETATM   18  H13 UNL     1      23.486  -0.638  53.644  1.00  0.00     0.166 HD
BRANCH  17  19
HETATM   19  C11 UNL     1      21.552  -0.085  52.911  1.00  0.00     0.033 A 
HETATM   20  C12 UNL     1      20.748  -0.768  53.767  1.00  0.00     0.029 A 
HETATM   21  C13 UNL     1      19.390  -0.922  53.524  1.00  0.00     0.004 A 
HETATM   22  C14 UNL     1      18.773  -0.390  52.396  1.00  0.00     0.019 A 
HETATM   23  C15 UNL     1      19.615   0.308  51.528  1.00  0.00     0.013 A 
HETATM   24 BR1  UNL     1      18.866   1.080  49.947  1.00  0.00    -0.051 Br
HETATM   25  C16 UNL     1      20.961   0.442  51.803  1.00  0.00     0.048 A 
ENDBRANCH  17  19
ENDBRANCH   3  17
TORSDOF 8
ENDMDL
