MODEL 1
REMARK VINA RESULT:      -7.5      0.000      0.000
REMARK  1 active torsions:
REMARK  status: ('A' for Active; 'I' for Inactive)
REMARK    1  A    between atoms: N1_4  and  C4_5 
ROOT
HETATM    1  C4  UNL     1      31.230   8.161  48.032  1.00  0.00     0.137 C 
HETATM    2  C5  UNL     1      31.446   6.910  48.841  1.00  0.00     0.088 C 
HETATM    3  C6  UNL     1      32.181   5.805  48.198  1.00  0.00     0.044 A 
HETATM    4  N2  UNL     1      31.508   4.688  48.024  1.00  0.00    -0.259 NA
HETATM    5  C7  UNL     1      32.248   3.669  47.414  1.00  0.00     0.039 A 
HETATM    6  C8  UNL     1      33.408   4.138  47.197  1.00  0.00    -0.025 A 
HETATM    7  C9  UNL     1      33.901   2.899  46.595  1.00  0.00     0.045 A 
HETATM    8  C10 UNL     1      32.535   2.365  46.855  1.00  0.00     0.064 A 
HETATM    9  C11 UNL     1      33.546   5.573  47.657  1.00  0.00     0.188 A 
HETATM   10  N3  UNL     1      34.665   5.856  48.357  1.00  0.00    -0.269 NA
HETATM   11  C12 UNL     1      35.570   6.575  48.753  1.00  0.00     0.202 C 
HETATM   12  N4  UNL     1      35.950   7.977  48.540  1.00  0.00    -0.344 N 
HETATM   13  C13 UNL     1      34.886   8.525  47.752  1.00  0.00     0.095 A 
HETATM   14  C14 UNL     1      33.531   8.227  48.316  1.00  0.00     0.068 A 
HETATM   15  C15 UNL     1      32.548   8.663  47.490  1.00  0.00     0.068 A 
HETATM   16  N5  UNL     1      32.793   9.302  46.312  1.00  0.00    -0.212 NA
HETATM   17  S1  UNL     1      34.661   9.335  46.259  1.00  0.00     0.029 SA
HETATM   18  H16 UNL     1      36.628   8.682  48.712  1.00  0.00     0.167 HD
ENDROOT
BRANCH   1  19
HETATM   19  N1  UNL     1      30.396   8.028  46.887  1.00  0.00    -0.398 N 
HETATM   20  C3  UNL     1      30.186   9.259  46.160  1.00  0.00     0.149 C 
HETATM   21  C2  UNL     1      28.713   9.560  45.943  1.00  0.00     0.135 C 
HETATM   22  C1  UNL     1      28.223   8.857  44.709  1.00  0.00     0.041 C 
HETATM   23  O1  UNL     1      27.986   9.316  47.084  1.00  0.00    -0.378 OA
HETATM   24  C17 UNL     1      28.035   8.030  47.549  1.00  0.00     0.135 C 
HETATM   25  C16 UNL     1      29.212   7.250  47.013  1.00  0.00     0.149 C 
HETATM   26  C18 UNL     1      27.934   8.030  49.050  1.00  0.00     0.041 C 
ENDBRANCH   1  19
TORSDOF 1
ENDMDL
MODEL 2
REMARK VINA RESULT:      -7.4      2.918      6.058
REMARK  1 active torsions:
REMARK  status: ('A' for Active; 'I' for Inactive)
REMARK    1  A    between atoms: N1_4  and  C4_5 
ROOT
HETATM    1  C4  UNL     1      32.296   7.003  48.687  1.00  0.00     0.137 C 
HETATM    2  C5  UNL     1      33.201   8.205  48.631  1.00  0.00     0.088 C 
HETATM    3  C6  UNL     1      32.939   9.201  47.575  1.00  0.00     0.044 A 
HETATM    4  N2  UNL     1      33.894   9.364  46.685  1.00  0.00    -0.259 NA
HETATM    5  C7  UNL     1      33.602  10.321  45.708  1.00  0.00     0.039 A 
HETATM    6  C8  UNL     1      32.447  10.777  45.975  1.00  0.00    -0.025 A 
HETATM    7  C9  UNL     1      32.443  11.699  44.840  1.00  0.00     0.045 A 
HETATM    8  C10 UNL     1      33.795  11.153  44.538  1.00  0.00     0.064 A 
HETATM    9  C11 UNL     1      31.841  10.132  47.203  1.00  0.00     0.188 A 
HETATM   10  N3  UNL     1      31.273  10.979  48.087  1.00  0.00    -0.269 NA
HETATM   11  C12 UNL     1      30.474  11.302  48.954  1.00  0.00     0.202 C 
HETATM   12  N4  UNL     1      29.380  10.625  49.659  1.00  0.00    -0.344 N 
HETATM   13  C13 UNL     1      29.436   9.268  49.200  1.00  0.00     0.095 A 
HETATM   14  C14 UNL     1      30.812   8.683  49.282  1.00  0.00     0.068 A 
HETATM   15  C15 UNL     1      30.851   7.442  48.738  1.00  0.00     0.068 A 
HETATM   16  N5  UNL     1      29.758   6.825  48.208  1.00  0.00    -0.212 NA
HETATM   17  S1  UNL     1      28.421   8.109  48.452  1.00  0.00     0.029 SA
HETATM   18  H16 UNL     1      28.632  10.721  50.306  1.00  0.00     0.167 HD
ENDROOT
BRANCH   1  19
HETATM   19  N1  UNL     1      32.365   6.115  47.578  1.00  0.00    -0.398 N 
HETATM   20  C3  UNL     1      31.635   4.882  47.757  1.00  0.00     0.149 C 
HETATM   21  C2  UNL     1      32.492   3.657  47.496  1.00  0.00     0.135 C 
HETATM   22  C1  UNL     1      32.491   3.334  46.028  1.00  0.00     0.041 C 
HETATM   23  O1  UNL     1      33.736   3.795  48.064  1.00  0.00    -0.378 OA
HETATM   24  C17 UNL     1      34.471   4.860  47.621  1.00  0.00     0.135 C 
HETATM   25  C16 UNL     1      33.631   5.925  46.957  1.00  0.00     0.149 C 
HETATM   26  C18 UNL     1      35.340   5.375  48.735  1.00  0.00     0.041 C 
ENDBRANCH   1  19
TORSDOF 1
ENDMDL
MODEL 3
REMARK VINA RESULT:      -7.3      9.241     12.290
REMARK  1 active torsions:
REMARK  status: ('A' for Active; 'I' for Inactive)
REMARK    1  A    between atoms: N1_4  and  C4_5 
ROOT
HETATM    1  C4  UNL     1      23.633   1.484  53.153  1.00  0.00     0.137 C 
HETATM    2  C5  UNL     1      23.889   2.963  53.038  1.00  0.00     0.088 C 
HETATM    3  C6  UNL     1      23.749   3.573  51.703  1.00  0.00     0.044 A 
HETATM    4  N2  UNL     1      24.842   4.095  51.189  1.00  0.00    -0.259 NA
HETATM    5  C7  UNL     1      24.659   4.665  49.925  1.00  0.00     0.039 A 
HETATM    6  C8  UNL     1      23.434   4.508  49.626  1.00  0.00    -0.025 A 
HETATM    7  C9  UNL     1      23.565   5.175  48.331  1.00  0.00     0.045 A 
HETATM    8  C10 UNL     1      24.999   5.350  48.695  1.00  0.00     0.064 A 
HETATM    9  C11 UNL     1      22.664   3.784  50.709  1.00  0.00     0.188 A 
HETATM   10  N3  UNL     1      21.470   4.322  51.036  1.00  0.00    -0.269 NA
HETATM   11  C12 UNL     1      20.315   4.294  51.432  1.00  0.00     0.202 C 
HETATM   12  N4  UNL     1      19.403   3.241  51.894  1.00  0.00    -0.344 N 
HETATM   13  C13 UNL     1      20.206   2.054  51.928  1.00  0.00     0.095 A 
HETATM   14  C14 UNL     1      21.502   2.249  52.652  1.00  0.00     0.068 A 
HETATM   15  C15 UNL     1      22.282   1.143  52.568  1.00  0.00     0.068 A 
HETATM   16  N5  UNL     1      21.902   0.009  51.916  1.00  0.00    -0.212 NA
HETATM   17  S1  UNL     1      20.206   0.469  51.278  1.00  0.00     0.029 SA
HETATM   18  H16 UNL     1      18.479   3.019  52.183  1.00  0.00     0.167 HD
ENDROOT
BRANCH   1  19
HETATM   19  N1  UNL     1      24.548   0.636  52.468  1.00  0.00    -0.398 N 
HETATM   20  C3  UNL     1      24.690  -0.678  53.050  1.00  0.00     0.149 C 
HETATM   21  C2  UNL     1      26.139  -1.036  53.329  1.00  0.00     0.135 C 
HETATM   22  C1  UNL     1      26.769  -1.617  52.096  1.00  0.00     0.041 C 
HETATM   23  O1  UNL     1      26.811   0.026  53.885  1.00  0.00    -0.378 OA
HETATM   24  C17 UNL     1      26.852   1.162  53.122  1.00  0.00     0.135 C 
HETATM   25  C16 UNL     1      25.788   1.195  52.051  1.00  0.00     0.149 C 
HETATM   26  C18 UNL     1      26.856   2.372  54.016  1.00  0.00     0.041 C 
ENDBRANCH   1  19
TORSDOF 1
ENDMDL
MODEL 4
REMARK VINA RESULT:      -7.2     10.021     12.871
REMARK  1 active torsions:
REMARK  status: ('A' for Active; 'I' for Inactive)
REMARK    1  A    between atoms: N1_4  and  C4_5 
ROOT
HETATM    1  C4  UNL     1      24.576   1.056  53.347  1.00  0.00     0.137 C 
HETATM    2  C5  UNL     1      24.143   2.279  52.584  1.00  0.00     0.088 C 
HETATM    3  C6  UNL     1      23.335   2.068  51.368  1.00  0.00     0.044 A 
HETATM    4  N2  UNL     1      23.879   2.463  50.237  1.00  0.00    -0.259 NA
HETATM    5  C7  UNL     1      23.074   2.246  49.114  1.00  0.00     0.039 A 
HETATM    6  C8  UNL     1      22.002   1.707  49.530  1.00  0.00    -0.025 A 
HETATM    7  C9  UNL     1      21.413   1.620  48.193  1.00  0.00     0.045 A 
HETATM    8  C10 UNL     1      22.678   2.251  47.721  1.00  0.00     0.064 A 
HETATM    9  C11 UNL     1      22.002   1.505  51.029  1.00  0.00     0.188 A 
HETATM   10  N3  UNL     1      20.871   1.874  51.668  1.00  0.00    -0.269 NA
HETATM   11  C12 UNL     1      20.030   1.815  52.553  1.00  0.00     0.202 C 
HETATM   12  N4  UNL     1      19.844   0.990  53.752  1.00  0.00    -0.344 N 
HETATM   13  C13 UNL     1      21.029   0.187  53.829  1.00  0.00     0.095 A 
HETATM   14  C14 UNL     1      22.285   0.992  53.701  1.00  0.00     0.068 A 
HETATM   15  C15 UNL     1      23.379   0.191  53.666  1.00  0.00     0.068 A 
HETATM   16  N5  UNL     1      23.313  -1.167  53.755  1.00  0.00    -0.212 NA
HETATM   17  S1  UNL     1      21.474  -1.466  53.902  1.00  0.00     0.029 SA
HETATM   18  H16 UNL     1      19.245   0.763  54.512  1.00  0.00     0.167 HD
ENDROOT
BRANCH   1  19
HETATM   19  N1  UNL     1      25.481   0.188  52.675  1.00  0.00    -0.398 N 
HETATM   20  C3  UNL     1      25.869  -0.974  53.441  1.00  0.00     0.149 C 
HETATM   21  C2  UNL     1      27.376  -1.130  53.534  1.00  0.00     0.135 C 
HETATM   22  C1  UNL     1      27.890  -1.869  52.331  1.00  0.00     0.041 C 
HETATM   23  O1  UNL     1      27.984   0.078  53.783  1.00  0.00    -0.378 OA
HETATM   24  C17 UNL     1      27.771   1.048  52.842  1.00  0.00     0.135 C 
HETATM   25  C16 UNL     1      26.568   0.776  51.971  1.00  0.00     0.149 C 
HETATM   26  C18 UNL     1      27.753   2.400  53.503  1.00  0.00     0.041 C 
ENDBRANCH   1  19
TORSDOF 1
ENDMDL
MODEL 5
REMARK VINA RESULT:      -6.8      2.484      3.977
REMARK  1 active torsions:
REMARK  status: ('A' for Active; 'I' for Inactive)
REMARK    1  A    between atoms: N1_4  and  C4_5 
ROOT
HETATM    1  C4  UNL     1      30.958  10.522  47.880  1.00  0.00     0.137 C 
HETATM    2  C5  UNL     1      30.270   9.863  49.046  1.00  0.00     0.088 C 
HETATM    3  C6  UNL     1      29.658   8.542  48.813  1.00  0.00     0.044 A 
HETATM    4  N2  UNL     1      28.352   8.477  48.959  1.00  0.00    -0.259 NA
HETATM    5  C7  UNL     1      27.819   7.203  48.732  1.00  0.00     0.039 A 
HETATM    6  C8  UNL     1      28.795   6.444  48.440  1.00  0.00    -0.025 A 
HETATM    7  C9  UNL     1      27.949   5.261  48.276  1.00  0.00     0.045 A 
HETATM    8  C10 UNL     1      26.816   6.165  48.618  1.00  0.00     0.064 A 
HETATM    9  C11 UNL     1      30.118   7.178  48.441  1.00  0.00     0.188 A 
HETATM   10  N3  UNL     1      31.132   6.552  49.074  1.00  0.00    -0.269 NA
HETATM   11  C12 UNL     1      32.303   6.265  49.274  1.00  0.00     0.202 C 
HETATM   12  N4  UNL     1      33.581   6.639  48.658  1.00  0.00    -0.344 N 
HETATM   13  C13 UNL     1      33.239   7.635  47.687  1.00  0.00     0.095 A 
HETATM   14  C14 UNL     1      32.369   8.718  48.246  1.00  0.00     0.068 A 
HETATM   15  C15 UNL     1      31.975   9.580  47.277  1.00  0.00     0.068 A 
HETATM   16  N5  UNL     1      32.351   9.460  45.973  1.00  0.00    -0.212 NA
HETATM   17  S1  UNL     1      33.415   7.924  46.007  1.00  0.00     0.029 SA
HETATM   18  H16 UNL     1      34.562   6.484  48.637  1.00  0.00     0.167 HD
ENDROOT
BRANCH   1  19
HETATM   19  N1  UNL     1      30.122  10.896  46.791  1.00  0.00    -0.398 N 
HETATM   20  C3  UNL     1      30.740  11.805  45.854  1.00  0.00     0.149 C 
HETATM   21  C2  UNL     1      29.898  13.044  45.607  1.00  0.00     0.135 C 
HETATM   22  C1  UNL     1      28.887  12.770  44.530  1.00  0.00     0.041 C 
HETATM   23  O1  UNL     1      29.383  13.534  46.783  1.00  0.00    -0.378 OA
HETATM   24  C17 UNL     1      28.576  12.673  47.476  1.00  0.00     0.135 C 
HETATM   25  C16 UNL     1      28.769  11.229  47.076  1.00  0.00     0.149 C 
HETATM   26  C18 UNL     1      28.720  12.922  48.953  1.00  0.00     0.041 C 
ENDBRANCH   1  19
TORSDOF 1
ENDMDL
MODEL 6
REMARK VINA RESULT:      -6.8     11.181     13.438
REMARK  1 active torsions:
REMARK  status: ('A' for Active; 'I' for Inactive)
REMARK    1  A    between atoms: N1_4  and  C4_5 
ROOT
HETATM    1  C4  UNL     1      19.475   3.148  50.586  1.00  0.00     0.137 C 
HETATM    2  C5  UNL     1      20.044   3.216  51.978  1.00  0.00     0.088 C 
HETATM    3  C6  UNL     1      20.854   2.071  52.435  1.00  0.00     0.044 A 
HETATM    4  N2  UNL     1      20.377   1.399  53.460  1.00  0.00    -0.259 NA
HETATM    5  C7  UNL     1      21.182   0.326  53.860  1.00  0.00     0.039 A 
HETATM    6  C8  UNL     1      22.187   0.313  53.082  1.00  0.00    -0.025 A 
HETATM    7  C9  UNL     1      22.794  -0.850  53.730  1.00  0.00     0.045 A 
HETATM    8  C10 UNL     1      21.609  -0.822  54.632  1.00  0.00     0.064 A 
HETATM    9  C11 UNL     1      22.133   1.418  52.050  1.00  0.00     0.188 A 
HETATM   10  N3  UNL     1      23.280   2.108  51.874  1.00  0.00    -0.269 NA
HETATM   11  C12 UNL     1      24.090   2.763  51.235  1.00  0.00     0.202 C 
HETATM   12  N4  UNL     1      24.167   3.256  49.856  1.00  0.00    -0.344 N 
HETATM   13  C13 UNL     1      22.908   2.901  49.272  1.00  0.00     0.095 A 
HETATM   14  C14 UNL     1      21.740   3.310  50.115  1.00  0.00     0.068 A 
HETATM   15  C15 UNL     1      20.573   2.862  49.589  1.00  0.00     0.068 A 
HETATM   16  N5  UNL     1      20.503   2.147  48.431  1.00  0.00    -0.212 NA
HETATM   17  S1  UNL     1      22.300   2.023  47.932  1.00  0.00     0.029 SA
HETATM   18  H16 UNL     1      24.724   3.721  49.176  1.00  0.00     0.167 HD
ENDROOT
BRANCH   1  19
HETATM   19  N1  UNL     1      18.505   2.133  50.356  1.00  0.00    -0.398 N 
HETATM   20  C3  UNL     1      17.945   2.138  49.024  1.00  0.00     0.149 C 
HETATM   21  C2  UNL     1      16.427   2.171  49.033  1.00  0.00     0.135 C 
HETATM   22  C1  UNL     1      15.884   0.776  49.154  1.00  0.00     0.041 C 
HETATM   23  O1  UNL     1      15.958   3.065  49.967  1.00  0.00    -0.378 OA
HETATM   24  C17 UNL     1      16.329   2.814  51.260  1.00  0.00     0.135 C 
HETATM   25  C16 UNL     1      17.530   1.904  51.366  1.00  0.00     0.149 C 
HETATM   26  C18 UNL     1      16.479   4.112  52.005  1.00  0.00     0.041 C 
ENDBRANCH   1  19
TORSDOF 1
ENDMDL
MODEL 7
REMARK VINA RESULT:      -6.6      3.777      5.858
REMARK  1 active torsions:
REMARK  status: ('A' for Active; 'I' for Inactive)
REMARK    1  A    between atoms: N1_4  and  C4_5 
ROOT
HETATM    1  C4  UNL     1      33.446   6.404  44.930  1.00  0.00     0.137 C 
HETATM    2  C5  UNL     1      32.849   7.693  45.429  1.00  0.00     0.088 C 
HETATM    3  C6  UNL     1      31.459   7.649  45.920  1.00  0.00     0.044 A 
HETATM    4  N2  UNL     1      30.586   8.368  45.246  1.00  0.00    -0.259 NA
HETATM    5  C7  UNL     1      29.284   8.298  45.752  1.00  0.00     0.039 A 
HETATM    6  C8  UNL     1      29.322   7.528  46.762  1.00  0.00    -0.025 A 
HETATM    7  C9  UNL     1      27.893   7.665  47.042  1.00  0.00     0.045 A 
HETATM    8  C10 UNL     1      27.863   8.563  45.854  1.00  0.00     0.064 A 
HETATM    9  C11 UNL     1      30.712   6.991  47.024  1.00  0.00     0.188 A 
HETATM   10  N3  UNL     1      31.122   7.035  48.310  1.00  0.00    -0.269 NA
HETATM   11  C12 UNL     1      31.755   6.654  49.283  1.00  0.00     0.202 C 
HETATM   12  N4  UNL     1      32.695   5.559  49.544  1.00  0.00    -0.344 N 
HETATM   13  C13 UNL     1      32.897   4.941  48.267  1.00  0.00     0.095 A 
HETATM   14  C14 UNL     1      33.227   5.927  47.190  1.00  0.00     0.068 A 
HETATM   15  C15 UNL     1      33.301   5.324  45.977  1.00  0.00     0.068 A 
HETATM   16  N5  UNL     1      33.112   3.987  45.797  1.00  0.00    -0.212 NA
HETATM   17  S1  UNL     1      32.758   3.398  47.535  1.00  0.00     0.029 SA
HETATM   18  H16 UNL     1      33.234   5.079  50.228  1.00  0.00     0.167 HD
ENDROOT
BRANCH   1  19
HETATM   19  N1  UNL     1      32.855   5.853  43.759  1.00  0.00    -0.398 N 
HETATM   20  C3  UNL     1      33.513   4.666  43.265  1.00  0.00     0.149 C 
HETATM   21  C2  UNL     1      33.886   4.778  41.797  1.00  0.00     0.135 C 
HETATM   22  C1  UNL     1      32.720   4.375  40.940  1.00  0.00     0.041 C 
HETATM   23  O1  UNL     1      34.420   6.013  41.516  1.00  0.00    -0.378 OA
HETATM   24  C17 UNL     1      33.602   7.080  41.771  1.00  0.00     0.135 C 
HETATM   25  C16 UNL     1      32.476   6.749  42.722  1.00  0.00     0.149 C 
HETATM   26  C18 UNL     1      34.429   8.263  42.192  1.00  0.00     0.041 C 
ENDBRANCH   1  19
TORSDOF 1
ENDMDL
MODEL 8
REMARK VINA RESULT:      -6.5      3.422      5.808
REMARK  1 active torsions:
REMARK  status: ('A' for Active; 'I' for Inactive)
REMARK    1  A    between atoms: N1_4  and  C4_5 
ROOT
HETATM    1  C4  UNL     1      27.295   9.107  47.127  1.00  0.00     0.137 C 
HETATM    2  C5  UNL     1      28.320   8.197  46.505  1.00  0.00     0.088 C 
HETATM    3  C6  UNL     1      29.302   7.567  47.407  1.00  0.00     0.044 A 
HETATM    4  N2  UNL     1      30.561   7.898  47.211  1.00  0.00    -0.259 NA
HETATM    5  C7  UNL     1      31.455   7.272  48.087  1.00  0.00     0.039 A 
HETATM    6  C8  UNL     1      30.761   6.530  48.851  1.00  0.00    -0.025 A 
HETATM    7  C9  UNL     1      31.923   6.046  49.596  1.00  0.00     0.045 A 
HETATM    8  C10 UNL     1      32.722   6.922  48.694  1.00  0.00     0.064 A 
HETATM    9  C11 UNL     1      29.282   6.606  48.541  1.00  0.00     0.188 A 
HETATM   10  N3  UNL     1      28.637   5.421  48.481  1.00  0.00    -0.269 NA
HETATM   11  C12 UNL     1      27.671   4.681  48.589  1.00  0.00     0.202 C 
HETATM   12  N4  UNL     1      26.269   4.856  48.984  1.00  0.00    -0.344 N 
HETATM   13  C13 UNL     1      26.116   6.270  49.162  1.00  0.00     0.095 A 
HETATM   14  C14 UNL     1      26.639   7.062  48.003  1.00  0.00     0.068 A 
HETATM   15  C15 UNL     1      26.581   8.394  48.252  1.00  0.00     0.068 A 
HETATM   16  N5  UNL     1      26.089   8.915  49.410  1.00  0.00    -0.212 NA
HETATM   17  S1  UNL     1      25.620   7.381  50.368  1.00  0.00     0.029 SA
HETATM   18  H16 UNL     1      25.405   4.407  49.177  1.00  0.00     0.167 HD
ENDROOT
BRANCH   1  19
HETATM   19  N1  UNL     1      27.795  10.301  47.717  1.00  0.00    -0.398 N 
HETATM   20  C3  UNL     1      26.771  11.204  48.189  1.00  0.00     0.149 C 
HETATM   21  C2  UNL     1      26.937  12.609  47.638  1.00  0.00     0.135 C 
HETATM   22  C1  UNL     1      27.889  13.388  48.501  1.00  0.00     0.041 C 
HETATM   23  O1  UNL     1      27.249  12.581  46.300  1.00  0.00    -0.378 OA
HETATM   24  C17 UNL     1      28.403  11.920  45.978  1.00  0.00     0.135 C 
HETATM   25  C16 UNL     1      28.864  10.971  47.059  1.00  0.00     0.149 C 
HETATM   26  C18 UNL     1      28.260  11.280  44.624  1.00  0.00     0.041 C 
ENDBRANCH   1  19
TORSDOF 1
ENDMDL
MODEL 9
REMARK VINA RESULT:      -6.4      8.767     10.824
REMARK  1 active torsions:
REMARK  status: ('A' for Active; 'I' for Inactive)
REMARK    1  A    between atoms: N1_4  and  C4_5 
ROOT
HETATM    1  C4  UNL     1      22.833   4.267  50.582  1.00  0.00     0.137 C 
HETATM    2  C5  UNL     1      22.326   3.908  51.953  1.00  0.00     0.088 C 
HETATM    3  C6  UNL     1      22.379   2.487  52.343  1.00  0.00     0.044 A 
HETATM    4  N2  UNL     1      21.219   1.907  52.572  1.00  0.00    -0.259 NA
HETATM    5  C7  UNL     1      21.321   0.562  52.944  1.00  0.00     0.039 A 
HETATM    6  C8  UNL     1      22.559   0.277  52.955  1.00  0.00    -0.025 A 
HETATM    7  C9  UNL     1      22.334  -1.110  53.360  1.00  0.00     0.045 A 
HETATM    8  C10 UNL     1      20.887  -0.761  53.341  1.00  0.00     0.064 A 
HETATM    9  C11 UNL     1      23.426   1.456  52.569  1.00  0.00     0.188 A 
HETATM   10  N3  UNL     1      24.502   1.671  53.355  1.00  0.00    -0.269 NA
HETATM   11  C12 UNL     1      25.639   2.050  53.596  1.00  0.00     0.202 C 
HETATM   12  N4  UNL     1      26.712   2.671  52.812  1.00  0.00    -0.344 N 
HETATM   13  C13 UNL     1      26.128   2.916  51.526  1.00  0.00     0.095 A 
HETATM   14  C14 UNL     1      24.807   3.614  51.611  1.00  0.00     0.068 A 
HETATM   15  C15 UNL     1      24.232   3.730  50.388  1.00  0.00     0.068 A 
HETATM   16  N5  UNL     1      24.815   3.274  49.245  1.00  0.00    -0.212 NA
HETATM   17  S1  UNL     1      26.414   2.543  49.878  1.00  0.00     0.029 SA
HETATM   18  H16 UNL     1      27.656   2.980  52.807  1.00  0.00     0.167 HD
ENDROOT
BRANCH   1  19
HETATM   19  N1  UNL     1      22.092   3.748  49.485  1.00  0.00    -0.398 N 
HETATM   20  C3  UNL     1      22.647   4.066  48.189  1.00  0.00     0.149 C 
HETATM   21  C2  UNL     1      21.628   4.709  47.264  1.00  0.00     0.135 C 
HETATM   22  C1  UNL     1      20.835   3.647  46.559  1.00  0.00     0.041 C 
HETATM   23  O1  UNL     1      20.882   5.652  47.930  1.00  0.00    -0.378 OA
HETATM   24  C17 UNL     1      20.166   5.188  49.000  1.00  0.00     0.135 C 
HETATM   25  C16 UNL     1      20.675   3.866  49.525  1.00  0.00     0.149 C 
HETATM   26  C18 UNL     1      20.067   6.263  50.048  1.00  0.00     0.041 C 
ENDBRANCH   1  19
TORSDOF 1
ENDMDL
