MODEL 1
REMARK VINA RESULT:      -9.5      0.000      0.000
REMARK  2 active torsions:
REMARK  status: ('A' for Active; 'I' for Inactive)
REMARK    1  A    between atoms: C4_4  and  C5_5 
REMARK    2  A    between atoms: C9_11  and  S1_12 
ROOT
HETATM    1  C5  UNL     1      21.072   0.179  52.031  1.00  0.00     0.085 A 
HETATM    2  C6  UNL     1      19.981  -0.337  52.691  1.00  0.00     0.038 A 
HETATM    3  C7  UNL     1      20.311  -0.973  53.890  1.00  0.00     0.057 A 
HETATM    4  C8  UNL     1      21.653  -1.009  54.258  1.00  0.00     0.175 A 
HETATM    5  N1  UNL     1      22.081  -1.584  55.370  1.00  0.00    -0.128 NA
HETATM    6  N2  UNL     1      23.364  -1.456  55.436  1.00  0.00    -0.121 NA
HETATM    7  C9  UNL     1      23.777  -0.775  54.328  1.00  0.00     0.209 A 
HETATM    8  N4  UNL     1      22.668  -0.489  53.572  1.00  0.00    -0.188 N 
HETATM    9  N5  UNL     1      22.345   0.108  52.448  1.00  0.00    -0.163 NA
ENDROOT
BRANCH   7  10
HETATM   10  S1  UNL     1      25.338  -0.179  53.617  1.00  0.00    -0.094 SA
HETATM   11  C10 UNL     1      26.403  -0.909  52.520  1.00  0.00     0.072 C 
HETATM   12  C11 UNL     1      26.941   0.322  51.779  1.00  0.00     0.094 C 
HETATM   13  N3  UNL     1      27.040  -2.236  52.135  1.00  0.00    -0.259 NA
HETATM   14  C12 UNL     1      27.819   1.117  52.754  1.00  0.00    -0.012 C 
HETATM   15  C13 UNL     1      27.894   0.377  53.930  1.00  0.00    -0.052 C 
HETATM   16  C14 UNL     1      29.090  -0.555  54.120  1.00  0.00     0.009 C 
HETATM   17  C17 UNL     1      26.620   0.635  54.785  1.00  0.00     0.116 C 
HETATM   18  C15 UNL     1      29.166  -1.837  53.604  1.00  0.00     0.020 C 
HETATM   19  C16 UNL     1      28.234  -2.614  52.685  1.00  0.00     0.117 C 
ENDBRANCH   7  10
BRANCH   1  20
HETATM   20  C4  UNL     1      20.815   0.865  50.765  1.00  0.00    -0.011 C 
HETATM   21  C3  UNL     1      21.810   1.573  49.883  1.00  0.00     0.067 C 
HETATM   22  C2  UNL     1      21.112   1.562  48.557  1.00  0.00     0.081 C 
HETATM   23  C1  UNL     1      21.536   2.645  47.619  1.00  0.00     0.032 C 
HETATM   24  N6  UNL     1      19.705   1.694  48.961  1.00  0.00    -0.394 N 
HETATM   25  C18 UNL     1      19.622   0.959  50.197  1.00  0.00     0.092 C 
HETATM   26  H18 UNL     1      18.984   2.227  48.406  1.00  0.00     0.159 HD
ENDBRANCH   1  20
TORSDOF 2
ENDMDL
MODEL 2
REMARK VINA RESULT:      -8.9      3.058      7.180
REMARK  2 active torsions:
REMARK  status: ('A' for Active; 'I' for Inactive)
REMARK    1  A    between atoms: C4_4  and  C5_5 
REMARK    2  A    between atoms: C9_11  and  S1_12 
ROOT
HETATM    1  C5  UNL     1      24.372   0.022  53.772  1.00  0.00     0.085 A 
HETATM    2  C6  UNL     1      23.492  -0.890  54.306  1.00  0.00     0.038 A 
HETATM    3  C7  UNL     1      22.153  -0.565  54.075  1.00  0.00     0.057 A 
HETATM    4  C8  UNL     1      21.881   0.599  53.362  1.00  0.00     0.175 A 
HETATM    5  N1  UNL     1      20.652   1.005  53.085  1.00  0.00    -0.128 NA
HETATM    6  N2  UNL     1      20.720   2.107  52.417  1.00  0.00    -0.121 NA
HETATM    7  C9  UNL     1      22.040   2.423  52.257  1.00  0.00     0.209 A 
HETATM    8  N4  UNL     1      22.782   1.445  52.870  1.00  0.00    -0.188 N 
HETATM    9  N5  UNL     1      24.038   1.128  53.091  1.00  0.00    -0.163 NA
ENDROOT
BRANCH   7  10
HETATM   10  S1  UNL     1      23.026   3.739  51.490  1.00  0.00    -0.094 SA
HETATM   11  C10 UNL     1      22.666   5.372  51.212  1.00  0.00     0.072 C 
HETATM   12  C11 UNL     1      24.059   6.001  51.346  1.00  0.00     0.094 C 
HETATM   13  N3  UNL     1      21.554   6.323  50.795  1.00  0.00    -0.259 NA
HETATM   14  C12 UNL     1      24.903   5.545  50.148  1.00  0.00    -0.012 C 
HETATM   15  C13 UNL     1      24.063   4.808  49.317  1.00  0.00    -0.052 C 
HETATM   16  C14 UNL     1      23.387   5.531  48.153  1.00  0.00     0.009 C 
HETATM   17  C17 UNL     1      23.950   3.353  49.857  1.00  0.00     0.116 C 
HETATM   18  C15 UNL     1      22.217   6.261  48.266  1.00  0.00     0.020 C 
HETATM   19  C16 UNL     1      21.374   6.638  49.476  1.00  0.00     0.117 C 
ENDBRANCH   7  10
BRANCH   1  20
HETATM   20  C4  UNL     1      25.797  -0.243  53.967  1.00  0.00    -0.011 C 
HETATM   21  C3  UNL     1      26.712  -1.056  53.088  1.00  0.00     0.067 C 
HETATM   22  C2  UNL     1      28.060  -0.517  53.461  1.00  0.00     0.081 C 
HETATM   23  C1  UNL     1      29.197  -1.456  53.217  1.00  0.00     0.032 C 
HETATM   24  N6  UNL     1      27.877  -0.221  54.888  1.00  0.00    -0.394 N 
HETATM   25  C18 UNL     1      26.509   0.217  54.986  1.00  0.00     0.092 C 
HETATM   26  H18 UNL     1      28.637  -0.332  55.612  1.00  0.00     0.159 HD
ENDBRANCH   1  20
TORSDOF 2
ENDMDL
MODEL 3
REMARK VINA RESULT:      -8.8      2.522      6.782
REMARK  2 active torsions:
REMARK  status: ('A' for Active; 'I' for Inactive)
REMARK    1  A    between atoms: C4_4  and  C5_5 
REMARK    2  A    between atoms: C9_11  and  S1_12 
ROOT
HETATM    1  C5  UNL     1      24.268  -0.457  54.088  1.00  0.00     0.085 A 
HETATM    2  C6  UNL     1      23.572  -1.197  55.014  1.00  0.00     0.038 A 
HETATM    3  C7  UNL     1      22.186  -1.105  54.867  1.00  0.00     0.057 A 
HETATM    4  C8  UNL     1      21.695  -0.304  53.841  1.00  0.00     0.175 A 
HETATM    5  N1  UNL     1      20.402  -0.142  53.608  1.00  0.00    -0.128 NA
HETATM    6  N2  UNL     1      20.258   0.651  52.599  1.00  0.00    -0.121 NA
HETATM    7  C9  UNL     1      21.502   1.013  52.167  1.00  0.00     0.209 A 
HETATM    8  N4  UNL     1      22.423   0.393  52.972  1.00  0.00    -0.188 N 
HETATM    9  N5  UNL     1      23.725   0.297  53.120  1.00  0.00    -0.163 NA
ENDROOT
BRANCH   7  10
HETATM   10  S1  UNL     1      22.226   2.056  50.870  1.00  0.00    -0.094 SA
HETATM   11  C10 UNL     1      23.423   3.254  50.954  1.00  0.00     0.072 C 
HETATM   12  C11 UNL     1      24.083   3.097  49.577  1.00  0.00     0.094 C 
HETATM   13  N3  UNL     1      23.940   4.405  51.802  1.00  0.00    -0.259 NA
HETATM   14  C12 UNL     1      23.085   3.572  48.514  1.00  0.00    -0.012 C 
HETATM   15  C13 UNL     1      21.976   4.072  49.193  1.00  0.00    -0.052 C 
HETATM   16  C14 UNL     1      21.913   5.576  49.459  1.00  0.00     0.009 C 
HETATM   17  C17 UNL     1      21.050   2.893  49.610  1.00  0.00     0.116 C 
HETATM   18  C15 UNL     1      22.534   6.202  50.525  1.00  0.00     0.020 C 
HETATM   19  C16 UNL     1      23.473   5.675  51.601  1.00  0.00     0.117 C 
ENDBRANCH   7  10
BRANCH   1  20
HETATM   20  C4  UNL     1      25.728  -0.498  54.170  1.00  0.00    -0.011 C 
HETATM   21  C3  UNL     1      26.682  -1.223  53.257  1.00  0.00     0.067 C 
HETATM   22  C2  UNL     1      27.958  -0.471  53.481  1.00  0.00     0.081 C 
HETATM   23  C1  UNL     1      29.200  -1.248  53.187  1.00  0.00     0.032 C 
HETATM   24  N6  UNL     1      27.847  -0.114  54.902  1.00  0.00    -0.394 N 
HETATM   25  C18 UNL     1      26.440   0.125  55.098  1.00  0.00     0.092 C 
HETATM   26  H18 UNL     1      28.670  -0.066  55.560  1.00  0.00     0.159 HD
ENDBRANCH   1  20
TORSDOF 2
ENDMDL
MODEL 4
REMARK VINA RESULT:      -8.6      3.972      6.475
REMARK  2 active torsions:
REMARK  status: ('A' for Active; 'I' for Inactive)
REMARK    1  A    between atoms: C4_4  and  C5_5 
REMARK    2  A    between atoms: C9_11  and  S1_12 
ROOT
HETATM    1  C5  UNL     1      23.580   0.329  53.244  1.00  0.00     0.085 A 
HETATM    2  C6  UNL     1      24.478  -0.534  53.826  1.00  0.00     0.038 A 
HETATM    3  C7  UNL     1      25.810  -0.211  53.556  1.00  0.00     0.057 A 
HETATM    4  C8  UNL     1      26.058   0.902  52.759  1.00  0.00     0.175 A 
HETATM    5  N1  UNL     1      27.279   1.302  52.438  1.00  0.00    -0.128 NA
HETATM    6  N2  UNL     1      27.189   2.354  51.695  1.00  0.00    -0.121 NA
HETATM    7  C9  UNL     1      25.864   2.643  51.531  1.00  0.00     0.209 A 
HETATM    8  N4  UNL     1      25.141   1.702  52.221  1.00  0.00    -0.188 N 
HETATM    9  N5  UNL     1      23.893   1.389  52.483  1.00  0.00    -0.163 NA
ENDROOT
BRANCH   7  10
HETATM   10  S1  UNL     1      24.852   3.882  50.675  1.00  0.00    -0.094 SA
HETATM   11  C10 UNL     1      25.265   5.015  49.484  1.00  0.00     0.072 C 
HETATM   12  C11 UNL     1      23.952   5.091  48.692  1.00  0.00     0.094 C 
HETATM   13  N3  UNL     1      26.353   5.983  49.043  1.00  0.00    -0.259 NA
HETATM   14  C12 UNL     1      22.902   5.774  49.578  1.00  0.00    -0.012 C 
HETATM   15  C13 UNL     1      23.551   6.172  50.744  1.00  0.00    -0.052 C 
HETATM   16  C14 UNL     1      24.077   7.605  50.821  1.00  0.00     0.009 C 
HETATM   17  C17 UNL     1      23.658   4.961  51.715  1.00  0.00     0.116 C 
HETATM   18  C15 UNL     1      25.293   8.014  50.303  1.00  0.00     0.020 C 
HETATM   19  C16 UNL     1      26.340   7.279  49.478  1.00  0.00     0.117 C 
ENDBRANCH   7  10
BRANCH   1  20
HETATM   20  C4  UNL     1      22.161   0.064  53.477  1.00  0.00    -0.011 C 
HETATM   21  C3  UNL     1      21.033   0.139  52.480  1.00  0.00     0.067 C 
HETATM   22  C2  UNL     1      19.998  -0.739  53.116  1.00  0.00     0.081 C 
HETATM   23  C1  UNL     1      18.592  -0.443  52.705  1.00  0.00     0.032 C 
HETATM   24  N6  UNL     1      20.227  -0.481  54.544  1.00  0.00    -0.394 N 
HETATM   25  C18 UNL     1      21.652  -0.296  54.647  1.00  0.00     0.092 C 
HETATM   26  H18 UNL     1      19.458  -0.456  55.266  1.00  0.00     0.159 HD
ENDBRANCH   1  20
TORSDOF 2
ENDMDL
MODEL 5
REMARK VINA RESULT:      -8.3      2.435      6.810
REMARK  2 active torsions:
REMARK  status: ('A' for Active; 'I' for Inactive)
REMARK    1  A    between atoms: C4_4  and  C5_5 
REMARK    2  A    between atoms: C9_11  and  S1_12 
ROOT
HETATM    1  C5  UNL     1      24.810   0.501  53.350  1.00  0.00     0.085 A 
HETATM    2  C6  UNL     1      25.403  -0.102  54.434  1.00  0.00     0.038 A 
HETATM    3  C7  UNL     1      24.534  -0.927  55.153  1.00  0.00     0.057 A 
HETATM    4  C8  UNL     1      23.222  -1.034  54.702  1.00  0.00     0.175 A 
HETATM    5  N1  UNL     1      22.312  -1.786  55.303  1.00  0.00    -0.128 NA
HETATM    6  N2  UNL     1      21.198  -1.683  54.659  1.00  0.00    -0.121 NA
HETATM    7  C9  UNL     1      21.396  -0.836  53.606  1.00  0.00     0.209 A 
HETATM    8  N4  UNL     1      22.704  -0.422  53.641  1.00  0.00    -0.188 N 
HETATM    9  N5  UNL     1      23.531   0.349  52.973  1.00  0.00    -0.163 NA
ENDROOT
BRANCH   7  10
HETATM   10  S1  UNL     1      20.428  -0.139  52.238  1.00  0.00    -0.094 SA
HETATM   11  C10 UNL     1      20.634   1.294  51.355  1.00  0.00     0.072 C 
HETATM   12  C11 UNL     1      20.096   0.866  49.984  1.00  0.00     0.094 C 
HETATM   13  N3  UNL     1      21.024   2.759  51.479  1.00  0.00    -0.259 NA
HETATM   14  C12 UNL     1      18.580   0.663  50.111  1.00  0.00    -0.012 C 
HETATM   15  C13 UNL     1      18.226   1.042  51.403  1.00  0.00    -0.052 C 
HETATM   16  C14 UNL     1      17.727   2.470  51.623  1.00  0.00     0.009 C 
HETATM   17  C17 UNL     1      18.518  -0.130  52.384  1.00  0.00     0.116 C 
HETATM   18  C15 UNL     1      18.556   3.564  51.798  1.00  0.00     0.020 C 
HETATM   19  C16 UNL     1      20.070   3.708  51.726  1.00  0.00     0.117 C 
ENDBRANCH   7  10
BRANCH   1  20
HETATM   20  C4  UNL     1      25.650   1.382  52.541  1.00  0.00    -0.011 C 
HETATM   21  C3  UNL     1      25.407   1.846  51.128  1.00  0.00     0.067 C 
HETATM   22  C2  UNL     1      26.241   3.090  51.062  1.00  0.00     0.081 C 
HETATM   23  C1  UNL     1      26.677   3.476  49.687  1.00  0.00     0.032 C 
HETATM   24  N6  UNL     1      27.374   2.734  51.927  1.00  0.00    -0.394 N 
HETATM   25  C18 UNL     1      26.789   1.917  52.959  1.00  0.00     0.092 C 
HETATM   26  H18 UNL     1      28.365   3.052  51.756  1.00  0.00     0.159 HD
ENDBRANCH   1  20
TORSDOF 2
ENDMDL
MODEL 6
REMARK VINA RESULT:      -8.3      3.046      6.657
REMARK  2 active torsions:
REMARK  status: ('A' for Active; 'I' for Inactive)
REMARK    1  A    between atoms: C4_4  and  C5_5 
REMARK    2  A    between atoms: C9_11  and  S1_12 
ROOT
HETATM    1  C5  UNL     1      23.430   0.482  53.045  1.00  0.00     0.085 A 
HETATM    2  C6  UNL     1      24.353  -0.235  53.769  1.00  0.00     0.038 A 
HETATM    3  C7  UNL     1      25.675   0.096  53.462  1.00  0.00     0.057 A 
HETATM    4  C8  UNL     1      25.891   1.075  52.497  1.00  0.00     0.175 A 
HETATM    5  N1  UNL     1      27.099   1.468  52.126  1.00  0.00    -0.128 NA
HETATM    6  N2  UNL     1      26.979   2.380  51.221  1.00  0.00    -0.121 NA
HETATM    7  C9  UNL     1      25.646   2.582  51.000  1.00  0.00     0.209 A 
HETATM    8  N4  UNL     1      24.951   1.736  51.826  1.00  0.00    -0.188 N 
HETATM    9  N5  UNL     1      23.712   1.417  52.125  1.00  0.00    -0.163 NA
ENDROOT
BRANCH   7  10
HETATM   10  S1  UNL     1      24.598   3.622  49.944  1.00  0.00    -0.094 SA
HETATM   11  C10 UNL     1      23.853   5.113  50.251  1.00  0.00     0.072 C 
HETATM   12  C11 UNL     1      23.885   5.744  48.852  1.00  0.00     0.094 C 
HETATM   13  N3  UNL     1      23.123   5.917  51.316  1.00  0.00    -0.259 NA
HETATM   14  C12 UNL     1      22.914   4.964  47.957  1.00  0.00    -0.012 C 
HETATM   15  C13 UNL     1      22.276   4.028  48.768  1.00  0.00    -0.052 C 
HETATM   16  C14 UNL     1      20.919   4.399  49.365  1.00  0.00     0.009 C 
HETATM   17  C17 UNL     1      23.195   2.785  48.944  1.00  0.00     0.116 C 
HETATM   18  C15 UNL     1      20.756   5.141  50.522  1.00  0.00     0.020 C 
HETATM   19  C16 UNL     1      21.761   5.849  51.419  1.00  0.00     0.117 C 
ENDBRANCH   7  10
BRANCH   1  20
HETATM   20  C4  UNL     1      22.019   0.198  53.305  1.00  0.00    -0.011 C 
HETATM   21  C3  UNL     1      20.879   0.215  52.320  1.00  0.00     0.067 C 
HETATM   22  C2  UNL     1      19.869  -0.658  53.000  1.00  0.00     0.081 C 
HETATM   23  C1  UNL     1      18.453  -0.406  52.596  1.00  0.00     0.032 C 
HETATM   24  N6  UNL     1      20.109  -0.345  54.415  1.00  0.00    -0.394 N 
HETATM   25  C18 UNL     1      21.531  -0.129  54.493  1.00  0.00     0.092 C 
HETATM   26  H18 UNL     1      19.349  -0.309  55.145  1.00  0.00     0.159 HD
ENDBRANCH   1  20
TORSDOF 2
ENDMDL
MODEL 7
REMARK VINA RESULT:      -8.2      2.918      6.399
REMARK  2 active torsions:
REMARK  status: ('A' for Active; 'I' for Inactive)
REMARK    1  A    between atoms: C4_4  and  C5_5 
REMARK    2  A    between atoms: C9_11  and  S1_12 
ROOT
HETATM    1  C5  UNL     1      23.883   0.257  53.423  1.00  0.00     0.085 A 
HETATM    2  C6  UNL     1      23.327  -0.795  54.112  1.00  0.00     0.038 A 
HETATM    3  C7  UNL     1      21.930  -0.814  54.060  1.00  0.00     0.057 A 
HETATM    4  C8  UNL     1      21.295   0.198  53.347  1.00  0.00     0.175 A 
HETATM    5  N1  UNL     1      19.979   0.281  53.230  1.00  0.00    -0.128 NA
HETATM    6  N2  UNL     1      19.690   1.317  52.516  1.00  0.00    -0.121 NA
HETATM    7  C9  UNL     1      20.861   1.923  52.159  1.00  0.00     0.209 A 
HETATM    8  N4  UNL     1      21.891   1.195  52.699  1.00  0.00    -0.188 N 
HETATM    9  N5  UNL     1      23.204   1.200  52.753  1.00  0.00    -0.163 NA
ENDROOT
BRANCH   7  10
HETATM   10  S1  UNL     1      21.390   3.375  51.208  1.00  0.00    -0.094 SA
HETATM   11  C10 UNL     1      22.375   3.498  49.834  1.00  0.00     0.072 C 
HETATM   12  C11 UNL     1      21.752   4.718  49.142  1.00  0.00     0.094 C 
HETATM   13  N3  UNL     1      23.625   2.938  49.173  1.00  0.00    -0.259 NA
HETATM   14  C12 UNL     1      22.060   5.956  49.994  1.00  0.00    -0.012 C 
HETATM   15  C13 UNL     1      22.884   5.538  51.035  1.00  0.00    -0.052 C 
HETATM   16  C14 UNL     1      24.396   5.683  50.859  1.00  0.00     0.009 C 
HETATM   17  C17 UNL     1      22.015   4.914  52.164  1.00  0.00     0.116 C 
HETATM   18  C15 UNL     1      25.191   4.766  50.195  1.00  0.00     0.020 C 
HETATM   19  C16 UNL     1      24.846   3.507  49.411  1.00  0.00     0.117 C 
ENDBRANCH   7  10
BRANCH   1  20
HETATM   20  C4  UNL     1      25.342   0.351  53.425  1.00  0.00    -0.011 C 
HETATM   21  C3  UNL     1      26.272   0.221  54.603  1.00  0.00     0.067 C 
HETATM   22  C2  UNL     1      27.565  -0.146  53.940  1.00  0.00     0.081 C 
HETATM   23  C1  UNL     1      28.789   0.201  54.723  1.00  0.00     0.032 C 
HETATM   24  N6  UNL     1      27.476   0.608  52.681  1.00  0.00    -0.394 N 
HETATM   25  C18 UNL     1      26.077   0.571  52.344  1.00  0.00     0.092 C 
HETATM   26  H18 UNL     1      28.307   1.044  52.200  1.00  0.00     0.159 HD
ENDBRANCH   1  20
TORSDOF 2
ENDMDL
MODEL 8
REMARK VINA RESULT:      -8.2      2.480      6.618
REMARK  2 active torsions:
REMARK  status: ('A' for Active; 'I' for Inactive)
REMARK    1  A    between atoms: C4_4  and  C5_5 
REMARK    2  A    between atoms: C9_11  and  S1_12 
ROOT
HETATM    1  C5  UNL     1      23.913   0.532  53.363  1.00  0.00     0.085 A 
HETATM    2  C6  UNL     1      23.969  -0.458  54.315  1.00  0.00     0.038 A 
HETATM    3  C7  UNL     1      22.742  -1.094  54.524  1.00  0.00     0.057 A 
HETATM    4  C8  UNL     1      21.653  -0.664  53.773  1.00  0.00     0.175 A 
HETATM    5  N1  UNL     1      20.444  -1.193  53.888  1.00  0.00    -0.128 NA
HETATM    6  N2  UNL     1      19.649  -0.591  53.068  1.00  0.00    -0.121 NA
HETATM    7  C9  UNL     1      20.370   0.359  52.401  1.00  0.00     0.209 A 
HETATM    8  N4  UNL     1      21.662   0.305  52.862  1.00  0.00    -0.188 N 
HETATM    9  N5  UNL     1      22.821   0.894  52.673  1.00  0.00    -0.163 NA
ENDROOT
BRANCH   7  10
HETATM   10  S1  UNL     1      20.083   1.622  51.130  1.00  0.00    -0.094 SA
HETATM   11  C10 UNL     1      20.374   1.596  49.460  1.00  0.00     0.072 C 
HETATM   12  C11 UNL     1      19.235   2.491  48.955  1.00  0.00     0.094 C 
HETATM   13  N3  UNL     1      21.360   1.128  48.400  1.00  0.00    -0.259 NA
HETATM   14  C12 UNL     1      19.522   3.927  49.411  1.00  0.00    -0.012 C 
HETATM   15  C13 UNL     1      20.769   3.915  50.031  1.00  0.00    -0.052 C 
HETATM   16  C14 UNL     1      21.993   4.281  49.192  1.00  0.00     0.009 C 
HETATM   17  C17 UNL     1      20.612   3.426  51.499  1.00  0.00     0.116 C 
HETATM   18  C15 UNL     1      22.669   3.391  48.375  1.00  0.00     0.020 C 
HETATM   19  C16 UNL     1      22.381   1.945  47.999  1.00  0.00     0.117 C 
ENDBRANCH   7  10
BRANCH   1  20
HETATM   20  C4  UNL     1      25.156   1.248  53.081  1.00  0.00    -0.011 C 
HETATM   21  C3  UNL     1      26.359   1.394  53.976  1.00  0.00     0.067 C 
HETATM   22  C2  UNL     1      27.443   1.707  52.989  1.00  0.00     0.081 C 
HETATM   23  C1  UNL     1      28.607   2.453  53.557  1.00  0.00     0.032 C 
HETATM   24  N6  UNL     1      26.713   2.494  51.986  1.00  0.00    -0.394 N 
HETATM   25  C18 UNL     1      25.404   1.894  51.950  1.00  0.00     0.092 C 
HETATM   26  H18 UNL     1      27.134   3.302  51.455  1.00  0.00     0.159 HD
ENDBRANCH   1  20
TORSDOF 2
ENDMDL
MODEL 9
REMARK VINA RESULT:      -8.1      3.023      6.782
REMARK  2 active torsions:
REMARK  status: ('A' for Active; 'I' for Inactive)
REMARK    1  A    between atoms: C4_4  and  C5_5 
REMARK    2  A    between atoms: C9_11  and  S1_12 
ROOT
HETATM    1  C5  UNL     1      23.849   0.272  53.015  1.00  0.00     0.085 A 
HETATM    2  C6  UNL     1      24.894  -0.577  53.293  1.00  0.00     0.038 A 
HETATM    3  C7  UNL     1      26.127  -0.104  52.837  1.00  0.00     0.057 A 
HETATM    4  C8  UNL     1      26.148   1.122  52.180  1.00  0.00     0.175 A 
HETATM    5  N1  UNL     1      27.258   1.667  51.706  1.00  0.00    -0.128 NA
HETATM    6  N2  UNL     1      26.962   2.796  51.153  1.00  0.00    -0.121 NA
HETATM    7  C9  UNL     1      25.615   2.985  51.276  1.00  0.00     0.209 A 
HETATM    8  N4  UNL     1      25.097   1.901  51.939  1.00  0.00    -0.188 N 
HETATM    9  N5  UNL     1      23.944   1.447  52.374  1.00  0.00    -0.163 NA
ENDROOT
BRANCH   7  10
HETATM   10  S1  UNL     1      24.382   4.232  50.807  1.00  0.00    -0.094 SA
HETATM   11  C10 UNL     1      22.832   4.060  50.143  1.00  0.00     0.072 C 
HETATM   12  C11 UNL     1      22.118   5.270  50.761  1.00  0.00     0.094 C 
HETATM   13  N3  UNL     1      22.015   3.258  49.142  1.00  0.00    -0.259 NA
HETATM   14  C12 UNL     1      22.707   6.540  50.133  1.00  0.00    -0.012 C 
HETATM   15  C13 UNL     1      23.606   6.129  49.152  1.00  0.00    -0.052 C 
HETATM   16  C14 UNL     1      23.106   6.038  47.710  1.00  0.00     0.009 C 
HETATM   17  C17 UNL     1      24.965   5.765  49.816  1.00  0.00     0.116 C 
HETATM   18  C15 UNL     1      22.429   4.949  47.191  1.00  0.00     0.020 C 
HETATM   19  C16 UNL     1      21.916   3.672  47.842  1.00  0.00     0.117 C 
ENDBRANCH   7  10
BRANCH   1  20
HETATM   20  C4  UNL     1      22.520  -0.147  53.459  1.00  0.00    -0.011 C 
HETATM   21  C3  UNL     1      21.209   0.032  52.739  1.00  0.00     0.067 C 
HETATM   22  C2  UNL     1      20.362  -1.033  53.366  1.00  0.00     0.081 C 
HETATM   23  C1  UNL     1      18.891  -0.776  53.308  1.00  0.00     0.032 C 
HETATM   24  N6  UNL     1      20.872  -1.044  54.745  1.00  0.00    -0.394 N 
HETATM   25  C18 UNL     1      22.279  -0.769  54.604  1.00  0.00     0.092 C 
HETATM   26  H18 UNL     1      20.268  -1.224  55.591  1.00  0.00     0.159 HD
ENDBRANCH   1  20
TORSDOF 2
ENDMDL
