MODEL 1
REMARK VINA RESULT:      -8.3      0.000      0.000
REMARK  0 active torsions:
REMARK  status: ('A' for Active; 'I' for Inactive)
ROOT
HETATM    1  C1  UNL     1      22.320   2.143  47.563  1.00  0.00     0.150 C 
HETATM    2  N1  UNL     1      22.099   3.245  48.518  1.00  0.00    -0.379 N 
HETATM    3  C2  UNL     1      21.875   4.679  48.877  1.00  0.00     0.136 C 
HETATM    4  C3  UNL     1      21.647   4.573  50.371  1.00  0.00     0.058 C 
HETATM    5  C4  UNL     1      20.307   4.605  50.889  1.00  0.00    -0.015 C 
HETATM    6  C5  UNL     1      19.392   3.776  51.545  1.00  0.00     0.004 C 
HETATM    7  C6  UNL     1      19.625   2.264  51.649  1.00  0.00     0.052 C 
HETATM    8  S1  UNL     1      20.930   1.557  50.746  1.00  0.00    -0.082 SA
HETATM    9  S2  UNL     1      21.252   0.102  52.289  1.00  0.00    -0.071 SA
HETATM   10  C7  UNL     1      22.624   0.784  53.272  1.00  0.00     0.165 A 
HETATM   11  C8  UNL     1      23.633   1.534  52.424  1.00  0.00     0.055 A 
HETATM   12  C9  UNL     1      23.848   2.937  52.867  1.00  0.00     0.016 C 
HETATM   13  C10 UNL     1      23.773   3.987  51.789  1.00  0.00     0.038 C 
HETATM   14  C11 UNL     1      22.699   3.646  50.783  1.00  0.00    -0.037 C 
HETATM   15  C12 UNL     1      22.000   2.871  49.901  1.00  0.00     0.074 C 
HETATM   16  C13 UNL     1      24.883   0.713  52.602  1.00  0.00    -0.025 A 
HETATM   17  C14 UNL     1      26.089   0.975  51.941  1.00  0.00     0.010 A 
HETATM   18  C15 UNL     1      27.128   0.120  52.225  1.00  0.00     0.001 A 
HETATM   19  C16 UNL     1      27.031  -0.934  53.096  1.00  0.00     0.002 A 
HETATM   20  C17 UNL     1      25.821  -1.152  53.725  1.00  0.00     0.030 A 
HETATM   21  C18 UNL     1      24.744  -0.329  53.480  1.00  0.00     0.037 A 
HETATM   22  N2  UNL     1      23.396  -0.238  53.916  1.00  0.00    -0.370 N 
HETATM   23  C19 UNL     1      22.854  -1.132  54.949  1.00  0.00     0.151 C 
ENDROOT
TORSDOF 0
ENDMDL
MODEL 2
REMARK VINA RESULT:      -7.9      3.823      6.247
REMARK  0 active torsions:
REMARK  status: ('A' for Active; 'I' for Inactive)
ROOT
HETATM    1  C1  UNL     1      25.633   2.253  53.910  1.00  0.00     0.150 C 
HETATM    2  N1  UNL     1      24.560   1.885  52.967  1.00  0.00    -0.379 N 
HETATM    3  C2  UNL     1      23.570   0.935  52.371  1.00  0.00     0.136 C 
HETATM    4  C3  UNL     1      22.837   1.846  51.407  1.00  0.00     0.058 C 
HETATM    5  C4  UNL     1      21.558   2.387  51.775  1.00  0.00    -0.015 C 
HETATM    6  C5  UNL     1      20.958   3.616  52.068  1.00  0.00     0.004 C 
HETATM    7  C6  UNL     1      21.803   4.867  52.334  1.00  0.00     0.052 C 
HETATM    8  S1  UNL     1      23.526   4.693  52.490  1.00  0.00    -0.082 SA
HETATM    9  S2  UNL     1      23.834   6.621  51.600  1.00  0.00    -0.071 SA
HETATM   10  C7  UNL     1      24.199   6.257  49.855  1.00  0.00     0.165 A 
HETATM   11  C8  UNL     1      24.987   4.974  49.678  1.00  0.00     0.055 A 
HETATM   12  C9  UNL     1      24.323   3.995  48.776  1.00  0.00     0.016 C 
HETATM   13  C10 UNL     1      24.210   2.587  49.301  1.00  0.00     0.038 C 
HETATM   14  C11 UNL     1      23.930   2.590  50.785  1.00  0.00    -0.037 C 
HETATM   15  C12 UNL     1      24.097   2.931  52.098  1.00  0.00     0.074 C 
HETATM   16  C13 UNL     1      26.282   5.465  49.085  1.00  0.00    -0.025 A 
HETATM   17  C14 UNL     1      27.376   4.637  48.809  1.00  0.00     0.010 A 
HETATM   18  C15 UNL     1      28.478   5.257  48.268  1.00  0.00     0.001 A 
HETATM   19  C16 UNL     1      28.540   6.600  48.000  1.00  0.00     0.002 A 
HETATM   20  C17 UNL     1      27.435   7.376  48.289  1.00  0.00     0.030 A 
HETATM   21  C18 UNL     1      26.302   6.810  48.832  1.00  0.00     0.037 A 
HETATM   22  N2  UNL     1      25.023   7.262  49.249  1.00  0.00    -0.370 N 
HETATM   23  C19 UNL     1      24.595   8.656  49.063  1.00  0.00     0.151 C 
ENDROOT
TORSDOF 0
ENDMDL
MODEL 3
REMARK VINA RESULT:      -7.7      2.375      4.909
REMARK  0 active torsions:
REMARK  status: ('A' for Active; 'I' for Inactive)
ROOT
HETATM    1  C1  UNL     1      21.539   6.148  50.992  1.00  0.00     0.150 C 
HETATM    2  N1  UNL     1      22.285   5.356  49.996  1.00  0.00    -0.379 N 
HETATM    3  C2  UNL     1      22.994   5.172  48.692  1.00  0.00     0.136 C 
HETATM    4  C3  UNL     1      23.519   3.758  48.843  1.00  0.00     0.058 C 
HETATM    5  C4  UNL     1      24.891   3.546  49.211  1.00  0.00    -0.015 C 
HETATM    6  C5  UNL     1      25.651   3.037  50.269  1.00  0.00     0.004 C 
HETATM    7  C6  UNL     1      25.018   2.763  51.638  1.00  0.00     0.052 C 
HETATM    8  S1  UNL     1      23.392   3.302  51.930  1.00  0.00    -0.082 SA
HETATM    9  S2  UNL     1      23.024   1.613  53.199  1.00  0.00    -0.071 SA
HETATM   10  C7  UNL     1      22.175   0.416  52.122  1.00  0.00     0.165 A 
HETATM   11  C8  UNL     1      21.262   1.085  51.113  1.00  0.00     0.055 A 
HETATM   12  C9  UNL     1      21.573   0.722  49.705  1.00  0.00     0.016 C 
HETATM   13  C10 UNL     1      21.701   1.872  48.741  1.00  0.00     0.038 C 
HETATM   14  C11 UNL     1      22.367   3.055  49.404  1.00  0.00    -0.037 C 
HETATM   15  C12 UNL     1      22.587   4.001  50.365  1.00  0.00     0.074 C 
HETATM   16  C13 UNL     1      19.903   0.575  51.516  1.00  0.00    -0.025 A 
HETATM   17  C14 UNL     1      18.707   0.980  50.910  1.00  0.00     0.010 A 
HETATM   18  C15 UNL     1      17.559   0.410  51.407  1.00  0.00     0.001 A 
HETATM   19  C16 UNL     1      17.543  -0.503  52.430  1.00  0.00     0.002 A 
HETATM   20  C17 UNL     1      18.747  -0.872  52.995  1.00  0.00     0.030 A 
HETATM   21  C18 UNL     1      19.931  -0.334  52.539  1.00  0.00     0.037 A 
HETATM   22  N2  UNL     1      21.309  -0.460  52.854  1.00  0.00    -0.370 N 
HETATM   23  C19 UNL     1      21.790  -1.422  53.857  1.00  0.00     0.151 C 
ENDROOT
TORSDOF 0
ENDMDL
MODEL 4
REMARK VINA RESULT:      -7.4      9.864     12.430
REMARK  0 active torsions:
REMARK  status: ('A' for Active; 'I' for Inactive)
ROOT
HETATM    1  C1  UNL     1      33.218   4.382  45.223  1.00  0.00     0.150 C 
HETATM    2  N1  UNL     1      33.768   4.630  46.569  1.00  0.00    -0.379 N 
HETATM    3  C2  UNL     1      34.606   4.278  47.757  1.00  0.00     0.136 C 
HETATM    4  C3  UNL     1      34.449   5.527  48.602  1.00  0.00     0.058 C 
HETATM    5  C4  UNL     1      35.492   6.516  48.607  1.00  0.00    -0.015 C 
HETATM    6  C5  UNL     1      35.718   7.837  48.209  1.00  0.00     0.004 C 
HETATM    7  C6  UNL     1      34.743   8.560  47.272  1.00  0.00     0.052 C 
HETATM    8  S1  UNL     1      33.466   7.644  46.528  1.00  0.00    -0.082 SA
HETATM    9  S2  UNL     1      32.161   9.345  46.599  1.00  0.00    -0.071 SA
HETATM   10  C7  UNL     1      31.154   9.077  48.091  1.00  0.00     0.165 A 
HETATM   11  C8  UNL     1      30.847   7.612  48.333  1.00  0.00     0.055 A 
HETATM   12  C9  UNL     1      31.283   7.132  49.672  1.00  0.00     0.016 C 
HETATM   13  C10 UNL     1      32.085   5.857  49.686  1.00  0.00     0.038 C 
HETATM   14  C11 UNL     1      33.017   5.798  48.499  1.00  0.00    -0.037 C 
HETATM   15  C12 UNL     1      33.392   5.871  47.186  1.00  0.00     0.074 C 
HETATM   16  C13 UNL     1      29.348   7.567  48.204  1.00  0.00    -0.025 A 
HETATM   17  C14 UNL     1      28.594   6.390  48.276  1.00  0.00     0.010 A 
HETATM   18  C15 UNL     1      27.233   6.537  48.136  1.00  0.00     0.001 A 
HETATM   19  C16 UNL     1      26.615   7.744  47.938  1.00  0.00     0.002 A 
HETATM   20  C17 UNL     1      27.401   8.878  47.875  1.00  0.00     0.030 A 
HETATM   21  C18 UNL     1      28.770   8.792  48.007  1.00  0.00     0.037 A 
HETATM   22  N2  UNL     1      29.864   9.696  47.999  1.00  0.00    -0.370 N 
HETATM   23  C19 UNL     1      29.669  11.150  47.901  1.00  0.00     0.151 C 
ENDROOT
TORSDOF 0
ENDMDL
MODEL 5
REMARK VINA RESULT:      -7.4      2.765      5.508
REMARK  0 active torsions:
REMARK  status: ('A' for Active; 'I' for Inactive)
ROOT
HETATM    1  C1  UNL     1      23.057   0.917  53.446  1.00  0.00     0.150 C 
HETATM    2  N1  UNL     1      22.184   0.737  52.271  1.00  0.00    -0.379 N 
HETATM    3  C2  UNL     1      21.301  -0.068  51.372  1.00  0.00     0.136 C 
HETATM    4  C3  UNL     1      20.810   1.000  50.414  1.00  0.00     0.058 C 
HETATM    5  C4  UNL     1      19.504   1.570  50.596  1.00  0.00    -0.015 C 
HETATM    6  C5  UNL     1      18.902   2.788  50.928  1.00  0.00     0.004 C 
HETATM    7  C6  UNL     1      19.722   3.940  51.520  1.00  0.00     0.052 C 
HETATM    8  S1  UNL     1      21.370   3.641  51.983  1.00  0.00    -0.082 SA
HETATM    9  S2  UNL     1      21.921   5.642  51.438  1.00  0.00    -0.071 SA
HETATM   10  C7  UNL     1      22.617   5.476  49.765  1.00  0.00     0.165 A 
HETATM   11  C8  UNL     1      23.377   4.178  49.574  1.00  0.00     0.055 A 
HETATM   12  C9  UNL     1      22.874   3.362  48.437  1.00  0.00     0.016 C 
HETATM   13  C10 UNL     1      22.606   1.910  48.736  1.00  0.00     0.038 C 
HETATM   14  C11 UNL     1      22.033   1.746  50.123  1.00  0.00    -0.037 C 
HETATM   15  C12 UNL     1      21.944   1.909  51.478  1.00  0.00     0.074 C 
HETATM   16  C13 UNL     1      24.782   4.657  49.317  1.00  0.00    -0.025 A 
HETATM   17  C14 UNL     1      25.879   3.803  49.151  1.00  0.00     0.010 A 
HETATM   18  C15 UNL     1      27.089   4.416  48.924  1.00  0.00     0.001 A 
HETATM   19  C16 UNL     1      27.252   5.775  48.856  1.00  0.00     0.002 A 
HETATM   20  C17 UNL     1      26.140   6.576  49.025  1.00  0.00     0.030 A 
HETATM   21  C18 UNL     1      24.902   6.019  49.256  1.00  0.00     0.037 A 
HETATM   22  N2  UNL     1      23.582   6.495  49.471  1.00  0.00    -0.370 N 
HETATM   23  C19 UNL     1      23.251   7.926  49.395  1.00  0.00     0.151 C 
ENDROOT
TORSDOF 0
ENDMDL
MODEL 6
REMARK VINA RESULT:      -7.2      8.595     10.269
REMARK  0 active torsions:
REMARK  status: ('A' for Active; 'I' for Inactive)
ROOT
HETATM    1  C1  UNL     1      28.948  10.676  44.233  1.00  0.00     0.150 C 
HETATM    2  N1  UNL     1      29.468  11.312  45.459  1.00  0.00    -0.379 N 
HETATM    3  C2  UNL     1      30.441  12.157  46.217  1.00  0.00     0.136 C 
HETATM    4  C3  UNL     1      29.796  12.182  47.589  1.00  0.00     0.058 C 
HETATM    5  C4  UNL     1      29.031  13.330  47.992  1.00  0.00    -0.015 C 
HETATM    6  C5  UNL     1      27.714  13.686  48.298  1.00  0.00     0.004 C 
HETATM    7  C6  UNL     1      26.542  12.759  47.956  1.00  0.00     0.052 C 
HETATM    8  S1  UNL     1      26.848  11.354  46.979  1.00  0.00    -0.082 SA
HETATM    9  S2  UNL     1      25.333  10.255  48.029  1.00  0.00    -0.071 SA
HETATM   10  C7  UNL     1      26.254   9.293  49.270  1.00  0.00     0.165 A 
HETATM   11  C8  UNL     1      27.607   8.833  48.765  1.00  0.00     0.055 A 
HETATM   12  C9  UNL     1      28.738   9.272  49.627  1.00  0.00     0.016 C 
HETATM   13  C10 UNL     1      29.894   9.923  48.915  1.00  0.00     0.038 C 
HETATM   14  C11 UNL     1      29.404  10.787  47.777  1.00  0.00    -0.037 C 
HETATM   15  C12 UNL     1      28.696  11.107  46.652  1.00  0.00     0.074 C 
HETATM   16  C13 UNL     1      27.468   7.333  48.777  1.00  0.00    -0.025 A 
HETATM   17  C14 UNL     1      28.455   6.454  48.317  1.00  0.00     0.010 A 
HETATM   18  C15 UNL     1      28.156   5.115  48.404  1.00  0.00     0.001 A 
HETATM   19  C16 UNL     1      26.976   4.630  48.905  1.00  0.00     0.002 A 
HETATM   20  C17 UNL     1      26.033   5.536  49.349  1.00  0.00     0.030 A 
HETATM   21  C18 UNL     1      26.276   6.890  49.286  1.00  0.00     0.037 A 
HETATM   22  N2  UNL     1      25.581   8.079  49.629  1.00  0.00    -0.370 N 
HETATM   23  C19 UNL     1      24.274   8.046  50.300  1.00  0.00     0.151 C 
ENDROOT
TORSDOF 0
ENDMDL
MODEL 7
REMARK VINA RESULT:      -7.0      2.662      4.369
REMARK  0 active torsions:
REMARK  status: ('A' for Active; 'I' for Inactive)
ROOT
HETATM    1  C1  UNL     1      19.259   6.239  49.448  1.00  0.00     0.150 C 
HETATM    2  N1  UNL     1      20.343   6.048  48.466  1.00  0.00    -0.379 N 
HETATM    3  C2  UNL     1      20.933   6.121  47.094  1.00  0.00     0.136 C 
HETATM    4  C3  UNL     1      22.359   5.685  47.367  1.00  0.00     0.058 C 
HETATM    5  C4  UNL     1      23.395   6.675  47.478  1.00  0.00    -0.015 C 
HETATM    6  C5  UNL     1      24.271   7.208  48.428  1.00  0.00     0.004 C 
HETATM    7  C6  UNL     1      24.083   6.928  49.924  1.00  0.00     0.052 C 
HETATM    8  S1  UNL     1      22.635   6.123  50.447  1.00  0.00    -0.082 SA
HETATM    9  S2  UNL     1      23.709   5.147  52.027  1.00  0.00    -0.071 SA
HETATM   10  C7  UNL     1      24.094   3.499  51.359  1.00  0.00     0.165 A 
HETATM   11  C8  UNL     1      22.996   2.962  50.461  1.00  0.00     0.055 A 
HETATM   12  C9  UNL     1      23.473   2.602  49.099  1.00  0.00     0.016 C 
HETATM   13  C10 UNL     1      22.663   3.148  47.952  1.00  0.00     0.038 C 
HETATM   14  C11 UNL     1      22.173   4.543  48.260  1.00  0.00    -0.037 C 
HETATM   15  C12 UNL     1      21.582   5.540  48.985  1.00  0.00     0.074 C 
HETATM   16  C13 UNL     1      22.528   1.743  51.211  1.00  0.00    -0.025 A 
HETATM   17  C14 UNL     1      21.456   0.940  50.804  1.00  0.00     0.010 A 
HETATM   18  C15 UNL     1      21.168  -0.135  51.612  1.00  0.00     0.001 A 
HETATM   19  C16 UNL     1      21.865  -0.437  52.754  1.00  0.00     0.002 A 
HETATM   20  C17 UNL     1      22.915   0.384  53.114  1.00  0.00     0.030 A 
HETATM   21  C18 UNL     1      23.250   1.476  52.344  1.00  0.00     0.037 A 
HETATM   22  N2  UNL     1      24.223   2.509  52.388  1.00  0.00    -0.370 N 
HETATM   23  C19 UNL     1      25.272   2.542  53.417  1.00  0.00     0.151 C 
ENDROOT
TORSDOF 0
ENDMDL
MODEL 8
REMARK VINA RESULT:      -7.0      2.288      3.941
REMARK  0 active torsions:
REMARK  status: ('A' for Active; 'I' for Inactive)
ROOT
HETATM    1  C1  UNL     1      17.537   4.175  51.475  1.00  0.00     0.150 C 
HETATM    2  N1  UNL     1      18.189   3.859  50.190  1.00  0.00    -0.379 N 
HETATM    3  C2  UNL     1      18.198   3.656  48.708  1.00  0.00     0.136 C 
HETATM    4  C3  UNL     1      19.676   3.439  48.453  1.00  0.00     0.058 C 
HETATM    5  C4  UNL     1      20.476   4.521  47.950  1.00  0.00    -0.015 C 
HETATM    6  C5  UNL     1      21.530   5.349  48.348  1.00  0.00     0.004 C 
HETATM    7  C6  UNL     1      21.972   5.421  49.814  1.00  0.00     0.052 C 
HETATM    8  S1  UNL     1      21.000   4.629  51.018  1.00  0.00    -0.082 SA
HETATM    9  S2  UNL     1      22.748   4.172  52.174  1.00  0.00    -0.071 SA
HETATM   10  C7  UNL     1      23.151   2.455  51.721  1.00  0.00     0.165 A 
HETATM   11  C8  UNL     1      21.916   1.615  51.461  1.00  0.00     0.055 A 
HETATM   12  C9  UNL     1      21.905   0.985  50.114  1.00  0.00     0.016 C 
HETATM   13  C10 UNL     1      20.639   1.159  49.316  1.00  0.00     0.038 C 
HETATM   14  C11 UNL     1      20.051   2.533  49.536  1.00  0.00    -0.037 C 
HETATM   15  C12 UNL     1      19.603   3.613  50.244  1.00  0.00     0.074 C 
HETATM   16  C13 UNL     1      21.997   0.573  52.546  1.00  0.00    -0.025 A 
HETATM   17  C14 UNL     1      21.017  -0.404  52.763  1.00  0.00     0.010 A 
HETATM   18  C15 UNL     1      21.257  -1.275  53.800  1.00  0.00     0.001 A 
HETATM   19  C16 UNL     1      22.373  -1.224  54.594  1.00  0.00     0.002 A 
HETATM   20  C17 UNL     1      23.312  -0.244  54.340  1.00  0.00     0.030 A 
HETATM   21  C18 UNL     1      23.126   0.658  53.315  1.00  0.00     0.037 A 
HETATM   22  N2  UNL     1      23.836   1.760  52.771  1.00  0.00    -0.370 N 
HETATM   23  C19 UNL     1      25.169   2.141  53.259  1.00  0.00     0.151 C 
ENDROOT
TORSDOF 0
ENDMDL
MODEL 9
REMARK VINA RESULT:      -6.8      3.121      6.944
REMARK  0 active torsions:
REMARK  status: ('A' for Active; 'I' for Inactive)
ROOT
HETATM    1  C1  UNL     1      21.902   1.421  48.354  1.00  0.00     0.150 C 
HETATM    2  N1  UNL     1      22.158   1.413  49.807  1.00  0.00    -0.379 N 
HETATM    3  C2  UNL     1      22.074   0.819  51.177  1.00  0.00     0.136 C 
HETATM    4  C3  UNL     1      22.915   1.798  51.971  1.00  0.00     0.058 C 
HETATM    5  C4  UNL     1      24.274   1.465  52.298  1.00  0.00    -0.015 C 
HETATM    6  C5  UNL     1      25.578   1.881  52.012  1.00  0.00     0.004 C 
HETATM    7  C6  UNL     1      25.868   2.840  50.852  1.00  0.00     0.052 C 
HETATM    8  S1  UNL     1      24.580   3.233  49.752  1.00  0.00    -0.082 SA
HETATM    9  S2  UNL     1      25.367   5.211  49.486  1.00  0.00    -0.071 SA
HETATM   10  C7  UNL     1      24.385   6.242  50.620  1.00  0.00     0.165 A 
HETATM   11  C8  UNL     1      22.945   5.780  50.730  1.00  0.00     0.055 A 
HETATM   12  C9  UNL     1      22.526   5.482  52.126  1.00  0.00     0.016 C 
HETATM   13  C10 UNL     1      21.838   4.160  52.339  1.00  0.00     0.038 C 
HETATM   14  C11 UNL     1      22.452   3.090  51.467  1.00  0.00    -0.037 C 
HETATM   15  C12 UNL     1      22.922   2.516  50.319  1.00  0.00     0.074 C 
HETATM   16  C13 UNL     1      22.182   6.955  50.175  1.00  0.00    -0.025 A 
HETATM   17  C14 UNL     1      20.794   6.971  50.000  1.00  0.00     0.010 A 
HETATM   18  C15 UNL     1      20.267   8.130  49.480  1.00  0.00     0.001 A 
HETATM   19  C16 UNL     1      21.020   9.224  49.141  1.00  0.00     0.002 A 
HETATM   20  C17 UNL     1      22.386   9.160  49.332  1.00  0.00     0.030 A 
HETATM   21  C18 UNL     1      22.971   8.025  49.850  1.00  0.00     0.037 A 
HETATM   22  N2  UNL     1      24.286   7.601  50.176  1.00  0.00    -0.370 N 
HETATM   23  C19 UNL     1      25.442   8.501  50.061  1.00  0.00     0.151 C 
ENDROOT
TORSDOF 0
ENDMDL
