MODEL 1
REMARK VINA RESULT:      -6.1      0.000      0.000
REMARK  7 active torsions:
REMARK  status: ('A' for Active; 'I' for Inactive)
REMARK    1  A    between atoms: C2_2  and  N1_3 
REMARK    2  A    between atoms: N1_3  and  C3_4 
REMARK    3  A    between atoms: C8_10  and  O2_11 
REMARK    4  A    between atoms: O2_11  and  C9_12 
REMARK    5  A    between atoms: C9_12  and  C10_13 
REMARK    6  A    between atoms: C10_13  and  C11_14 
REMARK    7  A    between atoms: C11_14  and  N2_15 
ROOT
HETATM    1  C3  UNL     1      22.711   1.661  52.664  1.00  0.00     0.102 A 
HETATM    2  C4  UNL     1      21.411   1.954  52.504  1.00  0.00     0.085 A 
HETATM    3  C5  UNL     1      21.126   3.373  52.313  1.00  0.00     0.155 A 
HETATM    4  O1  UNL     1      19.909   3.707  52.155  1.00  0.00    -0.293 OA
HETATM    5  C6  UNL     1      22.127   4.493  52.281  1.00  0.00     0.113 A 
HETATM    6  C7  UNL     1      23.483   3.941  52.477  1.00  0.00     0.020 A 
HETATM    7  C8  UNL     1      23.757   2.657  52.652  1.00  0.00     0.095 A 
ENDROOT
BRANCH   7   8
HETATM    8  O2  UNL     1      25.026   2.177  52.831  1.00  0.00    -0.349 OA
BRANCH   8   9
HETATM    9  C9  UNL     1      25.846   1.825  51.690  1.00  0.00     0.177 C 
BRANCH   9  10
HETATM   10  C10 UNL     1      26.579   0.574  52.048  1.00  0.00     0.057 C 
BRANCH  10  11
HETATM   11  C11 UNL     1      26.417   0.050  53.422  1.00  0.00     0.274 C 
BRANCH  11  12
HETATM   12  N2  UNL     1      27.510  -0.607  54.047  1.00  0.00     0.092 N 
HETATM   13  C12 UNL     1      28.348  -1.281  53.127  1.00  0.00     0.298 C 
HETATM   14  C13 UNL     1      29.800  -0.922  53.439  1.00  0.00     0.198 C 
HETATM   15  O3  UNL     1      30.014   0.444  53.437  1.00  0.00    -0.388 OA
HETATM   16  C14 UNL     1      29.217   1.128  54.339  1.00  0.00     0.198 C 
HETATM   17  C15 UNL     1      28.201   0.226  55.005  1.00  0.00     0.298 C 
ENDBRANCH  11  12
ENDBRANCH  10  11
ENDBRANCH   9  10
ENDBRANCH   8   9
ENDBRANCH   7   8
BRANCH   1  18
HETATM   18  N1  UNL     1      22.953   0.253  52.850  1.00  0.00    -0.208 NA
BRANCH  18  19
HETATM   19  C2  UNL     1      22.414  -0.402  53.823  1.00  0.00    -0.043 C 
HETATM   20  C1  UNL     1      22.170  -1.305  54.761  1.00  0.00     0.119 C 
ENDBRANCH  18  19
ENDBRANCH   1  18
TORSDOF 7
ENDMDL
MODEL 2
REMARK VINA RESULT:      -6.1      2.334      6.183
REMARK  7 active torsions:
REMARK  status: ('A' for Active; 'I' for Inactive)
REMARK    1  A    between atoms: C2_2  and  N1_3 
REMARK    2  A    between atoms: N1_3  and  C3_4 
REMARK    3  A    between atoms: C8_10  and  O2_11 
REMARK    4  A    between atoms: O2_11  and  C9_12 
REMARK    5  A    between atoms: C9_12  and  C10_13 
REMARK    6  A    between atoms: C10_13  and  C11_14 
REMARK    7  A    between atoms: C11_14  and  N2_15 
ROOT
HETATM    1  C3  UNL     1      26.604   1.146  53.974  1.00  0.00     0.102 A 
HETATM    2  C4  UNL     1      26.422   0.140  54.844  1.00  0.00     0.085 A 
HETATM    3  C5  UNL     1      25.139  -0.546  54.721  1.00  0.00     0.155 A 
HETATM    4  O1  UNL     1      24.915  -1.509  55.520  1.00  0.00    -0.293 OA
HETATM    5  C6  UNL     1      24.044  -0.234  53.740  1.00  0.00     0.113 A 
HETATM    6  C7  UNL     1      24.460   0.901  52.891  1.00  0.00     0.020 A 
HETATM    7  C8  UNL     1      25.619   1.534  52.991  1.00  0.00     0.095 A 
ENDROOT
BRANCH   7   8
HETATM    8  O2  UNL     1      25.975   2.583  52.186  1.00  0.00    -0.349 OA
BRANCH   8   9
HETATM    9  C9  UNL     1      26.593   2.344  50.898  1.00  0.00     0.177 C 
BRANCH   9  10
HETATM   10  C10 UNL     1      25.830   3.145  49.893  1.00  0.00     0.057 C 
BRANCH  10  11
HETATM   11  C11 UNL     1      25.380   4.498  50.288  1.00  0.00     0.274 C 
BRANCH  11  12
HETATM   12  N2  UNL     1      23.994   4.801  50.266  1.00  0.00     0.092 N 
HETATM   13  C12 UNL     1      23.184   3.667  50.021  1.00  0.00     0.298 C 
HETATM   14  C13 UNL     1      22.049   3.649  51.044  1.00  0.00     0.198 C 
HETATM   15  O3  UNL     1      22.515   3.686  52.344  1.00  0.00    -0.388 OA
HETATM   16  C14 UNL     1      23.299   4.795  52.617  1.00  0.00     0.198 C 
HETATM   17  C15 UNL     1      23.574   5.621  51.380  1.00  0.00     0.298 C 
ENDBRANCH  11  12
ENDBRANCH  10  11
ENDBRANCH   9  10
ENDBRANCH   8   9
ENDBRANCH   7   8
BRANCH   1  18
HETATM   18  N1  UNL     1      27.880   1.798  54.125  1.00  0.00    -0.208 NA
BRANCH  18  19
HETATM   19  C2  UNL     1      28.989   1.151  53.992  1.00  0.00    -0.043 C 
HETATM   20  C1  UNL     1      29.901   0.262  53.628  1.00  0.00     0.119 C 
ENDBRANCH  18  19
ENDBRANCH   1  18
TORSDOF 7
ENDMDL
MODEL 3
REMARK VINA RESULT:      -6.1      1.609      3.092
REMARK  7 active torsions:
REMARK  status: ('A' for Active; 'I' for Inactive)
REMARK    1  A    between atoms: C2_2  and  N1_3 
REMARK    2  A    between atoms: N1_3  and  C3_4 
REMARK    3  A    between atoms: C8_10  and  O2_11 
REMARK    4  A    between atoms: O2_11  and  C9_12 
REMARK    5  A    between atoms: C9_12  and  C10_13 
REMARK    6  A    between atoms: C10_13  and  C11_14 
REMARK    7  A    between atoms: C11_14  and  N2_15 
ROOT
HETATM    1  C3  UNL     1      22.772   2.209  52.290  1.00  0.00     0.102 A 
HETATM    2  C4  UNL     1      21.773   3.093  52.138  1.00  0.00     0.085 A 
HETATM    3  C5  UNL     1      20.451   2.585  52.490  1.00  0.00     0.155 A 
HETATM    4  O1  UNL     1      19.468   3.382  52.365  1.00  0.00    -0.293 OA
HETATM    5  C6  UNL     1      20.123   1.207  52.991  1.00  0.00     0.113 A 
HETATM    6  C7  UNL     1      21.365   0.412  53.079  1.00  0.00     0.020 A 
HETATM    7  C8  UNL     1      22.571   0.859  52.763  1.00  0.00     0.095 A 
ENDROOT
BRANCH   7   8
HETATM    8  O2  UNL     1      23.704   0.096  52.856  1.00  0.00    -0.349 OA
BRANCH   8   9
HETATM    9  C9  UNL     1      24.019  -0.603  54.085  1.00  0.00     0.177 C 
BRANCH   9  10
HETATM   10  C10 UNL     1      25.500  -0.521  54.267  1.00  0.00     0.057 C 
BRANCH  10  11
HETATM   11  C11 UNL     1      26.357  -0.936  53.135  1.00  0.00     0.274 C 
BRANCH  11  12
HETATM   12  N2  UNL     1      27.438  -0.105  52.743  1.00  0.00     0.092 N 
HETATM   13  C12 UNL     1      27.117   1.273  52.783  1.00  0.00     0.298 C 
HETATM   14  C13 UNL     1      28.241   2.013  53.507  1.00  0.00     0.198 C 
HETATM   15  O3  UNL     1      28.482   1.497  54.766  1.00  0.00    -0.388 OA
HETATM   16  C14 UNL     1      28.813   0.152  54.756  1.00  0.00     0.198 C 
HETATM   17  C15 UNL     1      28.687  -0.459  53.378  1.00  0.00     0.298 C 
ENDBRANCH  11  12
ENDBRANCH  10  11
ENDBRANCH   9  10
ENDBRANCH   8   9
ENDBRANCH   7   8
BRANCH   1  18
HETATM   18  N1  UNL     1      24.060   2.746  51.933  1.00  0.00    -0.208 NA
BRANCH  18  19
HETATM   19  C2  UNL     1      24.365   3.008  50.706  1.00  0.00    -0.043 C 
HETATM   20  C1  UNL     1      25.014   3.388  49.615  1.00  0.00     0.119 C 
ENDBRANCH  18  19
ENDBRANCH   1  18
TORSDOF 7
ENDMDL
MODEL 4
REMARK VINA RESULT:      -6.0      1.804      6.987
REMARK  7 active torsions:
REMARK  status: ('A' for Active; 'I' for Inactive)
REMARK    1  A    between atoms: C2_2  and  N1_3 
REMARK    2  A    between atoms: N1_3  and  C3_4 
REMARK    3  A    between atoms: C8_10  and  O2_11 
REMARK    4  A    between atoms: O2_11  and  C9_12 
REMARK    5  A    between atoms: C9_12  and  C10_13 
REMARK    6  A    between atoms: C10_13  and  C11_14 
REMARK    7  A    between atoms: C11_14  and  N2_15 
ROOT
HETATM    1  C3  UNL     1      26.844   1.797  52.971  1.00  0.00     0.102 A 
HETATM    2  C4  UNL     1      27.921   2.462  53.422  1.00  0.00     0.085 A 
HETATM    3  C5  UNL     1      28.746   1.714  54.366  1.00  0.00     0.155 A 
HETATM    4  O1  UNL     1      29.779   2.296  54.824  1.00  0.00    -0.293 OA
HETATM    5  C6  UNL     1      28.503   0.315  54.859  1.00  0.00     0.113 A 
HETATM    6  C7  UNL     1      27.273  -0.214  54.236  1.00  0.00     0.020 A 
HETATM    7  C8  UNL     1      26.514   0.452  53.379  1.00  0.00     0.095 A 
ENDROOT
BRANCH   7   8
HETATM    8  O2  UNL     1      25.379  -0.069  52.818  1.00  0.00    -0.349 OA
BRANCH   8   9
HETATM    9  C9  UNL     1      24.304  -0.560  53.656  1.00  0.00     0.177 C 
BRANCH   9  10
HETATM   10  C10 UNL     1      23.023  -0.231  52.960  1.00  0.00     0.057 C 
BRANCH  10  11
HETATM   11  C11 UNL     1      22.969   1.018  52.169  1.00  0.00     0.274 C 
BRANCH  11  12
HETATM   12  N2  UNL     1      21.781   1.340  51.463  1.00  0.00     0.092 N 
HETATM   13  C12 UNL     1      20.613   0.855  52.098  1.00  0.00     0.298 C 
HETATM   14  C13 UNL     1      19.585   1.985  52.153  1.00  0.00     0.198 C 
HETATM   15  O3  UNL     1      20.084   3.116  52.771  1.00  0.00    -0.388 OA
HETATM   16  C14 UNL     1      21.219   3.621  52.161  1.00  0.00     0.198 C 
HETATM   17  C15 UNL     1      21.722   2.725  51.052  1.00  0.00     0.298 C 
ENDBRANCH  11  12
ENDBRANCH  10  11
ENDBRANCH   9  10
ENDBRANCH   8   9
ENDBRANCH   7   8
BRANCH   1  18
HETATM   18  N1  UNL     1      26.055   2.566  52.043  1.00  0.00    -0.208 NA
BRANCH  18  19
HETATM   19  C2  UNL     1      26.486   2.842  50.858  1.00  0.00    -0.043 C 
HETATM   20  C1  UNL     1      26.551   3.220  49.590  1.00  0.00     0.119 C 
ENDBRANCH  18  19
ENDBRANCH   1  18
TORSDOF 7
ENDMDL
MODEL 5
REMARK VINA RESULT:      -6.0      1.873      3.247
REMARK  7 active torsions:
REMARK  status: ('A' for Active; 'I' for Inactive)
REMARK    1  A    between atoms: C2_2  and  N1_3 
REMARK    2  A    between atoms: N1_3  and  C3_4 
REMARK    3  A    between atoms: C8_10  and  O2_11 
REMARK    4  A    between atoms: O2_11  and  C9_12 
REMARK    5  A    between atoms: C9_12  and  C10_13 
REMARK    6  A    between atoms: C10_13  and  C11_14 
REMARK    7  A    between atoms: C11_14  and  N2_15 
ROOT
HETATM    1  C3  UNL     1      22.280   0.316  52.617  1.00  0.00     0.102 A 
HETATM    2  C4  UNL     1      21.270  -0.404  53.132  1.00  0.00     0.085 A 
HETATM    3  C5  UNL     1      21.639  -1.246  54.266  1.00  0.00     0.155 A 
HETATM    4  O1  UNL     1      20.720  -1.949  54.793  1.00  0.00    -0.293 OA
HETATM    5  C6  UNL     1      23.002  -1.371  54.885  1.00  0.00     0.113 A 
HETATM    6  C7  UNL     1      23.948  -0.497  54.162  1.00  0.00     0.020 A 
HETATM    7  C8  UNL     1      23.629   0.272  53.131  1.00  0.00     0.095 A 
ENDROOT
BRANCH   7   8
HETATM    8  O2  UNL     1      24.530   1.072  52.483  1.00  0.00    -0.349 OA
BRANCH   8   9
HETATM    9  C9  UNL     1      24.897   2.361  53.033  1.00  0.00     0.177 C 
BRANCH   9  10
HETATM   10  C10 UNL     1      26.164   2.163  53.800  1.00  0.00     0.057 C 
BRANCH  10  11
HETATM   11  C11 UNL     1      27.198   1.286  53.209  1.00  0.00     0.274 C 
BRANCH  11  12
HETATM   12  N2  UNL     1      27.527   0.068  53.858  1.00  0.00     0.092 N 
HETATM   13  C12 UNL     1      27.505  -1.046  52.985  1.00  0.00     0.298 C 
HETATM   14  C13 UNL     1      28.783  -1.856  53.197  1.00  0.00     0.198 C 
HETATM   15  O3  UNL     1      29.921  -1.089  53.035  1.00  0.00    -0.388 OA
HETATM   16  C14 UNL     1      29.978   0.001  53.887  1.00  0.00     0.198 C 
HETATM   17  C15 UNL     1      28.706   0.168  54.689  1.00  0.00     0.298 C 
ENDBRANCH  11  12
ENDBRANCH  10  11
ENDBRANCH   9  10
ENDBRANCH   8   9
ENDBRANCH   7   8
BRANCH   1  18
HETATM   18  N1  UNL     1      21.878   1.132  51.501  1.00  0.00    -0.208 NA
BRANCH  18  19
HETATM   19  C2  UNL     1      21.223   2.232  51.669  1.00  0.00    -0.043 C 
HETATM   20  C1  UNL     1      20.429   3.171  52.162  1.00  0.00     0.119 C 
ENDBRANCH  18  19
ENDBRANCH   1  18
TORSDOF 7
ENDMDL
MODEL 6
REMARK VINA RESULT:      -5.9      2.695      5.516
REMARK  7 active torsions:
REMARK  status: ('A' for Active; 'I' for Inactive)
REMARK    1  A    between atoms: C2_2  and  N1_3 
REMARK    2  A    between atoms: N1_3  and  C3_4 
REMARK    3  A    between atoms: C8_10  and  O2_11 
REMARK    4  A    between atoms: O2_11  and  C9_12 
REMARK    5  A    between atoms: C9_12  and  C10_13 
REMARK    6  A    between atoms: C10_13  and  C11_14 
REMARK    7  A    between atoms: C11_14  and  N2_15 
ROOT
HETATM    1  C3  UNL     1      24.659   0.278  53.352  1.00  0.00     0.102 A 
HETATM    2  C4  UNL     1      25.595  -0.544  53.853  1.00  0.00     0.085 A 
HETATM    3  C5  UNL     1      26.864   0.103  54.175  1.00  0.00     0.155 A 
HETATM    4  O1  UNL     1      27.786  -0.629  54.654  1.00  0.00    -0.293 OA
HETATM    5  C6  UNL     1      27.199   1.557  54.000  1.00  0.00     0.113 A 
HETATM    6  C7  UNL     1      26.030   2.264  53.438  1.00  0.00     0.020 A 
HETATM    7  C8  UNL     1      24.874   1.691  53.140  1.00  0.00     0.095 A 
ENDROOT
BRANCH   7   8
HETATM    8  O2  UNL     1      23.808   2.374  52.621  1.00  0.00    -0.349 OA
BRANCH   8   9
HETATM    9  C9  UNL     1      23.680   3.803  52.826  1.00  0.00     0.177 C 
BRANCH   9  10
HETATM   10  C10 UNL     1      23.388   4.411  51.493  1.00  0.00     0.057 C 
BRANCH  10  11
HETATM   11  C11 UNL     1      24.389   5.341  50.926  1.00  0.00     0.274 C 
BRANCH  11  12
HETATM   12  N2  UNL     1      24.903   5.096  49.626  1.00  0.00     0.092 N 
HETATM   13  C12 UNL     1      25.999   5.930  49.300  1.00  0.00     0.298 C 
HETATM   14  C13 UNL     1      27.112   5.063  48.715  1.00  0.00     0.198 C 
HETATM   15  O3  UNL     1      27.474   4.033  49.562  1.00  0.00    -0.388 OA
HETATM   16  C14 UNL     1      26.423   3.191  49.886  1.00  0.00     0.198 C 
HETATM   17  C15 UNL     1      25.101   3.692  49.348  1.00  0.00     0.298 C 
ENDBRANCH  11  12
ENDBRANCH  10  11
ENDBRANCH   9  10
ENDBRANCH   8   9
ENDBRANCH   7   8
BRANCH   1  18
HETATM   18  N1  UNL     1      23.423  -0.396  53.046  1.00  0.00    -0.208 NA
BRANCH  18  19
HETATM   19  C2  UNL     1      22.624  -0.797  53.978  1.00  0.00    -0.043 C 
HETATM   20  C1  UNL     1      21.666  -0.844  54.891  1.00  0.00     0.119 C 
ENDBRANCH  18  19
ENDBRANCH   1  18
TORSDOF 7
ENDMDL
MODEL 7
REMARK VINA RESULT:      -5.9      2.460      7.115
REMARK  7 active torsions:
REMARK  status: ('A' for Active; 'I' for Inactive)
REMARK    1  A    between atoms: C2_2  and  N1_3 
REMARK    2  A    between atoms: N1_3  and  C3_4 
REMARK    3  A    between atoms: C8_10  and  O2_11 
REMARK    4  A    between atoms: O2_11  and  C9_12 
REMARK    5  A    between atoms: C9_12  and  C10_13 
REMARK    6  A    between atoms: C10_13  and  C11_14 
REMARK    7  A    between atoms: C11_14  and  N2_15 
ROOT
HETATM    1  C3  UNL     1      24.447   1.085  52.688  1.00  0.00     0.102 A 
HETATM    2  C4  UNL     1      25.497   1.908  52.847  1.00  0.00     0.085 A 
HETATM    3  C5  UNL     1      26.428   1.509  53.899  1.00  0.00     0.155 A 
HETATM    4  O1  UNL     1      27.442   2.252  54.091  1.00  0.00    -0.293 OA
HETATM    5  C6  UNL     1      26.317   0.302  54.786  1.00  0.00     0.113 A 
HETATM    6  C7  UNL     1      25.094  -0.449  54.436  1.00  0.00     0.020 A 
HETATM    7  C8  UNL     1      24.240  -0.100  53.486  1.00  0.00     0.095 A 
ENDROOT
BRANCH   7   8
HETATM    8  O2  UNL     1      23.115  -0.820  53.185  1.00  0.00    -0.349 OA
BRANCH   8   9
HETATM    9  C9  UNL     1      22.275  -1.345  54.242  1.00  0.00     0.177 C 
BRANCH   9  10
HETATM   10  C10 UNL     1      21.432  -0.213  54.733  1.00  0.00     0.057 C 
BRANCH  10  11
HETATM   11  C11 UNL     1      20.560   0.472  53.753  1.00  0.00     0.274 C 
BRANCH  11  12
HETATM   12  N2  UNL     1      19.930  -0.289  52.735  1.00  0.00     0.092 N 
HETATM   13  C12 UNL     1      18.695  -0.846  53.146  1.00  0.00     0.298 C 
HETATM   14  C13 UNL     1      17.652  -0.567  52.066  1.00  0.00     0.198 C 
HETATM   15  O3  UNL     1      17.546   0.780  51.775  1.00  0.00    -0.388 OA
HETATM   16  C14 UNL     1      18.737   1.349  51.356  1.00  0.00     0.198 C 
HETATM   17  C15 UNL     1      19.899   0.386  51.457  1.00  0.00     0.298 C 
ENDBRANCH  11  12
ENDBRANCH  10  11
ENDBRANCH   9  10
ENDBRANCH   8   9
ENDBRANCH   7   8
BRANCH   1  18
HETATM   18  N1  UNL     1      23.552   1.511  51.643  1.00  0.00    -0.208 NA
BRANCH  18  19
HETATM   19  C2  UNL     1      22.848   2.588  51.753  1.00  0.00    -0.043 C 
HETATM   20  C1  UNL     1      22.261   3.674  52.233  1.00  0.00     0.119 C 
ENDBRANCH  18  19
ENDBRANCH   1  18
TORSDOF 7
ENDMDL
MODEL 8
REMARK VINA RESULT:      -5.9      1.983      2.578
REMARK  7 active torsions:
REMARK  status: ('A' for Active; 'I' for Inactive)
REMARK    1  A    between atoms: C2_2  and  N1_3 
REMARK    2  A    between atoms: N1_3  and  C3_4 
REMARK    3  A    between atoms: C8_10  and  O2_11 
REMARK    4  A    between atoms: O2_11  and  C9_12 
REMARK    5  A    between atoms: C9_12  and  C10_13 
REMARK    6  A    between atoms: C10_13  and  C11_14 
REMARK    7  A    between atoms: C11_14  and  N2_15 
ROOT
HETATM    1  C3  UNL     1      21.473   0.823  52.029  1.00  0.00     0.102 A 
HETATM    2  C4  UNL     1      20.174   0.626  51.749  1.00  0.00     0.085 A 
HETATM    3  C5  UNL     1      19.810   0.862  50.355  1.00  0.00     0.155 A 
HETATM    4  O1  UNL     1      18.592   0.689  50.034  1.00  0.00    -0.293 OA
HETATM    5  C6  UNL     1      20.730   1.291  49.247  1.00  0.00     0.113 A 
HETATM    6  C7  UNL     1      22.098   1.447  49.782  1.00  0.00     0.020 A 
HETATM    7  C8  UNL     1      22.443   1.238  51.044  1.00  0.00     0.095 A 
ENDROOT
BRANCH   7   8
HETATM    8  O2  UNL     1      23.722   1.390  51.508  1.00  0.00    -0.349 OA
BRANCH   8   9
HETATM    9  C9  UNL     1      24.198   2.690  51.935  1.00  0.00     0.177 C 
BRANCH   9  10
HETATM   10  C10 UNL     1      24.924   2.487  53.225  1.00  0.00     0.057 C 
BRANCH  10  11
HETATM   11  C11 UNL     1      25.651   1.213  53.413  1.00  0.00     0.274 C 
BRANCH  11  12
HETATM   12  N2  UNL     1      27.003   1.117  52.992  1.00  0.00     0.092 N 
HETATM   13  C12 UNL     1      27.734   2.311  53.206  1.00  0.00     0.298 C 
HETATM   14  C13 UNL     1      29.060   1.956  53.876  1.00  0.00     0.198 C 
HETATM   15  O3  UNL     1      28.882   1.237  55.042  1.00  0.00    -0.388 OA
HETATM   16  C14 UNL     1      28.183   0.056  54.861  1.00  0.00     0.198 C 
HETATM   17  C15 UNL     1      27.657  -0.088  53.450  1.00  0.00     0.298 C 
ENDBRANCH  11  12
ENDBRANCH  10  11
ENDBRANCH   9  10
ENDBRANCH   8   9
ENDBRANCH   7   8
BRANCH   1  18
HETATM   18  N1  UNL     1      21.793   0.582  53.413  1.00  0.00    -0.208 NA
BRANCH  18  19
HETATM   19  C2  UNL     1      21.835  -0.615  53.897  1.00  0.00    -0.043 C 
HETATM   20  C1  UNL     1      21.929  -1.643  54.727  1.00  0.00     0.119 C 
ENDBRANCH  18  19
ENDBRANCH   1  18
TORSDOF 7
ENDMDL
MODEL 9
REMARK VINA RESULT:      -5.9      5.068      6.779
REMARK  7 active torsions:
REMARK  status: ('A' for Active; 'I' for Inactive)
REMARK    1  A    between atoms: C2_2  and  N1_3 
REMARK    2  A    between atoms: N1_3  and  C3_4 
REMARK    3  A    between atoms: C8_10  and  O2_11 
REMARK    4  A    between atoms: O2_11  and  C9_12 
REMARK    5  A    between atoms: C9_12  and  C10_13 
REMARK    6  A    between atoms: C10_13  and  C11_14 
REMARK    7  A    between atoms: C11_14  and  N2_15 
ROOT
HETATM    1  C3  UNL     1      28.219   5.689  48.321  1.00  0.00     0.102 A 
HETATM    2  C4  UNL     1      28.188   6.889  47.720  1.00  0.00     0.085 A 
HETATM    3  C5  UNL     1      26.874   7.526  47.701  1.00  0.00     0.155 A 
HETATM    4  O1  UNL     1      26.788   8.666  47.145  1.00  0.00    -0.293 OA
HETATM    5  C6  UNL     1      25.600   6.974  48.276  1.00  0.00     0.113 A 
HETATM    6  C7  UNL     1      25.870   5.654  48.881  1.00  0.00     0.020 A 
HETATM    7  C8  UNL     1      27.055   5.063  48.905  1.00  0.00     0.095 A 
ENDROOT
BRANCH   7   8
HETATM    8  O2  UNL     1      27.273   3.838  49.475  1.00  0.00    -0.349 OA
BRANCH   8   9
HETATM    9  C9  UNL     1      26.170   3.078  50.027  1.00  0.00     0.177 C 
BRANCH   9  10
HETATM   10  C10 UNL     1      26.668   2.430  51.277  1.00  0.00     0.057 C 
BRANCH  10  11
HETATM   11  C11 UNL     1      25.665   1.914  52.233  1.00  0.00     0.274 C 
BRANCH  11  12
HETATM   12  N2  UNL     1      25.593   0.517  52.477  1.00  0.00     0.092 N 
HETATM   13  C12 UNL     1      26.701  -0.192  51.955  1.00  0.00     0.298 C 
HETATM   14  C13 UNL     1      27.226  -1.137  53.034  1.00  0.00     0.198 C 
HETATM   15  O3  UNL     1      27.536  -0.474  54.206  1.00  0.00    -0.388 OA
HETATM   16  C14 UNL     1      26.466   0.217  54.748  1.00  0.00     0.198 C 
HETATM   17  C15 UNL     1      25.253   0.195  53.844  1.00  0.00     0.298 C 
ENDBRANCH  11  12
ENDBRANCH  10  11
ENDBRANCH   9  10
ENDBRANCH   8   9
ENDBRANCH   7   8
BRANCH   1  18
HETATM   18  N1  UNL     1      29.530   5.092  48.319  1.00  0.00    -0.208 NA
BRANCH  18  19
HETATM   19  C2  UNL     1      30.566   5.739  47.902  1.00  0.00    -0.043 C 
HETATM   20  C1  UNL     1      31.732   6.045  47.352  1.00  0.00     0.119 C 
ENDBRANCH  18  19
ENDBRANCH   1  18
TORSDOF 7
ENDMDL
