MODEL 1
REMARK VINA RESULT:      -7.7      0.000      0.000
REMARK  7 active torsions:
REMARK  status: ('A' for Active; 'I' for Inactive)
REMARK    1  A    between atoms: N1_2  and  C1_3 
REMARK    2  A    between atoms: C1_3  and  C2_4 
REMARK    3  A    between atoms: C3_5  and  C4_6 
REMARK    4  A    between atoms: C6_8  and  C7_9 
REMARK    5  A    between atoms: C7_9  and  S1_10 
REMARK    6  A    between atoms: S1_10  and  C8_11 
REMARK    7  A    between atoms: C14_17  and  O2_18 
ROOT
HETATM    1  C4  UNL     1      23.007   1.755  52.296  1.00  0.00    -0.056 C 
HETATM    2  C5  UNL     1      24.307   1.623  52.005  1.00  0.00     0.017 C 
HETATM    3  C6  UNL     1      25.229   2.588  51.413  1.00  0.00    -0.017 C 
HETATM    4  C14 UNL     1      25.095   3.781  50.808  1.00  0.00     0.074 C 
HETATM    5  C15 UNL     1      23.917   4.653  50.472  1.00  0.00     0.232 C 
HETATM    6  O3  UNL     1      22.808   3.805  50.357  1.00  0.00    -0.384 OA
HETATM    7  C16 UNL     1      22.017   3.908  51.464  1.00  0.00     0.172 C 
HETATM    8  C17 UNL     1      21.866   2.660  52.263  1.00  0.00     0.064 C 
ENDROOT
BRANCH   3   9
HETATM    9  C7  UNL     1      26.609   2.120  51.520  1.00  0.00     0.120 C 
BRANCH   9  10
HETATM   10  S1  UNL     1      27.081   1.607  53.180  1.00  0.00    -0.125 SA
BRANCH  10  11
HETATM   11  C8  UNL     1      27.653  -0.091  53.094  1.00  0.00     0.000 A 
HETATM   12  C9  UNL     1      26.863  -1.128  52.642  1.00  0.00     0.018 A 
HETATM   13  C10 UNL     1      27.415  -2.405  52.620  1.00  0.00     0.001 A 
HETATM   14  C11 UNL     1      28.719  -2.625  53.038  1.00  0.00     0.000 A 
HETATM   15  C12 UNL     1      29.488  -1.552  53.487  1.00  0.00     0.001 A 
HETATM   16  C13 UNL     1      28.955  -0.257  53.520  1.00  0.00     0.018 A 
ENDBRANCH  10  11
ENDBRANCH   9  10
ENDBRANCH   3   9
BRANCH   4  17
HETATM   17  O2  UNL     1      26.319   4.299  50.418  1.00  0.00    -0.362 OA
HETATM   18  H13 UNL     1      26.997   3.750  49.899  1.00  0.00     0.217 HD
ENDBRANCH   4  17
BRANCH   1  19
HETATM   19  C3  UNL     1      22.565   0.464  52.881  1.00  0.00     0.005 C 
HETATM   20  C2  UNL     1      21.653   0.287  53.852  1.00  0.00    -0.003 C 
BRANCH  20  21
HETATM   21  C1  UNL     1      21.175  -0.951  54.471  1.00  0.00     0.209 C 
BRANCH  21  22
HETATM   22  N1  UNL     1      22.288  -1.775  54.833  1.00  0.00    -0.137 NA
HETATM   23  O1  UNL     1      22.910  -1.584  55.830  1.00  0.00    -0.067 OA
ENDBRANCH  21  22
ENDBRANCH  20  21
ENDBRANCH   1  19
TORSDOF 7
ENDMDL
MODEL 2
REMARK VINA RESULT:      -7.6      2.360      4.613
REMARK  7 active torsions:
REMARK  status: ('A' for Active; 'I' for Inactive)
REMARK    1  A    between atoms: N1_2  and  C1_3 
REMARK    2  A    between atoms: C1_3  and  C2_4 
REMARK    3  A    between atoms: C3_5  and  C4_6 
REMARK    4  A    between atoms: C6_8  and  C7_9 
REMARK    5  A    between atoms: C7_9  and  S1_10 
REMARK    6  A    between atoms: S1_10  and  C8_11 
REMARK    7  A    between atoms: C14_17  and  O2_18 
ROOT
HETATM    1  C4  UNL     1      22.710   1.068  51.662  1.00  0.00    -0.056 C 
HETATM    2  C5  UNL     1      23.527   0.651  52.639  1.00  0.00     0.017 C 
HETATM    3  C6  UNL     1      23.268  -0.278  53.734  1.00  0.00    -0.017 C 
HETATM    4  C14 UNL     1      22.169  -0.855  54.249  1.00  0.00     0.074 C 
HETATM    5  C15 UNL     1      20.704  -0.790  53.916  1.00  0.00     0.232 C 
HETATM    6  O3  UNL     1      20.486   0.448  53.297  1.00  0.00    -0.384 OA
HETATM    7  C16 UNL     1      20.341   0.284  51.950  1.00  0.00     0.172 C 
HETATM    8  C17 UNL     1      21.368   0.959  51.108  1.00  0.00     0.064 C 
ENDROOT
BRANCH   3   9
HETATM    9  C7  UNL     1      24.512  -0.650  54.404  1.00  0.00     0.120 C 
BRANCH   9  10
HETATM   10  S1  UNL     1      25.894   0.444  54.041  1.00  0.00    -0.125 SA
BRANCH  10  11
HETATM   11  C8  UNL     1      27.329  -0.574  53.685  1.00  0.00     0.000 A 
HETATM   12  C9  UNL     1      27.243  -1.796  53.051  1.00  0.00     0.018 A 
HETATM   13  C10 UNL     1      28.425  -2.497  52.829  1.00  0.00     0.001 A 
HETATM   14  C11 UNL     1      29.647  -1.980  53.231  1.00  0.00     0.000 A 
HETATM   15  C12 UNL     1      29.694  -0.740  53.869  1.00  0.00     0.001 A 
HETATM   16  C13 UNL     1      28.519  -0.015  54.105  1.00  0.00     0.018 A 
ENDBRANCH  10  11
ENDBRANCH   9  10
ENDBRANCH   3   9
BRANCH   4  17
HETATM   17  O2  UNL     1      22.475  -1.682  55.316  1.00  0.00    -0.362 OA
HETATM   18  H13 UNL     1      22.607  -1.324  56.258  1.00  0.00     0.217 HD
ENDBRANCH   4  17
BRANCH   1  19
HETATM   19  C3  UNL     1      23.491   2.010  50.823  1.00  0.00     0.005 C 
HETATM   20  C2  UNL     1      24.598   2.683  51.178  1.00  0.00    -0.003 C 
BRANCH  20  21
HETATM   21  C1  UNL     1      25.411   3.623  50.403  1.00  0.00     0.209 C 
BRANCH  21  22
HETATM   22  N1  UNL     1      26.793   3.265  50.499  1.00  0.00    -0.137 NA
HETATM   23  O1  UNL     1      27.193   2.540  51.354  1.00  0.00    -0.067 OA
ENDBRANCH  21  22
ENDBRANCH  20  21
ENDBRANCH   1  19
TORSDOF 7
ENDMDL
MODEL 3
REMARK VINA RESULT:      -7.6      2.896      6.048
REMARK  7 active torsions:
REMARK  status: ('A' for Active; 'I' for Inactive)
REMARK    1  A    between atoms: N1_2  and  C1_3 
REMARK    2  A    between atoms: C1_3  and  C2_4 
REMARK    3  A    between atoms: C3_5  and  C4_6 
REMARK    4  A    between atoms: C6_8  and  C7_9 
REMARK    5  A    between atoms: C7_9  and  S1_10 
REMARK    6  A    between atoms: S1_10  and  C8_11 
REMARK    7  A    between atoms: C14_17  and  O2_18 
ROOT
HETATM    1  C4  UNL     1      24.961   0.295  53.240  1.00  0.00    -0.056 C 
HETATM    2  C5  UNL     1      24.631   1.040  52.177  1.00  0.00     0.017 C 
HETATM    3  C6  UNL     1      23.313   1.344  51.629  1.00  0.00    -0.017 C 
HETATM    4  C14 UNL     1      22.068   0.880  51.836  1.00  0.00     0.074 C 
HETATM    5  C15 UNL     1      21.485  -0.175  52.735  1.00  0.00     0.232 C 
HETATM    6  O3  UNL     1      22.510  -1.096  52.993  1.00  0.00    -0.384 OA
HETATM    7  C16 UNL     1      23.004  -0.912  54.251  1.00  0.00     0.172 C 
HETATM    8  C17 UNL     1      24.440  -0.524  54.326  1.00  0.00     0.064 C 
ENDROOT
BRANCH   3   9
HETATM    9  C7  UNL     1      23.399   2.406  50.629  1.00  0.00     0.120 C 
BRANCH   9  10
HETATM   10  S1  UNL     1      24.002   3.973  51.276  1.00  0.00    -0.125 SA
BRANCH  10  11
HETATM   11  C8  UNL     1      25.326   4.543  50.206  1.00  0.00     0.000 A 
HETATM   12  C9  UNL     1      26.341   3.719  49.766  1.00  0.00     0.018 A 
HETATM   13  C10 UNL     1      27.314   4.273  48.938  1.00  0.00     0.001 A 
HETATM   14  C11 UNL     1      27.261   5.609  48.570  1.00  0.00     0.000 A 
HETATM   15  C12 UNL     1      26.218   6.410  49.035  1.00  0.00     0.001 A 
HETATM   16  C13 UNL     1      25.227   5.877  49.869  1.00  0.00     0.018 A 
ENDBRANCH  10  11
ENDBRANCH   9  10
ENDBRANCH   3   9
BRANCH   4  17
HETATM   17  O2  UNL     1      21.140   1.525  51.037  1.00  0.00    -0.362 OA
HETATM   18  H13 UNL     1      20.898   2.503  51.171  1.00  0.00     0.217 HD
ENDBRANCH   4  17
BRANCH   1  19
HETATM   19  C3  UNL     1      26.441   0.323  53.341  1.00  0.00     0.005 C 
HETATM   20  C2  UNL     1      27.177   0.241  54.462  1.00  0.00    -0.003 C 
BRANCH  20  21
HETATM   21  C1  UNL     1      28.631   0.263  54.630  1.00  0.00     0.209 C 
BRANCH  21  22
HETATM   22  N1  UNL     1      29.051   1.559  55.069  1.00  0.00    -0.137 NA
HETATM   23  O1  UNL     1      29.011   2.507  54.350  1.00  0.00    -0.067 OA
ENDBRANCH  21  22
ENDBRANCH  20  21
ENDBRANCH   1  19
TORSDOF 7
ENDMDL
MODEL 4
REMARK VINA RESULT:      -7.5      2.808      5.815
REMARK  7 active torsions:
REMARK  status: ('A' for Active; 'I' for Inactive)
REMARK    1  A    between atoms: N1_2  and  C1_3 
REMARK    2  A    between atoms: C1_3  and  C2_4 
REMARK    3  A    between atoms: C3_5  and  C4_6 
REMARK    4  A    between atoms: C6_8  and  C7_9 
REMARK    5  A    between atoms: C7_9  and  S1_10 
REMARK    6  A    between atoms: S1_10  and  C8_11 
REMARK    7  A    between atoms: C14_17  and  O2_18 
ROOT
HETATM    1  C4  UNL     1      23.905   0.514  53.042  1.00  0.00    -0.056 C 
HETATM    2  C5  UNL     1      23.570   1.637  52.395  1.00  0.00     0.017 C 
HETATM    3  C6  UNL     1      22.291   2.339  52.353  1.00  0.00    -0.017 C 
HETATM    4  C14 UNL     1      21.036   2.050  52.740  1.00  0.00     0.074 C 
HETATM    5  C15 UNL     1      20.396   0.857  53.394  1.00  0.00     0.232 C 
HETATM    6  O3  UNL     1      21.182  -0.254  53.063  1.00  0.00    -0.384 OA
HETATM    7  C16 UNL     1      21.949  -0.625  54.130  1.00  0.00     0.172 C 
HETATM    8  C17 UNL     1      23.421  -0.541  53.922  1.00  0.00     0.064 C 
ENDROOT
BRANCH   3   9
HETATM    9  C7  UNL     1      22.442   3.659  51.745  1.00  0.00     0.120 C 
BRANCH   9  10
HETATM   10  S1  UNL     1      22.652   3.621  49.957  1.00  0.00    -0.125 SA
BRANCH  10  11
HETATM   11  C8  UNL     1      24.342   4.095  49.587  1.00  0.00     0.000 A 
HETATM   12  C9  UNL     1      25.416   3.249  49.770  1.00  0.00     0.018 A 
HETATM   13  C10 UNL     1      26.684   3.728  49.448  1.00  0.00     0.001 A 
HETATM   14  C11 UNL     1      26.856   5.013  48.958  1.00  0.00     0.000 A 
HETATM   15  C12 UNL     1      25.746   5.840  48.785  1.00  0.00     0.001 A 
HETATM   16  C13 UNL     1      24.461   5.382  49.102  1.00  0.00     0.018 A 
ENDBRANCH  10  11
ENDBRANCH   9  10
ENDBRANCH   3   9
BRANCH   4  17
HETATM   17  O2  UNL     1      20.162   3.089  52.467  1.00  0.00    -0.362 OA
HETATM   18  H13 UNL     1      19.687   3.603  53.203  1.00  0.00     0.217 HD
ENDBRANCH   4  17
BRANCH   1  19
HETATM   19  C3  UNL     1      25.333   0.251  52.735  1.00  0.00     0.005 C 
HETATM   20  C2  UNL     1      26.027  -0.866  53.011  1.00  0.00    -0.003 C 
BRANCH  20  21
HETATM   21  C1  UNL     1      27.429  -1.187  52.737  1.00  0.00     0.209 C 
BRANCH  21  22
HETATM   22  N1  UNL     1      27.672  -2.572  53.003  1.00  0.00    -0.137 NA
HETATM   23  O1  UNL     1      28.742  -2.965  53.349  1.00  0.00    -0.067 OA
ENDBRANCH  21  22
ENDBRANCH  20  21
ENDBRANCH   1  19
TORSDOF 7
ENDMDL
MODEL 5
REMARK VINA RESULT:      -7.4      3.184      6.250
REMARK  7 active torsions:
REMARK  status: ('A' for Active; 'I' for Inactive)
REMARK    1  A    between atoms: N1_2  and  C1_3 
REMARK    2  A    between atoms: C1_3  and  C2_4 
REMARK    3  A    between atoms: C3_5  and  C4_6 
REMARK    4  A    between atoms: C6_8  and  C7_9 
REMARK    5  A    between atoms: C7_9  and  S1_10 
REMARK    6  A    between atoms: S1_10  and  C8_11 
REMARK    7  A    between atoms: C14_17  and  O2_18 
ROOT
HETATM    1  C4  UNL     1      25.737   0.392  52.638  1.00  0.00    -0.056 C 
HETATM    2  C5  UNL     1      25.579   1.355  51.721  1.00  0.00     0.017 C 
HETATM    3  C6  UNL     1      24.393   2.140  51.395  1.00  0.00    -0.017 C 
HETATM    4  C14 UNL     1      23.089   2.068  51.713  1.00  0.00     0.074 C 
HETATM    5  C15 UNL     1      22.272   1.128  52.557  1.00  0.00     0.232 C 
HETATM    6  O3  UNL     1      22.952  -0.097  52.567  1.00  0.00    -0.384 OA
HETATM    7  C16 UNL     1      23.591  -0.273  53.760  1.00  0.00     0.172 C 
HETATM    8  C17 UNL     1      25.075  -0.375  53.684  1.00  0.00     0.064 C 
ENDROOT
BRANCH   3   9
HETATM    9  C7  UNL     1      24.735   3.259  50.519  1.00  0.00     0.120 C 
BRANCH   9  10
HETATM   10  S1  UNL     1      26.415   3.195  49.875  1.00  0.00    -0.125 SA
BRANCH  10  11
HETATM   11  C8  UNL     1      26.764   4.765  49.079  1.00  0.00     0.000 A 
HETATM   12  C9  UNL     1      28.013   5.102  48.599  1.00  0.00     0.018 A 
HETATM   13  C10 UNL     1      28.164   6.349  48.000  1.00  0.00     0.001 A 
HETATM   14  C11 UNL     1      27.093   7.222  47.891  1.00  0.00     0.000 A 
HETATM   15  C12 UNL     1      25.845   6.846  48.387  1.00  0.00     0.001 A 
HETATM   16  C13 UNL     1      25.666   5.596  48.995  1.00  0.00     0.018 A 
ENDBRANCH  10  11
ENDBRANCH   9  10
ENDBRANCH   3   9
BRANCH   4  17
HETATM   17  O2  UNL     1      22.359   3.087  51.126  1.00  0.00    -0.362 OA
HETATM   18  H13 UNL     1      21.850   3.774  51.675  1.00  0.00     0.217 HD
ENDBRANCH   4  17
BRANCH   1  19
HETATM   19  C3  UNL     1      27.146  -0.066  52.541  1.00  0.00     0.005 C 
HETATM   20  C2  UNL     1      27.904  -0.565  53.531  1.00  0.00    -0.003 C 
BRANCH  20  21
HETATM   21  C1  UNL     1      29.292  -1.032  53.502  1.00  0.00     0.209 C 
BRANCH  21  22
HETATM   22  N1  UNL     1      29.324  -2.462  53.467  1.00  0.00    -0.137 NA
HETATM   23  O1  UNL     1      28.358  -3.103  53.195  1.00  0.00    -0.067 OA
ENDBRANCH  21  22
ENDBRANCH  20  21
ENDBRANCH   1  19
TORSDOF 7
ENDMDL
MODEL 6
REMARK VINA RESULT:      -7.4      2.009      2.512
REMARK  7 active torsions:
REMARK  status: ('A' for Active; 'I' for Inactive)
REMARK    1  A    between atoms: N1_2  and  C1_3 
REMARK    2  A    between atoms: C1_3  and  C2_4 
REMARK    3  A    between atoms: C3_5  and  C4_6 
REMARK    4  A    between atoms: C6_8  and  C7_9 
REMARK    5  A    between atoms: C7_9  and  S1_10 
REMARK    6  A    between atoms: S1_10  and  C8_11 
REMARK    7  A    between atoms: C14_17  and  O2_18 
ROOT
HETATM    1  C4  UNL     1      22.137   0.989  51.107  1.00  0.00    -0.056 C 
HETATM    2  C5  UNL     1      23.232   1.752  51.219  1.00  0.00     0.017 C 
HETATM    3  C6  UNL     1      23.695   2.842  50.366  1.00  0.00    -0.017 C 
HETATM    4  C14 UNL     1      23.348   3.315  49.157  1.00  0.00     0.074 C 
HETATM    5  C15 UNL     1      22.315   2.917  48.140  1.00  0.00     0.232 C 
HETATM    6  O3  UNL     1      22.060   1.554  48.336  1.00  0.00    -0.384 OA
HETATM    7  C16 UNL     1      20.867   1.383  48.976  1.00  0.00     0.172 C 
HETATM    8  C17 UNL     1      20.944   0.730  50.313  1.00  0.00     0.064 C 
ENDROOT
BRANCH   3   9
HETATM    9  C7  UNL     1      24.790   3.571  51.004  1.00  0.00     0.120 C 
BRANCH   9  10
HETATM   10  S1  UNL     1      26.394   2.770  50.839  1.00  0.00    -0.125 SA
BRANCH  10  11
HETATM   11  C8  UNL     1      26.507   1.490  52.092  1.00  0.00     0.000 A 
HETATM   12  C9  UNL     1      26.716   0.161  51.790  1.00  0.00     0.018 A 
HETATM   13  C10 UNL     1      26.786  -0.743  52.846  1.00  0.00     0.001 A 
HETATM   14  C11 UNL     1      26.650  -0.317  54.159  1.00  0.00     0.000 A 
HETATM   15  C12 UNL     1      26.440   1.036  54.425  1.00  0.00     0.001 A 
HETATM   16  C13 UNL     1      26.365   1.965  53.380  1.00  0.00     0.018 A 
ENDBRANCH  10  11
ENDBRANCH   9  10
ENDBRANCH   3   9
BRANCH   4  17
HETATM   17  O2  UNL     1      24.123   4.402  48.788  1.00  0.00    -0.362 OA
HETATM   18  H13 UNL     1      25.138   4.362  48.774  1.00  0.00     0.217 HD
ENDBRANCH   4  17
BRANCH   1  19
HETATM   19  C3  UNL     1      22.160   0.036  52.245  1.00  0.00     0.005 C 
HETATM   20  C2  UNL     1      23.019   0.031  53.278  1.00  0.00    -0.003 C 
BRANCH  20  21
HETATM   21  C1  UNL     1      23.096  -0.875  54.425  1.00  0.00     0.209 C 
BRANCH  21  22
HETATM   22  N1  UNL     1      21.811  -0.986  55.046  1.00  0.00    -0.137 NA
HETATM   23  O1  UNL     1      21.172  -1.989  54.987  1.00  0.00    -0.067 OA
ENDBRANCH  21  22
ENDBRANCH  20  21
ENDBRANCH   1  19
TORSDOF 7
ENDMDL
MODEL 7
REMARK VINA RESULT:      -7.4      2.163      5.237
REMARK  7 active torsions:
REMARK  status: ('A' for Active; 'I' for Inactive)
REMARK    1  A    between atoms: N1_2  and  C1_3 
REMARK    2  A    between atoms: C1_3  and  C2_4 
REMARK    3  A    between atoms: C3_5  and  C4_6 
REMARK    4  A    between atoms: C6_8  and  C7_9 
REMARK    5  A    between atoms: C7_9  and  S1_10 
REMARK    6  A    between atoms: S1_10  and  C8_11 
REMARK    7  A    between atoms: C14_17  and  O2_18 
ROOT
HETATM    1  C4  UNL     1      24.842   0.229  53.154  1.00  0.00    -0.056 C 
HETATM    2  C5  UNL     1      24.654   1.157  52.207  1.00  0.00     0.017 C 
HETATM    3  C6  UNL     1      25.606   2.098  51.626  1.00  0.00    -0.017 C 
HETATM    4  C14 UNL     1      26.854   2.494  51.929  1.00  0.00     0.074 C 
HETATM    5  C15 UNL     1      27.828   2.133  53.016  1.00  0.00     0.232 C 
HETATM    6  O3  UNL     1      27.067   1.693  54.108  1.00  0.00    -0.384 OA
HETATM    7  C16 UNL     1      27.121   0.333  54.205  1.00  0.00     0.172 C 
HETATM    8  C17 UNL     1      25.819  -0.373  54.051  1.00  0.00     0.064 C 
ENDROOT
BRANCH   3   9
HETATM    9  C7  UNL     1      25.042   2.743  50.442  1.00  0.00     0.120 C 
BRANCH   9  10
HETATM   10  S1  UNL     1      23.600   3.766  50.783  1.00  0.00    -0.125 SA
BRANCH  10  11
HETATM   11  C8  UNL     1      22.159   2.698  50.823  1.00  0.00     0.000 A 
HETATM   12  C9  UNL     1      21.983   1.642  49.953  1.00  0.00     0.018 A 
HETATM   13  C10 UNL     1      20.824   0.881  50.079  1.00  0.00     0.001 A 
HETATM   14  C11 UNL     1      19.879   1.178  51.050  1.00  0.00     0.000 A 
HETATM   15  C12 UNL     1      20.092   2.254  51.912  1.00  0.00     0.001 A 
HETATM   16  C13 UNL     1      21.250   3.034  51.806  1.00  0.00     0.018 A 
ENDBRANCH  10  11
ENDBRANCH   9  10
ENDBRANCH   3   9
BRANCH   4  17
HETATM   17  O2  UNL     1      27.325   3.438  51.032  1.00  0.00    -0.362 OA
HETATM   18  H13 UNL     1      26.755   3.792  50.270  1.00  0.00     0.217 HD
ENDBRANCH   4  17
BRANCH   1  19
HETATM   19  C3  UNL     1      23.536  -0.443  53.363  1.00  0.00     0.005 C 
HETATM   20  C2  UNL     1      22.431   0.088  53.914  1.00  0.00    -0.003 C 
BRANCH  20  21
HETATM   21  C1  UNL     1      21.119  -0.517  54.148  1.00  0.00     0.209 C 
BRANCH  21  22
HETATM   22  N1  UNL     1      21.277  -1.807  54.745  1.00  0.00    -0.137 NA
HETATM   23  O1  UNL     1      22.221  -2.072  55.422  1.00  0.00    -0.067 OA
ENDBRANCH  21  22
ENDBRANCH  20  21
ENDBRANCH   1  19
TORSDOF 7
ENDMDL
MODEL 8
REMARK VINA RESULT:      -7.2      2.892      5.974
REMARK  7 active torsions:
REMARK  status: ('A' for Active; 'I' for Inactive)
REMARK    1  A    between atoms: N1_2  and  C1_3 
REMARK    2  A    between atoms: C1_3  and  C2_4 
REMARK    3  A    between atoms: C3_5  and  C4_6 
REMARK    4  A    between atoms: C6_8  and  C7_9 
REMARK    5  A    between atoms: C7_9  and  S1_10 
REMARK    6  A    between atoms: S1_10  and  C8_11 
REMARK    7  A    between atoms: C14_17  and  O2_18 
ROOT
HETATM    1  C4  UNL     1      24.342   0.479  53.074  1.00  0.00    -0.056 C 
HETATM    2  C5  UNL     1      25.019   1.370  52.339  1.00  0.00     0.017 C 
HETATM    3  C6  UNL     1      26.436   1.718  52.373  1.00  0.00    -0.017 C 
HETATM    4  C14 UNL     1      27.459   1.454  53.205  1.00  0.00     0.074 C 
HETATM    5  C15 UNL     1      27.587   0.674  54.484  1.00  0.00     0.232 C 
HETATM    6  O3  UNL     1      26.321   0.676  55.085  1.00  0.00    -0.384 OA
HETATM    7  C16 UNL     1      25.716  -0.535  54.916  1.00  0.00     0.172 C 
HETATM    8  C17 UNL     1      24.449  -0.515  54.134  1.00  0.00     0.064 C 
ENDROOT
BRANCH   3   9
HETATM    9  C7  UNL     1      26.797   2.543  51.222  1.00  0.00     0.120 C 
BRANCH   9  10
HETATM   10  S1  UNL     1      25.398   3.373  50.451  1.00  0.00    -0.125 SA
BRANCH  10  11
HETATM   11  C8  UNL     1      26.032   4.744  49.482  1.00  0.00     0.000 A 
HETATM   12  C9  UNL     1      27.321   4.785  48.993  1.00  0.00     0.018 A 
HETATM   13  C10 UNL     1      27.701   5.901  48.253  1.00  0.00     0.001 A 
HETATM   14  C11 UNL     1      26.809   6.937  48.017  1.00  0.00     0.000 A 
HETATM   15  C12 UNL     1      25.513   6.860  48.527  1.00  0.00     0.001 A 
HETATM   16  C13 UNL     1      25.107   5.747  49.275  1.00  0.00     0.018 A 
ENDBRANCH  10  11
ENDBRANCH   9  10
ENDBRANCH   3   9
BRANCH   4  17
HETATM   17  O2  UNL     1      28.638   2.037  52.771  1.00  0.00    -0.362 OA
HETATM   18  H13 UNL     1      28.664   2.969  52.368  1.00  0.00     0.217 HD
ENDBRANCH   4  17
BRANCH   1  19
HETATM   19  C3  UNL     1      22.929   0.535  52.623  1.00  0.00     0.005 C 
HETATM   20  C2  UNL     1      22.106   1.597  52.673  1.00  0.00    -0.003 C 
BRANCH  20  21
HETATM   21  C1  UNL     1      20.711   1.718  52.248  1.00  0.00     0.209 C 
BRANCH  21  22
HETATM   22  N1  UNL     1      20.146   2.925  52.771  1.00  0.00    -0.137 NA
HETATM   23  O1  UNL     1      19.350   3.562  52.156  1.00  0.00    -0.067 OA
ENDBRANCH  21  22
ENDBRANCH  20  21
ENDBRANCH   1  19
TORSDOF 7
ENDMDL
MODEL 9
REMARK VINA RESULT:      -7.2      2.634      5.053
REMARK  7 active torsions:
REMARK  status: ('A' for Active; 'I' for Inactive)
REMARK    1  A    between atoms: N1_2  and  C1_3 
REMARK    2  A    between atoms: C1_3  and  C2_4 
REMARK    3  A    between atoms: C3_5  and  C4_6 
REMARK    4  A    between atoms: C6_8  and  C7_9 
REMARK    5  A    between atoms: C7_9  and  S1_10 
REMARK    6  A    between atoms: S1_10  and  C8_11 
REMARK    7  A    between atoms: C14_17  and  O2_18 
ROOT
HETATM    1  C4  UNL     1      25.889   3.041  50.878  1.00  0.00    -0.056 C 
HETATM    2  C5  UNL     1      24.746   3.129  51.571  1.00  0.00     0.017 C 
HETATM    3  C6  UNL     1      23.622   4.042  51.395  1.00  0.00    -0.017 C 
HETATM    4  C14 UNL     1      23.409   5.160  50.679  1.00  0.00     0.074 C 
HETATM    5  C15 UNL     1      24.254   5.969  49.734  1.00  0.00     0.232 C 
HETATM    6  O3  UNL     1      25.589   5.742  50.093  1.00  0.00    -0.384 OA
HETATM    7  C16 UNL     1      26.179   4.891  49.204  1.00  0.00     0.172 C 
HETATM    8  C17 UNL     1      26.656   3.600  49.773  1.00  0.00     0.064 C 
ENDROOT
BRANCH   3   9
HETATM    9  C7  UNL     1      22.475   3.615  52.194  1.00  0.00     0.120 C 
BRANCH   9  10
HETATM   10  S1  UNL     1      21.743   2.063  51.649  1.00  0.00    -0.125 SA
BRANCH  10  11
HETATM   11  C8  UNL     1      22.018   0.839  52.932  1.00  0.00     0.000 A 
HETATM   12  C9  UNL     1      21.034   0.441  53.813  1.00  0.00     0.018 A 
HETATM   13  C10 UNL     1      21.365  -0.517  54.768  1.00  0.00     0.001 A 
HETATM   14  C11 UNL     1      22.642  -1.053  54.827  1.00  0.00     0.000 A 
HETATM   15  C12 UNL     1      23.610  -0.627  53.918  1.00  0.00     0.001 A 
HETATM   16  C13 UNL     1      23.303   0.337  52.948  1.00  0.00     0.018 A 
ENDBRANCH  10  11
ENDBRANCH   9  10
ENDBRANCH   3   9
BRANCH   4  17
HETATM   17  O2  UNL     1      22.130   5.657  50.869  1.00  0.00    -0.362 OA
HETATM   18  H13 UNL     1      21.751   6.405  50.297  1.00  0.00     0.217 HD
ENDBRANCH   4  17
BRANCH   1  19
HETATM   19  C3  UNL     1      26.675   1.938  51.485  1.00  0.00     0.005 C 
HETATM   20  C2  UNL     1      27.396   1.987  52.618  1.00  0.00    -0.003 C 
BRANCH  20  21
HETATM   21  C1  UNL     1      28.189   0.941  53.267  1.00  0.00     0.209 C 
BRANCH  21  22
HETATM   22  N1  UNL     1      27.946   0.951  54.677  1.00  0.00    -0.137 NA
HETATM   23  O1  UNL     1      26.857   0.774  55.126  1.00  0.00    -0.067 OA
ENDBRANCH  21  22
ENDBRANCH  20  21
ENDBRANCH   1  19
TORSDOF 7
ENDMDL
