MODEL 1
REMARK VINA RESULT:      -7.7      0.000      0.000
REMARK  5 active torsions:
REMARK  status: ('A' for Active; 'I' for Inactive)
REMARK    1  A    between atoms: C2_2  and  C7_7 
REMARK    2  A    between atoms: C3_3  and  C4_4 
REMARK    3  A    between atoms: C7_7  and  N1_8 
REMARK    4  A    between atoms: N1_8  and  C8_9 
REMARK    5  A    between atoms: C11_13  and  C12_14 
ROOT
HETATM    1  C8  UNL     1      24.741   2.450  52.108  1.00  0.00     0.723 A 
HETATM    2  N2  UNL     1      23.507   1.987  52.406  1.00  0.00    -0.075 NA
HETATM    3  C9  UNL     1      23.295   0.728  52.880  1.00  0.00     0.139 A 
HETATM    4  C10 UNL     1      24.407  -0.070  53.046  1.00  0.00     0.053 A 
HETATM    5  C11 UNL     1      25.677   0.376  52.750  1.00  0.00     0.089 A 
HETATM    6  N4  UNL     1      25.811   1.622  52.289  1.00  0.00    -0.062 NA
ENDROOT
BRANCH   1   7
HETATM    7  N1  UNL     1      24.946   3.785  51.601  1.00  0.00    -0.218 N 
HETATM    8  H10 UNL     1      25.142   4.533  52.276  1.00  0.00     0.178 HD
BRANCH   7   9
HETATM    9  C7  UNL     1      24.837   3.855  50.158  1.00  0.00     0.172 C 
BRANCH   9  10
HETATM   10  C2  UNL     1      25.891   4.635  49.508  1.00  0.00    -0.065 C 
HETATM   11  C1  UNL     1      25.296   5.989  49.234  1.00  0.00     0.045 C 
HETATM   12  C3  UNL     1      27.123   4.292  49.184  1.00  0.00     0.011 C 
BRANCH  12  13
HETATM   13  C4  UNL     1      27.960   5.266  48.527  1.00  0.00    -0.058 A 
HETATM   14  C5  UNL     1      29.232   5.458  48.097  1.00  0.00    -0.015 A 
HETATM   15  C6  UNL     1      28.284   6.543  47.871  1.00  0.00     0.066 A 
ENDBRANCH  12  13
ENDBRANCH   9  10
ENDBRANCH   7   9
ENDBRANCH   1   7
BRANCH   5  16
HETATM   16  C12 UNL     1      26.852  -0.471  52.921  1.00  0.00     0.011 A 
HETATM   17  C13 UNL     1      26.852  -1.839  52.743  1.00  0.00     0.130 A 
HETATM   18  N3  UNL     1      27.961  -2.580  52.911  1.00  0.00    -0.272 NA
HETATM   19  C14 UNL     1      29.154  -2.026  53.268  1.00  0.00     0.116 A 
HETATM   20  C15 UNL     1      29.197  -0.658  53.457  1.00  0.00     0.020 A 
HETATM   21  C16 UNL     1      28.055   0.096  53.282  1.00  0.00     0.017 A 
ENDBRANCH   5  16
TORSDOF 5
ENDMDL
MODEL 2
REMARK VINA RESULT:      -7.5      1.492      6.599
REMARK  5 active torsions:
REMARK  status: ('A' for Active; 'I' for Inactive)
REMARK    1  A    between atoms: C2_2  and  C7_7 
REMARK    2  A    between atoms: C3_3  and  C4_4 
REMARK    3  A    between atoms: C7_7  and  N1_8 
REMARK    4  A    between atoms: N1_8  and  C8_9 
REMARK    5  A    between atoms: C11_13  and  C12_14 
ROOT
HETATM    1  C8  UNL     1      24.201   2.130  51.743  1.00  0.00     0.723 A 
HETATM    2  N2  UNL     1      23.106   1.734  51.055  1.00  0.00    -0.075 NA
HETATM    3  C9  UNL     1      22.813   2.213  49.815  1.00  0.00     0.139 A 
HETATM    4  C10 UNL     1      23.689   3.132  49.278  1.00  0.00     0.053 A 
HETATM    5  C11 UNL     1      24.811   3.553  49.957  1.00  0.00     0.089 A 
HETATM    6  N4  UNL     1      25.038   3.042  51.169  1.00  0.00    -0.062 NA
ENDROOT
BRANCH   1   7
HETATM    7  N1  UNL     1      24.493   1.617  53.059  1.00  0.00    -0.218 N 
HETATM    8  H10 UNL     1      24.484   2.274  53.847  1.00  0.00     0.178 HD
BRANCH   7   9
HETATM    9  C7  UNL     1      24.764   0.193  53.054  1.00  0.00     0.172 C 
BRANCH   9  10
HETATM   10  C2  UNL     1      26.154  -0.161  53.344  1.00  0.00    -0.065 C 
HETATM   11  C1  UNL     1      26.428   0.341  54.735  1.00  0.00     0.045 C 
HETATM   12  C3  UNL     1      27.046  -0.779  52.593  1.00  0.00     0.011 C 
BRANCH  12  13
HETATM   13  C4  UNL     1      28.369  -0.990  53.129  1.00  0.00    -0.058 A 
HETATM   14  C5  UNL     1      29.300  -1.959  53.312  1.00  0.00    -0.015 A 
HETATM   15  C6  UNL     1      29.639  -0.619  53.775  1.00  0.00     0.066 A 
ENDBRANCH  12  13
ENDBRANCH   9  10
ENDBRANCH   7   9
ENDBRANCH   1   7
BRANCH   5  16
HETATM   16  C12 UNL     1      25.735   4.530  49.391  1.00  0.00     0.011 A 
HETATM   17  C13 UNL     1      25.403   5.840  49.118  1.00  0.00     0.130 A 
HETATM   18  N3  UNL     1      26.288   6.707  48.595  1.00  0.00    -0.272 NA
HETATM   19  C14 UNL     1      27.570   6.345  48.305  1.00  0.00     0.116 A 
HETATM   20  C15 UNL     1      27.943   5.040  48.563  1.00  0.00     0.020 A 
HETATM   21  C16 UNL     1      27.029   4.156  49.099  1.00  0.00     0.017 A 
ENDBRANCH   5  16
TORSDOF 5
ENDMDL
MODEL 3
REMARK VINA RESULT:      -7.5      1.679      3.819
REMARK  5 active torsions:
REMARK  status: ('A' for Active; 'I' for Inactive)
REMARK    1  A    between atoms: C2_2  and  C7_7 
REMARK    2  A    between atoms: C3_3  and  C4_4 
REMARK    3  A    between atoms: C7_7  and  N1_8 
REMARK    4  A    between atoms: N1_8  and  C8_9 
REMARK    5  A    between atoms: C11_13  and  C12_14 
ROOT
HETATM    1  C8  UNL     1      25.808   2.062  51.657  1.00  0.00     0.723 A 
HETATM    2  N2  UNL     1      26.904   1.272  51.697  1.00  0.00    -0.075 NA
HETATM    3  C9  UNL     1      26.906   0.060  52.318  1.00  0.00     0.139 A 
HETATM    4  C10 UNL     1      25.728  -0.337  52.914  1.00  0.00     0.053 A 
HETATM    5  C11 UNL     1      24.597   0.448  52.889  1.00  0.00     0.089 A 
HETATM    6  N4  UNL     1      24.665   1.625  52.263  1.00  0.00    -0.062 NA
ENDROOT
BRANCH   1   7
HETATM    7  N1  UNL     1      25.825   3.346  51.000  1.00  0.00    -0.218 N 
HETATM    8  H10 UNL     1      25.407   4.145  51.491  1.00  0.00     0.178 HD
BRANCH   7   9
HETATM    9  C7  UNL     1      26.456   3.296  49.697  1.00  0.00     0.172 C 
BRANCH   9  10
HETATM   10  C2  UNL     1      26.883   4.597  49.180  1.00  0.00    -0.065 C 
HETATM   11  C1  UNL     1      25.782   5.562  49.525  1.00  0.00     0.045 C 
HETATM   12  C3  UNL     1      27.980   4.932  48.528  1.00  0.00     0.011 C 
BRANCH  12  13
HETATM   13  C4  UNL     1      28.144   6.304  48.115  1.00  0.00    -0.058 A 
HETATM   14  C5  UNL     1      28.922   7.395  48.330  1.00  0.00    -0.015 A 
HETATM   15  C6  UNL     1      27.841   7.533  47.361  1.00  0.00     0.066 A 
ENDBRANCH  12  13
ENDBRANCH   9  10
ENDBRANCH   7   9
ENDBRANCH   1   7
BRANCH   5  16
HETATM   16  C12 UNL     1      23.352   0.029  53.525  1.00  0.00     0.011 A 
HETATM   17  C13 UNL     1      23.268  -0.963  54.479  1.00  0.00     0.130 A 
HETATM   18  N3  UNL     1      22.097  -1.316  55.040  1.00  0.00    -0.272 NA
HETATM   19  C14 UNL     1      20.922  -0.715  54.700  1.00  0.00     0.116 A 
HETATM   20  C15 UNL     1      20.964   0.285  53.747  1.00  0.00     0.020 A 
HETATM   21  C16 UNL     1      22.168   0.642  53.176  1.00  0.00     0.017 A 
ENDBRANCH   5  16
TORSDOF 5
ENDMDL
MODEL 4
REMARK VINA RESULT:      -7.4      1.535      2.183
REMARK  5 active torsions:
REMARK  status: ('A' for Active; 'I' for Inactive)
REMARK    1  A    between atoms: C2_2  and  C7_7 
REMARK    2  A    between atoms: C3_3  and  C4_4 
REMARK    3  A    between atoms: C7_7  and  N1_8 
REMARK    4  A    between atoms: N1_8  and  C8_9 
REMARK    5  A    between atoms: C11_13  and  C12_14 
ROOT
HETATM    1  C8  UNL     1      23.144   1.393  52.759  1.00  0.00     0.723 A 
HETATM    2  N2  UNL     1      22.218   0.567  53.294  1.00  0.00    -0.075 NA
HETATM    3  C9  UNL     1      22.557  -0.542  54.007  1.00  0.00     0.139 A 
HETATM    4  C10 UNL     1      23.903  -0.795  54.165  1.00  0.00     0.053 A 
HETATM    5  C11 UNL     1      24.868   0.030  53.629  1.00  0.00     0.089 A 
HETATM    6  N4  UNL     1      24.464   1.100  52.941  1.00  0.00    -0.062 NA
ENDROOT
BRANCH   1   7
HETATM    7  N1  UNL     1      22.767   2.561  52.001  1.00  0.00    -0.218 N 
HETATM    8  H10 UNL     1      22.422   3.380  52.515  1.00  0.00     0.178 HD
BRANCH   7   9
HETATM    9  C7  UNL     1      22.945   2.380  50.574  1.00  0.00     0.172 C 
BRANCH   9  10
HETATM   10  C2  UNL     1      23.982   3.226  49.981  1.00  0.00    -0.065 C 
HETATM   11  C1  UNL     1      23.441   3.676  48.652  1.00  0.00     0.045 C 
HETATM   12  C3  UNL     1      25.172   3.561  50.445  1.00  0.00     0.011 C 
BRANCH  12  13
HETATM   13  C4  UNL     1      26.013   4.409  49.636  1.00  0.00    -0.058 A 
HETATM   14  C5  UNL     1      27.181   4.402  48.946  1.00  0.00    -0.015 A 
HETATM   15  C6  UNL     1      26.415   5.643  48.941  1.00  0.00     0.066 A 
ENDBRANCH  12  13
ENDBRANCH   9  10
ENDBRANCH   7   9
ENDBRANCH   1   7
BRANCH   5  16
HETATM   16  C12 UNL     1      26.292  -0.242  53.791  1.00  0.00     0.011 A 
HETATM   17  C13 UNL     1      27.054   0.228  54.841  1.00  0.00     0.130 A 
HETATM   18  N3  UNL     1      28.365  -0.047  54.950  1.00  0.00    -0.272 NA
HETATM   19  C14 UNL     1      29.023  -0.810  54.032  1.00  0.00     0.116 A 
HETATM   20  C15 UNL     1      28.296  -1.300  52.964  1.00  0.00     0.020 A 
HETATM   21  C16 UNL     1      26.950  -1.013  52.858  1.00  0.00     0.017 A 
ENDBRANCH   5  16
TORSDOF 5
ENDMDL
MODEL 5
REMARK VINA RESULT:      -7.4      3.048      5.619
REMARK  5 active torsions:
REMARK  status: ('A' for Active; 'I' for Inactive)
REMARK    1  A    between atoms: C2_2  and  C7_7 
REMARK    2  A    between atoms: C3_3  and  C4_4 
REMARK    3  A    between atoms: C7_7  and  N1_8 
REMARK    4  A    between atoms: N1_8  and  C8_9 
REMARK    5  A    between atoms: C11_13  and  C12_14 
ROOT
HETATM    1  C8  UNL     1      24.007   3.377  51.883  1.00  0.00     0.723 A 
HETATM    2  N2  UNL     1      23.135   4.327  51.477  1.00  0.00    -0.075 NA
HETATM    3  C9  UNL     1      21.787   4.174  51.593  1.00  0.00     0.139 A 
HETATM    4  C10 UNL     1      21.338   2.995  52.149  1.00  0.00     0.053 A 
HETATM    5  C11 UNL     1      22.205   2.011  52.571  1.00  0.00     0.089 A 
HETATM    6  N4  UNL     1      23.514   2.227  52.427  1.00  0.00    -0.062 NA
ENDROOT
BRANCH   1   7
HETATM    7  N1  UNL     1      25.433   3.552  51.747  1.00  0.00    -0.218 N 
HETATM    8  H10 UNL     1      25.844   4.433  52.075  1.00  0.00     0.178 HD
BRANCH   7   9
HETATM    9  C7  UNL     1      26.079   2.405  51.143  1.00  0.00     0.172 C 
BRANCH   9  10
HETATM   10  C2  UNL     1      26.906   1.620  52.062  1.00  0.00    -0.065 C 
HETATM   11  C1  UNL     1      26.439   0.197  51.928  1.00  0.00     0.045 C 
HETATM   12  C3  UNL     1      27.868   2.008  52.877  1.00  0.00     0.011 C 
BRANCH  12  13
HETATM   13  C4  UNL     1      28.519   1.014  53.696  1.00  0.00    -0.058 A 
HETATM   14  C5  UNL     1      29.620   0.223  53.736  1.00  0.00    -0.015 A 
HETATM   15  C6  UNL     1      28.694   0.128  54.859  1.00  0.00     0.066 A 
ENDBRANCH  12  13
ENDBRANCH   9  10
ENDBRANCH   7   9
ENDBRANCH   1   7
BRANCH   5  16
HETATM   16  C12 UNL     1      21.729   0.761  53.154  1.00  0.00     0.011 A 
HETATM   17  C13 UNL     1      20.416   0.341  53.116  1.00  0.00     0.130 A 
HETATM   18  N3  UNL     1      20.022  -0.820  53.667  1.00  0.00    -0.272 NA
HETATM   19  C14 UNL     1      20.896  -1.655  54.297  1.00  0.00     0.116 A 
HETATM   20  C15 UNL     1      22.222  -1.270  54.358  1.00  0.00     0.020 A 
HETATM   21  C16 UNL     1      22.619  -0.077  53.790  1.00  0.00     0.017 A 
ENDBRANCH   5  16
TORSDOF 5
ENDMDL
MODEL 6
REMARK VINA RESULT:      -7.2      2.375      5.743
REMARK  5 active torsions:
REMARK  status: ('A' for Active; 'I' for Inactive)
REMARK    1  A    between atoms: C2_2  and  C7_7 
REMARK    2  A    between atoms: C3_3  and  C4_4 
REMARK    3  A    between atoms: C7_7  and  N1_8 
REMARK    4  A    between atoms: N1_8  and  C8_9 
REMARK    5  A    between atoms: C11_13  and  C12_14 
ROOT
HETATM    1  C8  UNL     1      24.020   3.190  51.753  1.00  0.00     0.723 A 
HETATM    2  N2  UNL     1      24.420   3.558  50.515  1.00  0.00    -0.075 NA
HETATM    3  C9  UNL     1      25.666   3.282  50.041  1.00  0.00     0.139 A 
HETATM    4  C10 UNL     1      26.518   2.602  50.885  1.00  0.00     0.053 A 
HETATM    5  C11 UNL     1      26.137   2.216  52.151  1.00  0.00     0.089 A 
HETATM    6  N4  UNL     1      24.900   2.520  52.552  1.00  0.00    -0.062 NA
ENDROOT
BRANCH   1   7
HETATM    7  N1  UNL     1      22.698   3.496  52.242  1.00  0.00    -0.218 N 
HETATM    8  H10 UNL     1      22.595   4.280  52.897  1.00  0.00     0.178 HD
BRANCH   7   9
HETATM    9  C7  UNL     1      21.687   2.608  51.706  1.00  0.00     0.172 C 
BRANCH   9  10
HETATM   10  C2  UNL     1      21.598   1.312  52.381  1.00  0.00    -0.065 C 
HETATM   11  C1  UNL     1      21.503   0.282  51.289  1.00  0.00     0.045 C 
HETATM   12  C3  UNL     1      21.585   1.026  53.669  1.00  0.00     0.011 C 
BRANCH  12  13
HETATM   13  C4  UNL     1      21.472  -0.356  54.067  1.00  0.00    -0.058 A 
HETATM   14  C5  UNL     1      22.185  -1.361  54.633  1.00  0.00    -0.015 A 
HETATM   15  C6  UNL     1      20.809  -1.658  54.251  1.00  0.00     0.066 A 
ENDBRANCH  12  13
ENDBRANCH   9  10
ENDBRANCH   7   9
ENDBRANCH   1   7
BRANCH   5  16
HETATM   16  C12 UNL     1      27.042   1.502  53.046  1.00  0.00     0.011 A 
HETATM   17  C13 UNL     1      26.786   0.250  53.564  1.00  0.00     0.130 A 
HETATM   18  N3  UNL     1      27.650  -0.372  54.386  1.00  0.00    -0.272 NA
HETATM   19  C14 UNL     1      28.833   0.196  54.756  1.00  0.00     0.116 A 
HETATM   20  C15 UNL     1      29.126   1.452  54.258  1.00  0.00     0.020 A 
HETATM   21  C16 UNL     1      28.235   2.084  53.416  1.00  0.00     0.017 A 
ENDBRANCH   5  16
TORSDOF 5
ENDMDL
MODEL 7
REMARK VINA RESULT:      -7.2      2.594      7.565
REMARK  5 active torsions:
REMARK  status: ('A' for Active; 'I' for Inactive)
REMARK    1  A    between atoms: C2_2  and  C7_7 
REMARK    2  A    between atoms: C3_3  and  C4_4 
REMARK    3  A    between atoms: C7_7  and  N1_8 
REMARK    4  A    between atoms: N1_8  and  C8_9 
REMARK    5  A    between atoms: C11_13  and  C12_14 
ROOT
HETATM    1  C8  UNL     1      26.552   3.985  49.459  1.00  0.00     0.723 A 
HETATM    2  N2  UNL     1      25.450   4.768  49.477  1.00  0.00    -0.075 NA
HETATM    3  C9  UNL     1      25.448   6.033  48.973  1.00  0.00     0.139 A 
HETATM    4  C10 UNL     1      26.631   6.491  48.434  1.00  0.00     0.053 A 
HETATM    5  C11 UNL     1      27.768   5.715  48.403  1.00  0.00     0.089 A 
HETATM    6  N4  UNL     1      27.699   4.484  48.915  1.00  0.00    -0.062 NA
ENDROOT
BRANCH   1   7
HETATM    7  N1  UNL     1      26.538   2.649  50.004  1.00  0.00    -0.218 N 
HETATM    8  H10 UNL     1      26.710   1.865  49.365  1.00  0.00     0.178 HD
BRANCH   7   9
HETATM    9  C7  UNL     1      26.272   2.632  51.428  1.00  0.00     0.172 C 
BRANCH   9  10
HETATM   10  C2  UNL     1      27.095   1.688  52.187  1.00  0.00    -0.065 C 
HETATM   11  C1  UNL     1      26.552   0.321  51.874  1.00  0.00     0.045 C 
HETATM   12  C3  UNL     1      28.108   1.911  53.003  1.00  0.00     0.011 C 
BRANCH  12  13
HETATM   13  C4  UNL     1      28.740   0.783  53.641  1.00  0.00    -0.058 A 
HETATM   14  C5  UNL     1      28.704   0.046  54.780  1.00  0.00    -0.015 A 
HETATM   15  C6  UNL     1      29.681  -0.342  53.770  1.00  0.00     0.066 A 
ENDBRANCH  12  13
ENDBRANCH   9  10
ENDBRANCH   7   9
ENDBRANCH   1   7
BRANCH   5  16
HETATM   16  C12 UNL     1      29.022   6.203  47.837  1.00  0.00     0.011 A 
HETATM   17  C13 UNL     1      29.134   7.354  47.088  1.00  0.00     0.130 A 
HETATM   18  N3  UNL     1      30.312   7.767  46.586  1.00  0.00    -0.272 NA
HETATM   19  C14 UNL     1      31.467   7.073  46.789  1.00  0.00     0.116 A 
HETATM   20  C15 UNL     1      31.397   5.912  47.535  1.00  0.00     0.020 A 
HETATM   21  C16 UNL     1      30.185   5.495  48.046  1.00  0.00     0.017 A 
ENDBRANCH   5  16
TORSDOF 5
ENDMDL
MODEL 8
REMARK VINA RESULT:      -7.1      1.736      2.570
REMARK  5 active torsions:
REMARK  status: ('A' for Active; 'I' for Inactive)
REMARK    1  A    between atoms: C2_2  and  C7_7 
REMARK    2  A    between atoms: C3_3  and  C4_4 
REMARK    3  A    between atoms: C7_7  and  N1_8 
REMARK    4  A    between atoms: N1_8  and  C8_9 
REMARK    5  A    between atoms: C11_13  and  C12_14 
ROOT
HETATM    1  C8  UNL     1      25.483   3.441  50.185  1.00  0.00     0.723 A 
HETATM    2  N2  UNL     1      24.210   2.993  50.251  1.00  0.00    -0.075 NA
HETATM    3  C9  UNL     1      23.825   2.019  51.122  1.00  0.00     0.139 A 
HETATM    4  C10 UNL     1      24.799   1.501  51.948  1.00  0.00     0.053 A 
HETATM    5  C11 UNL     1      26.104   1.940  51.901  1.00  0.00     0.089 A 
HETATM    6  N4  UNL     1      26.412   2.896  51.023  1.00  0.00    -0.062 NA
ENDROOT
BRANCH   1   7
HETATM    7  N1  UNL     1      25.875   4.469  49.251  1.00  0.00    -0.218 N 
HETATM    8  H10 UNL     1      25.148   5.098  48.892  1.00  0.00     0.178 HD
BRANCH   7   9
HETATM    9  C7  UNL     1      27.294   4.445  48.960  1.00  0.00     0.172 C 
BRANCH   9  10
HETATM   10  C2  UNL     1      27.816   5.684  48.381  1.00  0.00    -0.065 C 
HETATM   11  C1  UNL     1      26.657   6.641  48.337  1.00  0.00     0.045 C 
HETATM   12  C3  UNL     1      29.029   5.974  47.953  1.00  0.00     0.011 C 
BRANCH  12  13
HETATM   13  C4  UNL     1      29.271   7.287  47.405  1.00  0.00    -0.058 A 
HETATM   14  C5  UNL     1      29.737   8.514  47.749  1.00  0.00    -0.015 A 
HETATM   15  C6  UNL     1      29.299   8.333  46.370  1.00  0.00     0.066 A 
ENDBRANCH  12  13
ENDBRANCH   9  10
ENDBRANCH   7   9
ENDBRANCH   1   7
BRANCH   5  16
HETATM   16  C12 UNL     1      27.136   1.386  52.772  1.00  0.00     0.011 A 
HETATM   17  C13 UNL     1      27.942   2.146  53.594  1.00  0.00     0.130 A 
HETATM   18  N3  UNL     1      28.881   1.592  54.382  1.00  0.00    -0.272 NA
HETATM   19  C14 UNL     1      29.095   0.246  54.416  1.00  0.00     0.116 A 
HETATM   20  C15 UNL     1      28.308  -0.550  53.606  1.00  0.00     0.020 A 
HETATM   21  C16 UNL     1      27.346   0.025  52.801  1.00  0.00     0.017 A 
ENDBRANCH   5  16
TORSDOF 5
ENDMDL
MODEL 9
REMARK VINA RESULT:      -7.0      2.620      3.343
REMARK  5 active torsions:
REMARK  status: ('A' for Active; 'I' for Inactive)
REMARK    1  A    between atoms: C2_2  and  C7_7 
REMARK    2  A    between atoms: C3_3  and  C4_4 
REMARK    3  A    between atoms: C7_7  and  N1_8 
REMARK    4  A    between atoms: N1_8  and  C8_9 
REMARK    5  A    between atoms: C11_13  and  C12_14 
ROOT
HETATM    1  C8  UNL     1      24.333   2.534  52.937  1.00  0.00     0.723 A 
HETATM    2  N2  UNL     1      23.313   1.651  53.009  1.00  0.00    -0.075 NA
HETATM    3  C9  UNL     1      23.516   0.319  53.205  1.00  0.00     0.139 A 
HETATM    4  C10 UNL     1      24.823  -0.102  53.328  1.00  0.00     0.053 A 
HETATM    5  C11 UNL     1      25.881   0.777  53.258  1.00  0.00     0.089 A 
HETATM    6  N4  UNL     1      25.610   2.070  53.065  1.00  0.00    -0.062 NA
ENDROOT
BRANCH   1   7
HETATM    7  N1  UNL     1      24.100   3.942  52.723  1.00  0.00    -0.218 N 
HETATM    8  H10 UNL     1      23.702   4.488  53.495  1.00  0.00     0.178 HD
BRANCH   7   9
HETATM    9  C7  UNL     1      24.484   4.374  51.394  1.00  0.00     0.172 C 
BRANCH   9  10
HETATM   10  C2  UNL     1      23.636   3.856  50.320  1.00  0.00    -0.065 C 
HETATM   11  C1  UNL     1      22.260   4.406  50.575  1.00  0.00     0.045 C 
HETATM   12  C3  UNL     1      23.937   3.061  49.311  1.00  0.00     0.011 C 
BRANCH  12  13
HETATM   13  C4  UNL     1      22.890   2.688  48.391  1.00  0.00    -0.058 A 
HETATM   14  C5  UNL     1      21.977   1.713  48.156  1.00  0.00    -0.015 A 
HETATM   15  C6  UNL     1      22.007   2.832  47.222  1.00  0.00     0.066 A 
ENDBRANCH  12  13
ENDBRANCH   9  10
ENDBRANCH   7   9
ENDBRANCH   1   7
BRANCH   5  16
HETATM   16  C12 UNL     1      27.265   0.331  53.383  1.00  0.00     0.011 A 
HETATM   17  C13 UNL     1      28.301   1.137  53.805  1.00  0.00     0.130 A 
HETATM   18  N3  UNL     1      29.563   0.682  53.906  1.00  0.00    -0.272 NA
HETATM   19  C14 UNL     1      29.895  -0.604  53.599  1.00  0.00     0.116 A 
HETATM   20  C15 UNL     1      28.885  -1.444  53.172  1.00  0.00     0.020 A 
HETATM   21  C16 UNL     1      27.593  -0.971  53.071  1.00  0.00     0.017 A 
ENDBRANCH   5  16
TORSDOF 5
ENDMDL
