MODEL 1
REMARK VINA RESULT:      -8.4      0.000      0.000
REMARK  5 active torsions:
REMARK  status: ('A' for Active; 'I' for Inactive)
REMARK    1  A    between atoms: O1_2  and  C2_3 
REMARK    2  A    between atoms: C5_6  and  N1_7 
REMARK    3  A    between atoms: N1_7  and  C6_8 
REMARK    4  A    between atoms: C9_11  and  C10_12 
REMARK    5  A    between atoms: C17_22  and  O2_23 
ROOT
HETATM    1  C2  UNL     1      24.660  -0.447  53.628  1.00  0.00     0.102 A 
HETATM    2  C3  UNL     1      25.299   0.401  52.749  1.00  0.00     0.057 A 
HETATM    3  C4  UNL     1      26.463   1.078  53.018  1.00  0.00     0.041 A 
HETATM    4  C5  UNL     1      27.003   1.899  52.051  1.00  0.00     0.138 A 
HETATM    5  N2  UNL     1      28.139   2.509  52.425  1.00  0.00    -0.224 NA
HETATM    6  C14 UNL     1      28.694   2.333  53.632  1.00  0.00     0.235 A 
HETATM    7  N3  UNL     1      28.140   1.515  54.572  1.00  0.00    -0.241 NA
HETATM    8  C15 UNL     1      26.989   0.860  54.274  1.00  0.00     0.075 A 
HETATM    9  C16 UNL     1      26.392   0.023  55.194  1.00  0.00     0.072 A 
HETATM   10  C17 UNL     1      25.224  -0.644  54.892  1.00  0.00     0.101 A 
ENDROOT
BRANCH   4  11
HETATM   11  N1  UNL     1      26.452   2.110  50.773  1.00  0.00    -0.362 N 
HETATM   12  H5  UNL     1      26.258   1.377  50.061  1.00  0.00     0.162 HD
BRANCH  11  13
HETATM   13  C6  UNL     1      26.112   3.455  50.380  1.00  0.00     0.136 C 
HETATM   14  C7  UNL     1      26.928   3.941  49.243  1.00  0.00     0.015 C 
HETATM   15  C8  UNL     1      26.711   5.213  48.953  1.00  0.00    -0.020 C 
HETATM   16  C9  UNL     1      25.458   5.631  48.988  1.00  0.00    -0.037 C 
HETATM   17  C11 UNL     1      24.381   4.694  49.279  1.00  0.00     0.013 C 
HETATM   18  C12 UNL     1      24.685   3.589  49.981  1.00  0.00    -0.057 C 
HETATM   19  C13 UNL     1      23.560   2.652  50.261  1.00  0.00     0.046 C 
BRANCH  16  20
HETATM   20  C10 UNL     1      25.126   7.040  48.733  1.00  0.00     0.124 C 
HETATM   21 BR1  UNL     1      24.402   7.799  50.377  1.00  0.00    -0.091 Br
ENDBRANCH  16  20
ENDBRANCH  11  13
ENDBRANCH   4  11
BRANCH   1  22
HETATM   22  O1  UNL     1      23.494  -1.132  53.373  1.00  0.00    -0.353 OA
HETATM   23  C1  UNL     1      22.273  -0.449  53.083  1.00  0.00     0.210 C 
ENDBRANCH   1  22
BRANCH  10  24
HETATM   24  O2  UNL     1      24.646  -1.479  55.837  1.00  0.00    -0.358 OA
HETATM   25  H16 UNL     1      24.557  -1.108  56.792  1.00  0.00     0.217 HD
ENDBRANCH  10  24
TORSDOF 5
ENDMDL
MODEL 2
REMARK VINA RESULT:      -7.6      2.396      3.761
REMARK  5 active torsions:
REMARK  status: ('A' for Active; 'I' for Inactive)
REMARK    1  A    between atoms: O1_2  and  C2_3 
REMARK    2  A    between atoms: C5_6  and  N1_7 
REMARK    3  A    between atoms: N1_7  and  C6_8 
REMARK    4  A    between atoms: C9_11  and  C10_12 
REMARK    5  A    between atoms: C17_22  and  O2_23 
ROOT
HETATM    1  C2  UNL     1      26.410   1.534  54.018  1.00  0.00     0.102 A 
HETATM    2  C3  UNL     1      25.415   2.156  53.296  1.00  0.00     0.057 A 
HETATM    3  C4  UNL     1      24.232   1.568  52.922  1.00  0.00     0.041 A 
HETATM    4  C5  UNL     1      23.316   2.300  52.198  1.00  0.00     0.138 A 
HETATM    5  N2  UNL     1      22.198   1.623  51.888  1.00  0.00    -0.224 NA
HETATM    6  C14 UNL     1      21.997   0.349  52.253  1.00  0.00     0.235 A 
HETATM    7  N3  UNL     1      22.920  -0.354  52.969  1.00  0.00    -0.241 NA
HETATM    8  C15 UNL     1      24.079   0.258  53.323  1.00  0.00     0.075 A 
HETATM    9  C16 UNL     1      25.041  -0.415  54.047  1.00  0.00     0.072 A 
HETATM   10  C17 UNL     1      26.219   0.205  54.408  1.00  0.00     0.101 A 
ENDROOT
BRANCH   4  11
HETATM   11  N1  UNL     1      23.489   3.638  51.796  1.00  0.00    -0.362 N 
HETATM   12  H5  UNL     1      22.821   4.418  51.963  1.00  0.00     0.162 HD
BRANCH  11  13
HETATM   13  C6  UNL     1      24.691   3.997  51.087  1.00  0.00     0.136 C 
HETATM   14  C7  UNL     1      24.925   3.149  49.895  1.00  0.00     0.015 C 
HETATM   15  C8  UNL     1      26.085   3.387  49.306  1.00  0.00    -0.020 C 
HETATM   16  C9  UNL     1      26.455   4.651  49.199  1.00  0.00    -0.037 C 
HETATM   17  C11 UNL     1      25.575   5.714  49.667  1.00  0.00     0.013 C 
HETATM   18  C12 UNL     1      24.677   5.410  50.619  1.00  0.00    -0.057 C 
HETATM   19  C13 UNL     1      23.792   6.520  51.074  1.00  0.00     0.046 C 
BRANCH  16  20
HETATM   20  C10 UNL     1      27.752   5.010  48.608  1.00  0.00     0.124 C 
HETATM   21 BR1  UNL     1      27.712   6.910  48.168  1.00  0.00    -0.091 Br
ENDBRANCH  16  20
ENDBRANCH  11  13
ENDBRANCH   4  11
BRANCH   1  22
HETATM   22  O1  UNL     1      27.600   2.110  54.401  1.00  0.00    -0.353 OA
HETATM   23  C1  UNL     1      28.679   2.279  53.479  1.00  0.00     0.210 C 
ENDBRANCH   1  22
BRANCH  10  24
HETATM   24  O2  UNL     1      27.169  -0.496  55.136  1.00  0.00    -0.358 OA
HETATM   25  H16 UNL     1      27.591  -1.315  54.681  1.00  0.00     0.217 HD
ENDBRANCH  10  24
TORSDOF 5
ENDMDL
MODEL 3
REMARK VINA RESULT:      -7.6      2.186      3.711
REMARK  5 active torsions:
REMARK  status: ('A' for Active; 'I' for Inactive)
REMARK    1  A    between atoms: O1_2  and  C2_3 
REMARK    2  A    between atoms: C5_6  and  N1_7 
REMARK    3  A    between atoms: N1_7  and  C6_8 
REMARK    4  A    between atoms: C9_11  and  C10_12 
REMARK    5  A    between atoms: C17_22  and  O2_23 
ROOT
HETATM    1  C2  UNL     1      25.577  -0.119  54.396  1.00  0.00     0.102 A 
HETATM    2  C3  UNL     1      25.205   0.616  53.291  1.00  0.00     0.057 A 
HETATM    3  C4  UNL     1      23.961   0.582  52.710  1.00  0.00     0.041 A 
HETATM    4  C5  UNL     1      23.714   1.367  51.604  1.00  0.00     0.138 A 
HETATM    5  N2  UNL     1      22.466   1.253  51.121  1.00  0.00    -0.224 NA
HETATM    6  C14 UNL     1      21.547   0.446  51.669  1.00  0.00     0.235 A 
HETATM    7  N3  UNL     1      21.817  -0.322  52.764  1.00  0.00    -0.241 NA
HETATM    8  C15 UNL     1      23.056  -0.265  53.314  1.00  0.00     0.075 A 
HETATM    9  C16 UNL     1      23.374  -1.023  54.421  1.00  0.00     0.072 A 
HETATM   10  C17 UNL     1      24.633  -0.966  54.982  1.00  0.00     0.101 A 
ENDROOT
BRANCH   4  11
HETATM   11  N1  UNL     1      24.650   2.227  50.999  1.00  0.00    -0.362 N 
HETATM   12  H5  UNL     1      25.601   1.963  50.671  1.00  0.00     0.162 HD
BRANCH  11  13
HETATM   13  C6  UNL     1      24.292   3.609  50.800  1.00  0.00     0.136 C 
HETATM   14  C7  UNL     1      23.943   4.297  52.066  1.00  0.00     0.015 C 
HETATM   15  C8  UNL     1      23.495   5.527  51.883  1.00  0.00    -0.020 C 
HETATM   16  C9  UNL     1      24.114   6.263  50.975  1.00  0.00    -0.037 C 
HETATM   17  C11 UNL     1      25.271   5.731  50.267  1.00  0.00     0.013 C 
HETATM   18  C12 UNL     1      25.383   4.396  50.164  1.00  0.00    -0.057 C 
HETATM   19  C13 UNL     1      26.578   3.885  49.433  1.00  0.00     0.046 C 
BRANCH  16  20
HETATM   20  C10 UNL     1      23.654   7.623  50.665  1.00  0.00     0.124 C 
HETATM   21 BR1  UNL     1      21.725   7.560  50.383  1.00  0.00    -0.091 Br
ENDBRANCH  16  20
ENDBRANCH  11  13
ENDBRANCH   4  11
BRANCH   1  22
HETATM   22  O1  UNL     1      26.819  -0.095  54.990  1.00  0.00    -0.353 OA
HETATM   23  C1  UNL     1      27.972   0.383  54.294  1.00  0.00     0.210 C 
ENDBRANCH   1  22
BRANCH  10  24
HETATM   24  O2  UNL     1      24.925  -1.741  56.096  1.00  0.00    -0.358 OA
HETATM   25  H16 UNL     1      25.487  -2.586  55.938  1.00  0.00     0.217 HD
ENDBRANCH  10  24
TORSDOF 5
ENDMDL
MODEL 4
REMARK VINA RESULT:      -7.4      2.915      4.728
REMARK  5 active torsions:
REMARK  status: ('A' for Active; 'I' for Inactive)
REMARK    1  A    between atoms: O1_2  and  C2_3 
REMARK    2  A    between atoms: C5_6  and  N1_7 
REMARK    3  A    between atoms: N1_7  and  C6_8 
REMARK    4  A    between atoms: C9_11  and  C10_12 
REMARK    5  A    between atoms: C17_22  and  O2_23 
ROOT
HETATM    1  C2  UNL     1      26.878   2.112  52.115  1.00  0.00     0.102 A 
HETATM    2  C3  UNL     1      25.748   1.352  52.327  1.00  0.00     0.057 A 
HETATM    3  C4  UNL     1      25.537   0.546  53.418  1.00  0.00     0.041 A 
HETATM    4  C5  UNL     1      24.361  -0.166  53.512  1.00  0.00     0.138 A 
HETATM    5  N2  UNL     1      24.265  -0.919  54.620  1.00  0.00    -0.224 NA
HETATM    6  C14 UNL     1      25.231  -0.971  55.548  1.00  0.00     0.235 A 
HETATM    7  N3  UNL     1      26.387  -0.257  55.431  1.00  0.00    -0.241 NA
HETATM    8  C15 UNL     1      26.563   0.531  54.340  1.00  0.00     0.075 A 
HETATM    9  C16 UNL     1      27.716   1.271  54.180  1.00  0.00     0.072 A 
HETATM   10  C17 UNL     1      27.896   2.072  53.072  1.00  0.00     0.101 A 
ENDROOT
BRANCH   4  11
HETATM   11  N1  UNL     1      23.323  -0.139  52.561  1.00  0.00    -0.362 N 
HETATM   12  H5  UNL     1      23.002  -0.942  51.982  1.00  0.00     0.162 HD
BRANCH  11  13
HETATM   13  C6  UNL     1      22.618   1.099  52.342  1.00  0.00     0.136 C 
HETATM   14  C7  UNL     1      22.343   1.353  50.908  1.00  0.00     0.015 C 
HETATM   15  C8  UNL     1      21.806   2.541  50.684  1.00  0.00    -0.020 C 
HETATM   16  C9  UNL     1      20.880   2.951  51.534  1.00  0.00    -0.037 C 
HETATM   17  C11 UNL     1      20.452   2.085  52.624  1.00  0.00     0.013 C 
HETATM   18  C12 UNL     1      21.310   1.143  53.050  1.00  0.00    -0.057 C 
HETATM   19  C13 UNL     1      20.840   0.274  54.167  1.00  0.00     0.046 C 
BRANCH  16  20
HETATM   20  C10 UNL     1      20.266   4.279  51.397  1.00  0.00     0.124 C 
HETATM   21 BR1  UNL     1      21.696   5.588  51.177  1.00  0.00    -0.091 Br
ENDBRANCH  16  20
ENDBRANCH  11  13
ENDBRANCH   4  11
BRANCH   1  22
HETATM   22  O1  UNL     1      27.103   2.925  51.027  1.00  0.00    -0.353 OA
HETATM   23  C1  UNL     1      26.069   3.213  50.083  1.00  0.00     0.210 C 
ENDBRANCH   1  22
BRANCH  10  24
HETATM   24  O2  UNL     1      29.066   2.805  52.937  1.00  0.00    -0.358 OA
HETATM   25  H16 UNL     1      29.848   2.347  52.453  1.00  0.00     0.217 HD
ENDBRANCH  10  24
TORSDOF 5
ENDMDL
MODEL 5
REMARK VINA RESULT:      -7.4      2.164      2.870
REMARK  5 active torsions:
REMARK  status: ('A' for Active; 'I' for Inactive)
REMARK    1  A    between atoms: O1_2  and  C2_3 
REMARK    2  A    between atoms: C5_6  and  N1_7 
REMARK    3  A    between atoms: N1_7  and  C6_8 
REMARK    4  A    between atoms: C9_11  and  C10_12 
REMARK    5  A    between atoms: C17_22  and  O2_23 
ROOT
HETATM    1  C2  UNL     1      21.318  -0.143  53.108  1.00  0.00     0.102 A 
HETATM    2  C3  UNL     1      22.261   0.583  52.413  1.00  0.00     0.057 A 
HETATM    3  C4  UNL     1      23.603   0.606  52.703  1.00  0.00     0.041 A 
HETATM    4  C5  UNL     1      24.445   1.376  51.929  1.00  0.00     0.138 A 
HETATM    5  N2  UNL     1      25.734   1.322  52.304  1.00  0.00    -0.224 NA
HETATM    6  C14 UNL     1      26.157   0.585  53.341  1.00  0.00     0.235 A 
HETATM    7  N3  UNL     1      25.303  -0.168  54.092  1.00  0.00    -0.241 NA
HETATM    8  C15 UNL     1      23.982  -0.169  53.778  1.00  0.00     0.075 A 
HETATM    9  C16 UNL     1      23.082  -0.915  54.510  1.00  0.00     0.072 A 
HETATM   10  C17 UNL     1      21.740  -0.918  54.192  1.00  0.00     0.101 A 
ENDROOT
BRANCH   4  11
HETATM   11  N1  UNL     1      24.041   2.162  50.833  1.00  0.00    -0.362 N 
HETATM   12  H5  UNL     1      23.203   1.999  50.239  1.00  0.00     0.162 HD
BRANCH  11  13
HETATM   13  C6  UNL     1      24.837   3.309  50.474  1.00  0.00     0.136 C 
HETATM   14  C7  UNL     1      25.967   2.962  49.581  1.00  0.00     0.015 C 
HETATM   15  C8  UNL     1      26.775   3.982  49.344  1.00  0.00    -0.020 C 
HETATM   16  C9  UNL     1      26.210   5.158  49.134  1.00  0.00    -0.037 C 
HETATM   17  C11 UNL     1      24.758   5.281  49.114  1.00  0.00     0.013 C 
HETATM   18  C12 UNL     1      24.043   4.361  49.783  1.00  0.00    -0.057 C 
HETATM   19  C13 UNL     1      22.561   4.515  49.742  1.00  0.00     0.046 C 
BRANCH  16  20
HETATM   20  C10 UNL     1      27.028   6.359  48.915  1.00  0.00     0.124 C 
HETATM   21 BR1  UNL     1      28.758   5.794  48.212  1.00  0.00    -0.091 Br
ENDBRANCH  16  20
ENDBRANCH  11  13
ENDBRANCH   4  11
BRANCH   1  22
HETATM   22  O1  UNL     1      19.971  -0.177  52.830  1.00  0.00    -0.353 OA
HETATM   23  C1  UNL     1      19.379   0.719  51.887  1.00  0.00     0.210 C 
ENDBRANCH   1  22
BRANCH  10  24
HETATM   24  O2  UNL     1      20.857  -1.678  54.946  1.00  0.00    -0.358 OA
HETATM   25  H16 UNL     1      20.834  -1.494  55.957  1.00  0.00     0.217 HD
ENDBRANCH  10  24
TORSDOF 5
ENDMDL
MODEL 6
REMARK VINA RESULT:      -7.3      2.000      3.636
REMARK  5 active torsions:
REMARK  status: ('A' for Active; 'I' for Inactive)
REMARK    1  A    between atoms: O1_2  and  C2_3 
REMARK    2  A    between atoms: C5_6  and  N1_7 
REMARK    3  A    between atoms: N1_7  and  C6_8 
REMARK    4  A    between atoms: C9_11  and  C10_12 
REMARK    5  A    between atoms: C17_22  and  O2_23 
ROOT
HETATM    1  C2  UNL     1      26.976   1.358  53.796  1.00  0.00     0.102 A 
HETATM    2  C3  UNL     1      26.651   2.179  52.739  1.00  0.00     0.057 A 
HETATM    3  C4  UNL     1      25.472   2.127  52.038  1.00  0.00     0.041 A 
HETATM    4  C5  UNL     1      25.268   3.007  50.997  1.00  0.00     0.138 A 
HETATM    5  N2  UNL     1      24.081   2.864  50.385  1.00  0.00    -0.224 NA
HETATM    6  C14 UNL     1      23.179   1.945  50.758  1.00  0.00     0.235 A 
HETATM    7  N3  UNL     1      23.405   1.085  51.792  1.00  0.00    -0.241 NA
HETATM    8  C15 UNL     1      24.582   1.164  52.464  1.00  0.00     0.075 A 
HETATM    9  C16 UNL     1      24.854   0.314  53.516  1.00  0.00     0.072 A 
HETATM   10  C17 UNL     1      26.048   0.394  54.200  1.00  0.00     0.101 A 
ENDROOT
BRANCH   4  11
HETATM   11  N1  UNL     1      26.188   3.986  50.575  1.00  0.00    -0.362 N 
HETATM   12  H5  UNL     1      27.193   4.035  50.841  1.00  0.00     0.162 HD
BRANCH  11  13
HETATM   13  C6  UNL     1      25.732   5.030  49.693  1.00  0.00     0.136 C 
HETATM   14  C7  UNL     1      25.165   6.187  50.424  1.00  0.00     0.015 C 
HETATM   15  C8  UNL     1      24.632   7.096  49.625  1.00  0.00    -0.020 C 
HETATM   16  C9  UNL     1      25.289   7.378  48.514  1.00  0.00    -0.037 C 
HETATM   17  C11 UNL     1      26.570   6.740  48.238  1.00  0.00     0.013 C 
HETATM   18  C12 UNL     1      26.817   5.555  48.821  1.00  0.00    -0.057 C 
HETATM   19  C13 UNL     1      28.136   4.930  48.519  1.00  0.00     0.046 C 
BRANCH  16  20
HETATM   20  C10 UNL     1      24.748   8.336  47.539  1.00  0.00     0.124 C 
HETATM   21 BR1  UNL     1      22.814   8.417  47.779  1.00  0.00    -0.091 Br
ENDBRANCH  16  20
ENDBRANCH  11  13
ENDBRANCH   4  11
BRANCH   1  22
HETATM   22  O1  UNL     1      28.154   1.398  54.508  1.00  0.00    -0.353 OA
HETATM   23  C1  UNL     1      29.335   0.747  54.037  1.00  0.00     0.210 C 
ENDBRANCH   1  22
BRANCH  10  24
HETATM   24  O2  UNL     1      26.295  -0.474  55.254  1.00  0.00    -0.358 OA
HETATM   25  H16 UNL     1      26.368  -0.058  56.191  1.00  0.00     0.217 HD
ENDBRANCH  10  24
TORSDOF 5
ENDMDL
MODEL 7
REMARK VINA RESULT:      -7.2      3.144      4.663
REMARK  5 active torsions:
REMARK  status: ('A' for Active; 'I' for Inactive)
REMARK    1  A    between atoms: O1_2  and  C2_3 
REMARK    2  A    between atoms: C5_6  and  N1_7 
REMARK    3  A    between atoms: N1_7  and  C6_8 
REMARK    4  A    between atoms: C9_11  and  C10_12 
REMARK    5  A    between atoms: C17_22  and  O2_23 
ROOT
HETATM    1  C2  UNL     1      23.697  -0.684  53.986  1.00  0.00     0.102 A 
HETATM    2  C3  UNL     1      23.152  -0.118  52.854  1.00  0.00     0.057 A 
HETATM    3  C4  UNL     1      21.808  -0.050  52.580  1.00  0.00     0.041 A 
HETATM    4  C5  UNL     1      21.389   0.544  51.409  1.00  0.00     0.138 A 
HETATM    5  N2  UNL     1      20.056   0.553  51.248  1.00  0.00    -0.224 NA
HETATM    6  C14 UNL     1      19.213   0.029  52.148  1.00  0.00     0.235 A 
HETATM    7  N3  UNL     1      19.653  -0.554  53.300  1.00  0.00    -0.241 NA
HETATM    8  C15 UNL     1      20.988  -0.604  53.539  1.00  0.00     0.075 A 
HETATM    9  C16 UNL     1      21.478  -1.185  54.691  1.00  0.00     0.072 A 
HETATM   10  C17 UNL     1      22.834  -1.236  54.936  1.00  0.00     0.101 A 
ENDROOT
BRANCH   4  11
HETATM   11  N1  UNL     1      22.241   1.106  50.439  1.00  0.00    -0.362 N 
HETATM   12  H5  UNL     1      22.885   0.581  49.812  1.00  0.00     0.162 HD
BRANCH  11  13
HETATM   13  C6  UNL     1      22.248   2.537  50.271  1.00  0.00     0.136 C 
HETATM   14  C7  UNL     1      23.229   3.211  51.154  1.00  0.00     0.015 C 
HETATM   15  C8  UNL     1      23.159   4.530  51.098  1.00  0.00    -0.020 C 
HETATM   16  C9  UNL     1      22.986   5.072  49.904  1.00  0.00    -0.037 C 
HETATM   17  C11 UNL     1      22.935   4.228  48.717  1.00  0.00     0.013 C 
HETATM   18  C12 UNL     1      22.566   2.946  48.876  1.00  0.00    -0.057 C 
HETATM   19  C13 UNL     1      22.525   2.111  47.641  1.00  0.00     0.046 C 
BRANCH  16  20
HETATM   20  C10 UNL     1      22.843   6.526  49.750  1.00  0.00     0.124 C 
HETATM   21 BR1  UNL     1      24.330   7.383  50.678  1.00  0.00    -0.091 Br
ENDBRANCH  16  20
ENDBRANCH  11  13
ENDBRANCH   4  11
BRANCH   1  22
HETATM   22  O1  UNL     1      25.041  -0.759  54.274  1.00  0.00    -0.353 OA
HETATM   23  C1  UNL     1      26.021  -0.884  53.241  1.00  0.00     0.210 C 
ENDBRANCH   1  22
BRANCH  10  24
HETATM   24  O2  UNL     1      23.299  -1.826  56.103  1.00  0.00    -0.358 OA
HETATM   25  H16 UNL     1      24.191  -2.333  56.043  1.00  0.00     0.217 HD
ENDBRANCH  10  24
TORSDOF 5
ENDMDL
MODEL 8
REMARK VINA RESULT:      -7.0      3.370      5.340
REMARK  5 active torsions:
REMARK  status: ('A' for Active; 'I' for Inactive)
REMARK    1  A    between atoms: O1_2  and  C2_3 
REMARK    2  A    between atoms: C5_6  and  N1_7 
REMARK    3  A    between atoms: N1_7  and  C6_8 
REMARK    4  A    between atoms: C9_11  and  C10_12 
REMARK    5  A    between atoms: C17_22  and  O2_23 
ROOT
HETATM    1  C2  UNL     1      25.869  -0.187  54.033  1.00  0.00     0.102 A 
HETATM    2  C3  UNL     1      24.999   0.768  53.554  1.00  0.00     0.057 A 
HETATM    3  C4  UNL     1      25.257   1.604  52.496  1.00  0.00     0.041 A 
HETATM    4  C5  UNL     1      24.300   2.521  52.114  1.00  0.00     0.138 A 
HETATM    5  N2  UNL     1      24.662   3.284  51.070  1.00  0.00    -0.224 NA
HETATM    6  C14 UNL     1      25.848   3.162  50.459  1.00  0.00     0.235 A 
HETATM    7  N3  UNL     1      26.778   2.248  50.856  1.00  0.00    -0.241 NA
HETATM    8  C15 UNL     1      26.491   1.436  51.906  1.00  0.00     0.075 A 
HETATM    9  C16 UNL     1      27.401   0.496  52.343  1.00  0.00     0.072 A 
HETATM   10  C17 UNL     1      27.111  -0.330  53.408  1.00  0.00     0.101 A 
ENDROOT
BRANCH   4  11
HETATM   11  N1  UNL     1      23.044   2.680  52.729  1.00  0.00    -0.362 N 
HETATM   12  H5  UNL     1      22.831   3.304  53.534  1.00  0.00     0.162 HD
BRANCH  11  13
HETATM   13  C6  UNL     1      21.926   1.924  52.222  1.00  0.00     0.136 C 
HETATM   14  C7  UNL     1      21.425   0.924  53.194  1.00  0.00     0.015 C 
HETATM   15  C8  UNL     1      20.481   0.143  52.697  1.00  0.00    -0.020 C 
HETATM   16  C9  UNL     1      19.567   0.717  51.934  1.00  0.00    -0.037 C 
HETATM   17  C11 UNL     1      19.595   2.158  51.716  1.00  0.00     0.013 C 
HETATM   18  C12 UNL     1      20.772   2.790  51.855  1.00  0.00    -0.057 C 
HETATM   19  C13 UNL     1      20.765   4.263  51.626  1.00  0.00     0.046 C 
BRANCH  16  20
HETATM   20  C10 UNL     1      18.510  -0.078  51.294  1.00  0.00     0.124 C 
HETATM   21 BR1  UNL     1      17.551  -1.045  52.690  1.00  0.00    -0.091 Br
ENDBRANCH  16  20
ENDBRANCH  11  13
ENDBRANCH   4  11
BRANCH   1  22
HETATM   22  O1  UNL     1      25.624  -1.033  55.091  1.00  0.00    -0.353 OA
HETATM   23  C1  UNL     1      24.297  -1.286  55.555  1.00  0.00     0.210 C 
ENDBRANCH   1  22
BRANCH  10  24
HETATM   24  O2  UNL     1      28.046  -1.266  53.826  1.00  0.00    -0.358 OA
HETATM   25  H16 UNL     1      29.036  -1.006  53.734  1.00  0.00     0.217 HD
ENDBRANCH  10  24
TORSDOF 5
ENDMDL
MODEL 9
REMARK VINA RESULT:      -7.0      1.648      2.242
REMARK  5 active torsions:
REMARK  status: ('A' for Active; 'I' for Inactive)
REMARK    1  A    between atoms: O1_2  and  C2_3 
REMARK    2  A    between atoms: C5_6  and  N1_7 
REMARK    3  A    between atoms: N1_7  and  C6_8 
REMARK    4  A    between atoms: C9_11  and  C10_12 
REMARK    5  A    between atoms: C17_22  and  O2_23 
ROOT
HETATM    1  C2  UNL     1      23.000   1.048  51.908  1.00  0.00     0.102 A 
HETATM    2  C3  UNL     1      24.053   1.683  51.286  1.00  0.00     0.057 A 
HETATM    3  C4  UNL     1      25.308   1.831  51.823  1.00  0.00     0.041 A 
HETATM    4  C5  UNL     1      26.277   2.490  51.097  1.00  0.00     0.138 A 
HETATM    5  N2  UNL     1      27.464   2.574  51.720  1.00  0.00    -0.224 NA
HETATM    6  C14 UNL     1      27.680   2.062  52.940  1.00  0.00     0.235 A 
HETATM    7  N3  UNL     1      26.704   1.415  53.638  1.00  0.00    -0.241 NA
HETATM    8  C15 UNL     1      25.474   1.286  53.078  1.00  0.00     0.075 A 
HETATM    9  C16 UNL     1      24.457   0.639  53.748  1.00  0.00     0.072 A 
HETATM   10  C17 UNL     1      23.207   0.507  53.180  1.00  0.00     0.101 A 
ENDROOT
BRANCH   4  11
HETATM   11  N1  UNL     1      26.090   3.040  49.814  1.00  0.00    -0.362 N 
HETATM   12  H5  UNL     1      25.737   2.534  48.977  1.00  0.00     0.162 HD
BRANCH  11  13
HETATM   13  C6  UNL     1      26.405   4.431  49.607  1.00  0.00     0.136 C 
HETATM   14  C7  UNL     1      27.523   4.627  48.654  1.00  0.00     0.015 C 
HETATM   15  C8  UNL     1      27.902   5.890  48.549  1.00  0.00    -0.020 C 
HETATM   16  C9  UNL     1      26.946   6.802  48.516  1.00  0.00    -0.037 C 
HETATM   17  C11 UNL     1      25.547   6.398  48.539  1.00  0.00     0.013 C 
HETATM   18  C12 UNL     1      25.248   5.207  49.084  1.00  0.00    -0.057 C 
HETATM   19  C13 UNL     1      23.807   4.824  49.090  1.00  0.00     0.046 C 
BRANCH  16  20
HETATM   20  C10 UNL     1      27.272   8.234  48.455  1.00  0.00     0.124 C 
HETATM   21 BR1  UNL     1      25.640   9.242  48.806  1.00  0.00    -0.091 Br
ENDBRANCH  16  20
ENDBRANCH  11  13
ENDBRANCH   4  11
BRANCH   1  22
HETATM   22  O1  UNL     1      21.737   0.891  51.383  1.00  0.00    -0.353 OA
HETATM   23  C1  UNL     1      21.119   1.919  50.606  1.00  0.00     0.210 C 
ENDBRANCH   1  22
BRANCH  10  24
HETATM   24  O2  UNL     1      22.202  -0.148  53.878  1.00  0.00    -0.358 OA
HETATM   25  H16 UNL     1      22.214  -1.176  53.853  1.00  0.00     0.217 HD
ENDBRANCH  10  24
TORSDOF 5
ENDMDL
