MODEL 1
REMARK VINA RESULT:      -8.5      0.000      0.000
REMARK  3 active torsions:
REMARK  status: ('A' for Active; 'I' for Inactive)
REMARK    1  A    between atoms: O1_2  and  C2_3 
REMARK    2  A    between atoms: N2_9  and  C7_10 
REMARK    3  A    between atoms: C9_12  and  O2_13 
ROOT
HETATM    1  C2  UNL     1      23.241   3.005  52.423  1.00  0.00     0.096 A 
HETATM    2  C3  UNL     1      24.249   3.493  53.199  1.00  0.00     0.033 A 
HETATM    3  C4  UNL     1      25.205   2.813  53.524  1.00  0.00     0.120 A 
HETATM    4  C5  UNL     1      26.102   1.725  54.087  1.00  0.00     0.288 A 
HETATM    5  N1  UNL     1      27.424   1.601  53.903  1.00  0.00     0.086 N 
HETATM    6  C6  UNL     1      28.300   2.322  53.243  1.00  0.00     0.369 A 
HETATM    7  N2  UNL     1      27.315   1.571  53.945  1.00  0.00    -0.056 NA
HETATM    8  C7  UNL     1      26.152   2.085  53.826  1.00  0.00     0.281 A 
HETATM    9  C8  UNL     1      24.869   1.858  52.984  1.00  0.00     0.146 A 
HETATM   10  C9  UNL     1      23.747   1.738  52.275  1.00  0.00     0.100 A 
HETATM   11  C11 UNL     1      24.576   0.275  52.894  1.00  0.00    -0.029 C 
HETATM   12  C12 UNL     1      23.335  -0.201  52.919  1.00  0.00     0.134 C 
HETATM   13  N3  UNL     1      22.169  -0.225  53.810  1.00  0.00    -0.408 N 
HETATM   14  C13 UNL     1      22.041  -1.483  54.672  1.00  0.00     0.142 C 
HETATM   15  C14 UNL     1      23.285  -1.451  55.532  1.00  0.00    -0.005 C 
HETATM   16  C15 UNL     1      24.583  -1.065  55.630  1.00  0.00     0.034 C 
HETATM   17  C16 UNL     1      25.322  -0.722  54.368  1.00  0.00     0.072 C 
HETATM   18  C17 UNL     1      25.578  -1.012  52.993  1.00  0.00     0.043 C 
HETATM   19  O3  UNL     1      26.023   0.432  54.998  1.00  0.00    -0.309 OA
HETATM   20  H10 UNL     1      21.427   0.499  53.922  1.00  0.00     0.154 HD
ENDROOT
BRANCH   1  21
HETATM   21  O1  UNL     1      22.310   3.944  52.201  1.00  0.00    -0.354 OA
HETATM   22  C1  UNL     1      22.642   5.226  51.755  1.00  0.00     0.210 C 
ENDBRANCH   1  21
BRANCH  10  23
HETATM   23  O2  UNL     1      22.871   1.129  51.535  1.00  0.00    -0.356 OA
HETATM   24  C10 UNL     1      22.397   1.465  50.255  1.00  0.00     0.209 C 
ENDBRANCH  10  23
TORSDOF 3
ENDMDL
MODEL 2
REMARK VINA RESULT:      -7.9      2.248      4.176
REMARK  3 active torsions:
REMARK  status: ('A' for Active; 'I' for Inactive)
REMARK    1  A    between atoms: O1_2  and  C2_3 
REMARK    2  A    between atoms: N2_9  and  C7_10 
REMARK    3  A    between atoms: C9_12  and  O2_13 
ROOT
HETATM    1  C2  UNL     1      21.417   0.767  51.912  1.00  0.00     0.096 A 
HETATM    2  C3  UNL     1      22.003  -0.411  52.263  1.00  0.00     0.033 A 
HETATM    3  C4  UNL     1      23.041  -0.457  52.898  1.00  0.00     0.120 A 
HETATM    4  C5  UNL     1      24.473  -0.290  53.373  1.00  0.00     0.288 A 
HETATM    5  N1  UNL     1      24.969  -0.647  54.566  1.00  0.00     0.086 N 
HETATM    6  C6  UNL     1      24.428  -1.216  55.618  1.00  0.00     0.369 A 
HETATM    7  N2  UNL     1      24.971  -0.600  54.455  1.00  0.00    -0.056 NA
HETATM    8  C7  UNL     1      24.092  -0.450  53.543  1.00  0.00     0.281 A 
HETATM    9  C8  UNL     1      23.182   0.678  52.989  1.00  0.00     0.146 A 
HETATM   10  C9  UNL     1      22.352   1.592  52.485  1.00  0.00     0.100 A 
HETATM   11  C11 UNL     1      24.037   2.042  52.895  1.00  0.00    -0.029 C 
HETATM   12  C12 UNL     1      23.864   2.899  51.894  1.00  0.00     0.134 C 
HETATM   13  N3  UNL     1      23.982   2.944  50.432  1.00  0.00    -0.408 N 
HETATM   14  C13 UNL     1      25.304   3.508  49.908  1.00  0.00     0.142 C 
HETATM   15  C14 UNL     1      26.337   2.533  50.430  1.00  0.00    -0.005 C 
HETATM   16  C15 UNL     1      26.671   1.658  51.412  1.00  0.00     0.034 C 
HETATM   17  C16 UNL     1      25.935   1.738  52.719  1.00  0.00     0.072 C 
HETATM   18  C17 UNL     1      25.345   2.552  53.734  1.00  0.00     0.043 C 
HETATM   19  O3  UNL     1      25.870   0.255  52.863  1.00  0.00    -0.309 OA
HETATM   20  H10 UNL     1      23.283   2.644  49.718  1.00  0.00     0.154 HD
ENDROOT
BRANCH   1  21
HETATM   21  O1  UNL     1      20.287   0.553  51.223  1.00  0.00    -0.354 OA
HETATM   22  C1  UNL     1      19.121   0.088  51.836  1.00  0.00     0.210 C 
ENDBRANCH   1  21
BRANCH  10  23
HETATM   23  O2  UNL     1      21.921   2.790  52.229  1.00  0.00    -0.356 OA
HETATM   24  C10 UNL     1      20.656   3.353  52.472  1.00  0.00     0.209 C 
ENDBRANCH  10  23
TORSDOF 3
ENDMDL
MODEL 3
REMARK VINA RESULT:      -7.2      2.841      5.949
REMARK  3 active torsions:
REMARK  status: ('A' for Active; 'I' for Inactive)
REMARK    1  A    between atoms: O1_2  and  C2_3 
REMARK    2  A    between atoms: N2_9  and  C7_10 
REMARK    3  A    between atoms: C9_12  and  O2_13 
ROOT
HETATM    1  C2  UNL     1      25.765   2.269  53.202  1.00  0.00     0.096 A 
HETATM    2  C3  UNL     1      24.740   3.027  53.681  1.00  0.00     0.033 A 
HETATM    3  C4  UNL     1      23.825   3.405  52.973  1.00  0.00     0.120 A 
HETATM    4  C5  UNL     1      22.993   4.043  51.874  1.00  0.00     0.288 A 
HETATM    5  N1  UNL     1      21.678   3.883  51.669  1.00  0.00     0.086 N 
HETATM    6  C6  UNL     1      20.758   3.192  52.300  1.00  0.00     0.369 A 
HETATM    7  N2  UNL     1      21.789   3.925  51.647  1.00  0.00    -0.056 NA
HETATM    8  C7  UNL     1      22.921   3.761  52.214  1.00  0.00     0.281 A 
HETATM    9  C8  UNL     1      24.206   2.918  52.006  1.00  0.00     0.146 A 
HETATM   10  C9  UNL     1      25.327   2.203  51.903  1.00  0.00     0.100 A 
HETATM   11  C11 UNL     1      24.584   2.918  50.438  1.00  0.00    -0.029 C 
HETATM   12  C12 UNL     1      25.849   2.956  50.031  1.00  0.00     0.134 C 
HETATM   13  N3  UNL     1      27.023   3.832  50.123  1.00  0.00    -0.408 N 
HETATM   14  C13 UNL     1      27.227   4.766  48.928  1.00  0.00     0.142 C 
HETATM   15  C14 UNL     1      25.991   5.639  48.945  1.00  0.00    -0.005 C 
HETATM   16  C15 UNL     1      24.675   5.729  49.267  1.00  0.00     0.034 C 
HETATM   17  C16 UNL     1      23.907   4.459  49.493  1.00  0.00     0.072 C 
HETATM   18  C17 UNL     1      23.653   3.107  49.107  1.00  0.00     0.043 C 
HETATM   19  O3  UNL     1      23.150   5.028  50.644  1.00  0.00    -0.309 OA
HETATM   20  H10 UNL     1      27.726   3.892  50.891  1.00  0.00     0.154 HD
ENDROOT
BRANCH   1  21
HETATM   21  O1  UNL     1      26.641   1.980  54.175  1.00  0.00    -0.354 OA
HETATM   22  C1  UNL     1      26.581   0.785  54.897  1.00  0.00     0.210 C 
ENDBRANCH   1  21
BRANCH  10  23
HETATM   23  O2  UNL     1      26.227   1.490  51.298  1.00  0.00    -0.356 OA
HETATM   24  C10 UNL     1      26.641   0.171  51.555  1.00  0.00     0.209 C 
ENDBRANCH  10  23
TORSDOF 3
ENDMDL
MODEL 4
REMARK VINA RESULT:      -7.2      2.002      4.363
REMARK  3 active torsions:
REMARK  status: ('A' for Active; 'I' for Inactive)
REMARK    1  A    between atoms: O1_2  and  C2_3 
REMARK    2  A    between atoms: N2_9  and  C7_10 
REMARK    3  A    between atoms: C9_12  and  O2_13 
ROOT
HETATM    1  C2  UNL     1      21.475   2.291  50.768  1.00  0.00     0.096 A 
HETATM    2  C3  UNL     1      21.341   0.956  51.000  1.00  0.00     0.033 A 
HETATM    3  C4  UNL     1      21.948   0.386  51.887  1.00  0.00     0.120 A 
HETATM    4  C5  UNL     1      23.032  -0.173  52.792  1.00  0.00     0.288 A 
HETATM    5  N1  UNL     1      22.853  -0.798  53.965  1.00  0.00     0.086 N 
HETATM    6  C6  UNL     1      21.778  -1.112  54.649  1.00  0.00     0.369 A 
HETATM    7  N2  UNL     1      22.916  -0.751  53.873  1.00  0.00    -0.056 NA
HETATM    8  C7  UNL     1      22.586  -0.145  52.799  1.00  0.00     0.281 A 
HETATM    9  C8  UNL     1      22.505   1.312  52.272  1.00  0.00     0.146 A 
HETATM   10  C9  UNL     1      22.384   2.540  51.766  1.00  0.00     0.100 A 
HETATM   11  C11 UNL     1      23.820   2.115  52.750  1.00  0.00    -0.029 C 
HETATM   12  C12 UNL     1      24.403   3.016  51.967  1.00  0.00     0.134 C 
HETATM   13  N3  UNL     1      25.060   3.094  50.656  1.00  0.00    -0.408 N 
HETATM   14  C13 UNL     1      26.587   3.002  50.693  1.00  0.00     0.142 C 
HETATM   15  C14 UNL     1      26.845   1.624  51.263  1.00  0.00    -0.005 C 
HETATM   16  C15 UNL     1      26.394   0.633  52.074  1.00  0.00     0.034 C 
HETATM   17  C16 UNL     1      25.334   0.965  53.083  1.00  0.00     0.072 C 
HETATM   18  C17 UNL     1      24.808   1.893  54.034  1.00  0.00     0.043 C 
HETATM   19  O3  UNL     1      24.607  -0.318  52.860  1.00  0.00    -0.309 OA
HETATM   20  H10 UNL     1      24.618   3.206  49.718  1.00  0.00     0.154 HD
ENDROOT
BRANCH   1  21
HETATM   21  O1  UNL     1      20.702   2.680  49.744  1.00  0.00    -0.354 OA
HETATM   22  C1  UNL     1      19.782   1.819  49.140  1.00  0.00     0.210 C 
ENDBRANCH   1  21
BRANCH  10  23
HETATM   23  O2  UNL     1      22.621   3.813  51.674  1.00  0.00    -0.356 OA
HETATM   24  C10 UNL     1      21.764   4.899  51.924  1.00  0.00     0.209 C 
ENDBRANCH  10  23
TORSDOF 3
ENDMDL
MODEL 5
REMARK VINA RESULT:      -7.0      1.770      2.268
REMARK  3 active torsions:
REMARK  status: ('A' for Active; 'I' for Inactive)
REMARK    1  A    between atoms: O1_2  and  C2_3 
REMARK    2  A    between atoms: N2_9  and  C7_10 
REMARK    3  A    between atoms: C9_12  and  O2_13 
ROOT
HETATM    1  C2  UNL     1      24.267   2.979  51.617  1.00  0.00     0.096 A 
HETATM    2  C3  UNL     1      25.241   2.616  52.498  1.00  0.00     0.033 A 
HETATM    3  C4  UNL     1      25.349   1.477  52.915  1.00  0.00     0.120 A 
HETATM    4  C5  UNL     1      25.097   0.125  53.557  1.00  0.00     0.288 A 
HETATM    5  N1  UNL     1      25.900  -0.947  53.510  1.00  0.00     0.086 N 
HETATM    6  C6  UNL     1      27.069  -1.158  52.951  1.00  0.00     0.369 A 
HETATM    7  N2  UNL     1      25.801  -0.884  53.539  1.00  0.00    -0.056 NA
HETATM    8  C7  UNL     1      25.417   0.310  53.306  1.00  0.00     0.281 A 
HETATM    9  C8  UNL     1      24.459   1.047  52.333  1.00  0.00     0.146 A 
HETATM   10  C9  UNL     1      23.676   1.745  51.510  1.00  0.00     0.100 A 
HETATM   11  C11 UNL     1      23.095   0.195  52.197  1.00  0.00    -0.029 C 
HETATM   12  C12 UNL     1      21.914   0.794  52.089  1.00  0.00     0.134 C 
HETATM   13  N3  UNL     1      21.051   1.702  52.854  1.00  0.00    -0.408 N 
HETATM   14  C13 UNL     1      19.966   1.013  53.686  1.00  0.00     0.142 C 
HETATM   15  C14 UNL     1      20.753   0.177  54.671  1.00  0.00    -0.005 C 
HETATM   16  C15 UNL     1      21.897  -0.516  54.906  1.00  0.00     0.034 C 
HETATM   17  C16 UNL     1      22.740  -0.920  53.732  1.00  0.00     0.072 C 
HETATM   18  C17 UNL     1      22.801  -1.401  52.388  1.00  0.00     0.043 C 
HETATM   19  O3  UNL     1      24.016  -0.620  54.442  1.00  0.00    -0.309 OA
HETATM   20  H10 UNL     1      21.085   2.744  52.896  1.00  0.00     0.154 HD
ENDROOT
BRANCH   1  21
HETATM   21  O1  UNL     1      24.361   4.280  51.309  1.00  0.00    -0.354 OA
HETATM   22  C1  UNL     1      23.474   5.230  51.822  1.00  0.00     0.210 C 
ENDBRANCH   1  21
BRANCH  10  23
HETATM   23  O2  UNL     1      22.697   1.931  50.677  1.00  0.00    -0.356 OA
HETATM   24  C10 UNL     1      22.735   2.362  49.340  1.00  0.00     0.209 C 
ENDBRANCH  10  23
TORSDOF 3
ENDMDL
MODEL 6
REMARK VINA RESULT:      -7.0     10.740     12.837
REMARK  3 active torsions:
REMARK  status: ('A' for Active; 'I' for Inactive)
REMARK    1  A    between atoms: O1_2  and  C2_3 
REMARK    2  A    between atoms: N2_9  and  C7_10 
REMARK    3  A    between atoms: C9_12  and  O2_13 
ROOT
HETATM    1  C2  UNL     1      33.386   5.866  44.007  1.00  0.00     0.096 A 
HETATM    2  C3  UNL     1      33.842   4.594  44.176  1.00  0.00     0.033 A 
HETATM    3  C4  UNL     1      33.765   4.012  45.242  1.00  0.00     0.120 A 
HETATM    4  C5  UNL     1      33.885   3.613  46.702  1.00  0.00     0.288 A 
HETATM    5  N1  UNL     1      33.271   2.584  47.304  1.00  0.00     0.086 N 
HETATM    6  C6  UNL     1      32.446   1.662  46.866  1.00  0.00     0.369 A 
HETATM    7  N2  UNL     1      33.342   2.682  47.297  1.00  0.00    -0.056 NA
HETATM    8  C7  UNL     1      33.662   3.466  46.343  1.00  0.00     0.281 A 
HETATM    9  C8  UNL     1      33.261   4.869  45.816  1.00  0.00     0.146 A 
HETATM   10  C9  UNL     1      32.944   6.054  45.293  1.00  0.00     0.100 A 
HETATM   11  C11 UNL     1      33.097   5.872  47.068  1.00  0.00    -0.029 C 
HETATM   12  C12 UNL     1      33.469   7.145  46.988  1.00  0.00     0.134 C 
HETATM   13  N3  UNL     1      34.681   7.939  46.751  1.00  0.00    -0.408 N 
HETATM   14  C13 UNL     1      35.395   8.421  48.016  1.00  0.00     0.142 C 
HETATM   15  C14 UNL     1      35.805   7.136  48.703  1.00  0.00    -0.005 C 
HETATM   16  C15 UNL     1      35.519   5.826  48.915  1.00  0.00     0.034 C 
HETATM   17  C16 UNL     1      34.132   5.340  48.608  1.00  0.00     0.072 C 
HETATM   18  C17 UNL     1      32.725   5.584  48.634  1.00  0.00     0.043 C 
HETATM   19  O3  UNL     1      34.625   4.057  48.030  1.00  0.00    -0.309 OA
HETATM   20  H10 UNL     1      35.106   8.212  45.839  1.00  0.00     0.154 HD
ENDROOT
BRANCH   1  21
HETATM   21  O1  UNL     1      33.581   6.282  42.747  1.00  0.00    -0.354 OA
HETATM   22  C1  UNL     1      32.759   5.871  41.695  1.00  0.00     0.210 C 
ENDBRANCH   1  21
BRANCH  10  23
HETATM   23  O2  UNL     1      32.464   7.260  45.293  1.00  0.00    -0.356 OA
HETATM   24  C10 UNL     1      31.338   7.773  44.625  1.00  0.00     0.209 C 
ENDBRANCH  10  23
TORSDOF 3
ENDMDL
MODEL 7
REMARK VINA RESULT:      -6.7      6.994      9.411
REMARK  3 active torsions:
REMARK  status: ('A' for Active; 'I' for Inactive)
REMARK    1  A    between atoms: O1_2  and  C2_3 
REMARK    2  A    between atoms: N2_9  and  C7_10 
REMARK    3  A    between atoms: C9_12  and  O2_13 
ROOT
HETATM    1  C2  UNL     1      26.305   5.260  49.042  1.00  0.00     0.096 A 
HETATM    2  C3  UNL     1      27.497   4.720  48.663  1.00  0.00     0.033 A 
HETATM    3  C4  UNL     1      28.455   5.407  48.361  1.00  0.00     0.120 A 
HETATM    4  C5  UNL     1      29.384   6.415  47.708  1.00  0.00     0.288 A 
HETATM    5  N1  UNL     1      30.615   6.753  48.118  1.00  0.00     0.086 N 
HETATM    6  C6  UNL     1      31.358   6.352  49.122  1.00  0.00     0.369 A 
HETATM    7  N2  UNL     1      30.517   6.757  48.048  1.00  0.00    -0.056 NA
HETATM    8  C7  UNL     1      29.396   6.147  48.066  1.00  0.00     0.281 A 
HETATM    9  C8  UNL     1      27.939   6.419  48.524  1.00  0.00     0.146 A 
HETATM   10  C9  UNL     1      26.676   6.576  48.922  1.00  0.00     0.100 A 
HETATM   11  C11 UNL     1      27.527   7.918  48.096  1.00  0.00    -0.029 C 
HETATM   12  C12 UNL     1      26.298   8.206  47.680  1.00  0.00     0.134 C 
HETATM   13  N3  UNL     1      25.374   7.843  46.599  1.00  0.00    -0.408 N 
HETATM   14  C13 UNL     1      25.368   8.801  45.406  1.00  0.00     0.142 C 
HETATM   15  C14 UNL     1      26.778   8.705  44.866  1.00  0.00    -0.005 C 
HETATM   16  C15 UNL     1      28.086   8.478  45.154  1.00  0.00     0.034 C 
HETATM   17  C16 UNL     1      28.529   8.579  46.584  1.00  0.00     0.072 C 
HETATM   18  C17 UNL     1      28.437   9.253  47.841  1.00  0.00     0.043 C 
HETATM   19  O3  UNL     1      29.435   7.400  46.470  1.00  0.00    -0.309 OA
HETATM   20  H10 UNL     1      24.729   7.024  46.548  1.00  0.00     0.154 HD
ENDROOT
BRANCH   1  21
HETATM   21  O1  UNL     1      25.413   4.300  49.326  1.00  0.00    -0.354 OA
HETATM   22  C1  UNL     1      25.636   3.355  50.331  1.00  0.00     0.210 C 
ENDBRANCH   1  21
BRANCH  10  23
HETATM   23  O2  UNL     1      25.613   7.240  49.260  1.00  0.00    -0.356 OA
HETATM   24  C10 UNL     1      24.960   7.305  50.503  1.00  0.00     0.209 C 
ENDBRANCH  10  23
TORSDOF 3
ENDMDL
MODEL 8
REMARK VINA RESULT:      -6.7      8.424     10.890
REMARK  3 active torsions:
REMARK  status: ('A' for Active; 'I' for Inactive)
REMARK    1  A    between atoms: O1_2  and  C2_3 
REMARK    2  A    between atoms: N2_9  and  C7_10 
REMARK    3  A    between atoms: C9_12  and  O2_13 
ROOT
HETATM    1  C2  UNL     1      29.730   9.376  47.153  1.00  0.00     0.096 A 
HETATM    2  C3  UNL     1      28.996   8.326  46.691  1.00  0.00     0.033 A 
HETATM    3  C4  UNL     1      29.033   7.227  47.213  1.00  0.00     0.120 A 
HETATM    4  C5  UNL     1      29.482   5.892  47.782  1.00  0.00     0.288 A 
HETATM    5  N1  UNL     1      28.735   5.029  48.485  1.00  0.00     0.086 N 
HETATM    6  C6  UNL     1      27.481   5.049  48.870  1.00  0.00     0.369 A 
HETATM    7  N2  UNL     1      28.835   5.071  48.431  1.00  0.00    -0.056 NA
HETATM    8  C7  UNL     1      29.106   6.134  47.779  1.00  0.00     0.281 A 
HETATM    9  C8  UNL     1      29.788   7.504  48.032  1.00  0.00     0.146 A 
HETATM   10  C9  UNL     1      30.335   8.710  48.189  1.00  0.00     0.100 A 
HETATM   11  C11 UNL     1      31.121   7.270  48.910  1.00  0.00    -0.029 C 
HETATM   12  C12 UNL     1      32.221   7.986  48.701  1.00  0.00     0.134 C 
HETATM   13  N3  UNL     1      33.195   8.247  47.634  1.00  0.00    -0.408 N 
HETATM   14  C13 UNL     1      34.467   7.399  47.699  1.00  0.00     0.142 C 
HETATM   15  C14 UNL     1      33.958   5.984  47.531  1.00  0.00    -0.005 C 
HETATM   16  C15 UNL     1      32.927   5.122  47.725  1.00  0.00     0.034 C 
HETATM   17  C16 UNL     1      31.860   5.498  48.712  1.00  0.00     0.072 C 
HETATM   18  C17 UNL     1      31.519   6.088  49.967  1.00  0.00     0.043 C 
HETATM   19  O3  UNL     1      30.765   4.967  47.850  1.00  0.00    -0.309 OA
HETATM   20  H10 UNL     1      33.126   8.933  46.851  1.00  0.00     0.154 HD
ENDROOT
BRANCH   1  21
HETATM   21  O1  UNL     1      29.514  10.474  46.414  1.00  0.00    -0.354 OA
HETATM   22  C1  UNL     1      28.271  11.111  46.378  1.00  0.00     0.210 C 
ENDBRANCH   1  21
BRANCH  10  23
HETATM   23  O2  UNL     1      31.092   9.605  48.747  1.00  0.00    -0.356 OA
HETATM   24  C10 UNL     1      30.751  10.871  49.255  1.00  0.00     0.209 C 
ENDBRANCH  10  23
TORSDOF 3
ENDMDL
MODEL 9
REMARK VINA RESULT:      -6.7      1.971      4.432
REMARK  3 active torsions:
REMARK  status: ('A' for Active; 'I' for Inactive)
REMARK    1  A    between atoms: O1_2  and  C2_3 
REMARK    2  A    between atoms: N2_9  and  C7_10 
REMARK    3  A    between atoms: C9_12  and  O2_13 
ROOT
HETATM    1  C2  UNL     1      22.691  -0.321  53.176  1.00  0.00     0.096 A 
HETATM    2  C3  UNL     1      24.025  -0.543  53.011  1.00  0.00     0.033 A 
HETATM    3  C4  UNL     1      24.809   0.357  52.775  1.00  0.00     0.120 A 
HETATM    4  C5  UNL     1      25.538   1.539  52.159  1.00  0.00     0.288 A 
HETATM    5  N1  UNL     1      26.563   2.216  52.695  1.00  0.00     0.086 N 
HETATM    6  C6  UNL     1      27.223   2.084  53.822  1.00  0.00     0.369 A 
HETATM    7  N2  UNL     1      26.479   2.189  52.612  1.00  0.00    -0.056 NA
HETATM    8  C7  UNL     1      25.563   1.304  52.539  1.00  0.00     0.281 A 
HETATM    9  C8  UNL     1      24.033   1.202  52.773  1.00  0.00     0.146 A 
HETATM   10  C9  UNL     1      22.727   1.038  52.983  1.00  0.00     0.100 A 
HETATM   11  C11 UNL     1      23.321   2.511  52.154  1.00  0.00    -0.029 C 
HETATM   12  C12 UNL     1      22.138   2.436  51.555  1.00  0.00     0.134 C 
HETATM   13  N3  UNL     1      21.513   1.780  50.400  1.00  0.00    -0.408 N 
HETATM   14  C13 UNL     1      21.444   2.634  49.132  1.00  0.00     0.142 C 
HETATM   15  C14 UNL     1      22.897   2.888  48.795  1.00  0.00    -0.005 C 
HETATM   16  C15 UNL     1      24.159   3.035  49.273  1.00  0.00     0.034 C 
HETATM   17  C16 UNL     1      24.339   3.330  50.734  1.00  0.00     0.072 C 
HETATM   18  C17 UNL     1      23.886   4.023  51.899  1.00  0.00     0.043 C 
HETATM   19  O3  UNL     1      25.523   2.432  50.851  1.00  0.00    -0.309 OA
HETATM   20  H10 UNL     1      21.115   0.818  50.341  1.00  0.00     0.154 HD
ENDROOT
BRANCH   1  21
HETATM   21  O1  UNL     1      22.043  -1.467  53.428  1.00  0.00    -0.354 OA
HETATM   22  C1  UNL     1      21.983  -2.018  54.710  1.00  0.00     0.210 C 
ENDBRANCH   1  21
BRANCH  10  23
HETATM   23  O2  UNL     1      21.490   1.412  53.114  1.00  0.00    -0.356 OA
HETATM   24  C10 UNL     1      20.531   1.007  54.059  1.00  0.00     0.209 C 
ENDBRANCH  10  23
TORSDOF 3
ENDMDL
