MODEL 1
REMARK VINA RESULT:      -8.3      0.000      0.000
REMARK  4 active torsions:
REMARK  status: ('A' for Active; 'I' for Inactive)
REMARK    1  A    between atoms: C2_3  and  C3_4 
REMARK    2  A    between atoms: C3_4  and  N1_5 
REMARK    3  A    between atoms: N1_5  and  C4_6 
REMARK    4  A    between atoms: C9_13  and  C10_14 
ROOT
HETATM    1  C4  UNL     1      20.579   0.481  51.555  1.00  0.00     0.137 A 
HETATM    2  N2  UNL     1      19.297   0.196  51.767  1.00  0.00    -0.224 NA
HETATM    3  C5  UNL     1      18.885  -0.506  52.819  1.00  0.00     0.235 A 
HETATM    4  N3  UNL     1      19.711  -0.986  53.753  1.00  0.00    -0.241 NA
HETATM    5  C6  UNL     1      21.026  -0.729  53.593  1.00  0.00     0.072 A 
HETATM    6  C7  UNL     1      21.915  -1.199  54.521  1.00  0.00     0.033 A 
HETATM    7  C8  UNL     1      23.278  -0.954  54.390  1.00  0.00     0.014 A 
HETATM    8  C9  UNL     1      23.708  -0.222  53.291  1.00  0.00    -0.025 A 
HETATM    9  C18 UNL     1      22.789   0.235  52.377  1.00  0.00     0.030 A 
HETATM   10  C19 UNL     1      21.446  -0.011  52.514  1.00  0.00     0.039 A 
ENDROOT
BRANCH   8  11
HETATM   11  C10 UNL     1      25.134   0.043  53.136  1.00  0.00    -0.029 A 
HETATM   12  C11 UNL     1      26.080  -0.492  53.892  1.00  0.00     0.003 A 
HETATM   13  C12 UNL     1      27.412  -0.008  53.464  1.00  0.00     0.017 A 
HETATM   14  C13 UNL     1      28.358  -1.076  53.171  1.00  0.00    -0.013 A 
HETATM   15  C15 UNL     1      28.315   0.520  54.498  1.00  0.00     0.048 A 
HETATM   16  C16 UNL     1      27.047   0.885  52.345  1.00  0.00    -0.008 A 
HETATM   17  C14 UNL     1      29.179  -0.614  54.096  1.00  0.00    -0.028 A 
HETATM   18  C17 UNL     1      25.738   0.926  52.143  1.00  0.00     0.009 A 
ENDBRANCH   8  11
BRANCH   1  19
HETATM   19  N1  UNL     1      20.985   1.243  50.403  1.00  0.00    -0.371 N 
HETATM   20  H5  UNL     1      21.542   0.883  49.611  1.00  0.00     0.161 HD
BRANCH  19  21
HETATM   21  C3  UNL     1      20.579   2.637  50.348  1.00  0.00     0.149 C 
BRANCH  21  22
HETATM   22  C2  UNL     1      21.376   3.465  51.301  1.00  0.00     0.004 C 
HETATM   23  C1  UNL     1      22.674   3.696  51.455  1.00  0.00     0.082 C 
HETATM   24 CL1  UNL     1      23.460   4.728  52.665  1.00  0.00    -0.097 Cl
ENDBRANCH  21  22
ENDBRANCH  19  21
ENDBRANCH   1  19
TORSDOF 4
ENDMDL
MODEL 2
REMARK VINA RESULT:      -8.2      3.408      6.491
REMARK  4 active torsions:
REMARK  status: ('A' for Active; 'I' for Inactive)
REMARK    1  A    between atoms: C2_3  and  C3_4 
REMARK    2  A    between atoms: C3_4  and  N1_5 
REMARK    3  A    between atoms: N1_5  and  C4_6 
REMARK    4  A    between atoms: C9_13  and  C10_14 
ROOT
HETATM    1  C4  UNL     1      26.995   2.175  52.443  1.00  0.00     0.137 A 
HETATM    2  N2  UNL     1      28.295   2.071  52.708  1.00  0.00    -0.224 NA
HETATM    3  C5  UNL     1      28.785   1.149  53.532  1.00  0.00     0.235 A 
HETATM    4  N3  UNL     1      28.027   0.250  54.166  1.00  0.00    -0.241 NA
HETATM    5  C6  UNL     1      26.699   0.305  53.937  1.00  0.00     0.072 A 
HETATM    6  C7  UNL     1      25.877  -0.593  54.562  1.00  0.00     0.033 A 
HETATM    7  C8  UNL     1      24.502  -0.568  54.351  1.00  0.00     0.014 A 
HETATM    8  C9  UNL     1      23.991   0.394  53.492  1.00  0.00    -0.025 A 
HETATM    9  C18 UNL     1      24.843   1.283  52.880  1.00  0.00     0.030 A 
HETATM   10  C19 UNL     1      26.199   1.250  53.094  1.00  0.00     0.039 A 
ENDROOT
BRANCH   8  11
HETATM   11  C10 UNL     1      22.551   0.437  53.259  1.00  0.00    -0.029 A 
HETATM   12  C11 UNL     1      21.976   1.060  52.242  1.00  0.00     0.003 A 
HETATM   13  C12 UNL     1      20.507   0.905  52.311  1.00  0.00     0.017 A 
HETATM   14  C13 UNL     1      19.915   0.367  51.093  1.00  0.00    -0.013 A 
HETATM   15  C15 UNL     1      19.682   2.116  52.187  1.00  0.00     0.048 A 
HETATM   16  C16 UNL     1      20.361   0.093  53.536  1.00  0.00    -0.008 A 
HETATM   17  C14 UNL     1      19.168   1.449  50.968  1.00  0.00    -0.028 A 
HETATM   18  C17 UNL     1      21.530  -0.185  54.096  1.00  0.00     0.009 A 
ENDBRANCH   8  11
BRANCH   1  19
HETATM   19  N1  UNL     1      26.504   3.187  51.546  1.00  0.00    -0.371 N 
HETATM   20  H5  UNL     1      26.169   4.124  51.824  1.00  0.00     0.161 HD
BRANCH  19  21
HETATM   21  C3  UNL     1      26.475   2.866  50.130  1.00  0.00     0.149 C 
BRANCH  21  22
HETATM   22  C2  UNL     1      26.859   4.050  49.304  1.00  0.00     0.004 C 
HETATM   23  C1  UNL     1      26.408   5.296  49.217  1.00  0.00     0.082 C 
HETATM   24 CL1  UNL     1      26.995   6.594  48.160  1.00  0.00    -0.097 Cl
ENDBRANCH  21  22
ENDBRANCH  19  21
ENDBRANCH   1  19
TORSDOF 4
ENDMDL
MODEL 3
REMARK VINA RESULT:      -8.0      2.664      5.708
REMARK  4 active torsions:
REMARK  status: ('A' for Active; 'I' for Inactive)
REMARK    1  A    between atoms: C2_3  and  C3_4 
REMARK    2  A    between atoms: C3_4  and  N1_5 
REMARK    3  A    between atoms: N1_5  and  C4_6 
REMARK    4  A    between atoms: C9_13  and  C10_14 
ROOT
HETATM    1  C4  UNL     1      25.081  -0.481  54.220  1.00  0.00     0.137 A 
HETATM    2  N2  UNL     1      25.253  -1.116  55.377  1.00  0.00    -0.224 NA
HETATM    3  C5  UNL     1      24.236  -1.612  56.078  1.00  0.00     0.235 A 
HETATM    4  N3  UNL     1      22.961  -1.521  55.690  1.00  0.00    -0.241 NA
HETATM    5  C6  UNL     1      22.723  -0.888  54.523  1.00  0.00     0.072 A 
HETATM    6  C7  UNL     1      21.434  -0.767  54.082  1.00  0.00     0.033 A 
HETATM    7  C8  UNL     1      21.149  -0.121  52.883  1.00  0.00     0.014 A 
HETATM    8  C9  UNL     1      22.209   0.397  52.151  1.00  0.00    -0.025 A 
HETATM    9  C18 UNL     1      23.493   0.259  52.624  1.00  0.00     0.030 A 
HETATM   10  C19 UNL     1      23.765  -0.380  53.807  1.00  0.00     0.039 A 
ENDROOT
BRANCH   8  11
HETATM   11  C10 UNL     1      21.930   1.079  50.892  1.00  0.00    -0.029 A 
HETATM   12  C11 UNL     1      22.526   2.194  50.498  1.00  0.00     0.003 A 
HETATM   13  C12 UNL     1      22.006   2.612  49.177  1.00  0.00     0.017 A 
HETATM   14  C13 UNL     1      23.045   2.820  48.177  1.00  0.00    -0.013 A 
HETATM   15  C15 UNL     1      21.567   4.007  49.024  1.00  0.00     0.048 A 
HETATM   16  C16 UNL     1      21.022   1.545  48.904  1.00  0.00    -0.008 A 
HETATM   17  C14 UNL     1      22.661   4.075  48.028  1.00  0.00    -0.028 A 
HETATM   18  C17 UNL     1      20.966   0.653  49.883  1.00  0.00     0.009 A 
ENDBRANCH   8  11
BRANCH   1  19
HETATM   19  N1  UNL     1      26.207   0.041  53.492  1.00  0.00    -0.371 N 
HETATM   20  H5  UNL     1      26.745  -0.469  52.772  1.00  0.00     0.161 HD
BRANCH  19  21
HETATM   21  C3  UNL     1      26.624   1.399  53.793  1.00  0.00     0.149 C 
BRANCH  21  22
HETATM   22  C2  UNL     1      26.667   2.233  52.555  1.00  0.00     0.004 C 
HETATM   23  C1  UNL     1      26.439   1.985  51.270  1.00  0.00     0.082 C 
HETATM   24 CL1  UNL     1      26.539   3.118  49.909  1.00  0.00    -0.097 Cl
ENDBRANCH  21  22
ENDBRANCH  19  21
ENDBRANCH   1  19
TORSDOF 4
ENDMDL
MODEL 4
REMARK VINA RESULT:      -8.0      3.380      6.986
REMARK  4 active torsions:
REMARK  status: ('A' for Active; 'I' for Inactive)
REMARK    1  A    between atoms: C2_3  and  C3_4 
REMARK    2  A    between atoms: C3_4  and  N1_5 
REMARK    3  A    between atoms: N1_5  and  C4_6 
REMARK    4  A    between atoms: C9_13  and  C10_14 
ROOT
HETATM    1  C4  UNL     1      26.557  -0.298  54.274  1.00  0.00     0.137 A 
HETATM    2  N2  UNL     1      27.773  -0.231  54.809  1.00  0.00    -0.224 NA
HETATM    3  C5  UNL     1      28.667   0.683  54.440  1.00  0.00     0.235 A 
HETATM    4  N3  UNL     1      28.431   1.610  53.507  1.00  0.00    -0.241 NA
HETATM    5  C6  UNL     1      27.213   1.593  52.928  1.00  0.00     0.072 A 
HETATM    6  C7  UNL     1      26.920   2.521  51.966  1.00  0.00     0.033 A 
HETATM    7  C8  UNL     1      25.674   2.535  51.346  1.00  0.00     0.014 A 
HETATM    8  C9  UNL     1      24.741   1.582  51.731  1.00  0.00    -0.025 A 
HETATM    9  C18 UNL     1      25.068   0.663  52.700  1.00  0.00     0.030 A 
HETATM   10  C19 UNL     1      26.299   0.657  53.306  1.00  0.00     0.039 A 
ENDROOT
BRANCH   8  11
HETATM   11  C10 UNL     1      23.431   1.581  51.091  1.00  0.00    -0.029 A 
HETATM   12  C11 UNL     1      23.136   2.253  49.989  1.00  0.00     0.003 A 
HETATM   13  C12 UNL     1      21.722   2.030  49.615  1.00  0.00     0.017 A 
HETATM   14  C13 UNL     1      21.542   1.561  48.248  1.00  0.00    -0.013 A 
HETATM   15  C15 UNL     1      20.894   3.211  49.329  1.00  0.00     0.048 A 
HETATM   16  C16 UNL     1      21.280   1.123  50.694  1.00  0.00    -0.008 A 
HETATM   17  C14 UNL     1      20.797   2.617  47.975  1.00  0.00    -0.028 A 
HETATM   18  C17 UNL     1      22.253   0.854  51.553  1.00  0.00     0.009 A 
ENDBRANCH   8  11
BRANCH   1  19
HETATM   19  N1  UNL     1      25.618  -1.302  54.700  1.00  0.00    -0.371 N 
HETATM   20  H5  UNL     1      25.492  -2.229  54.262  1.00  0.00     0.161 HD
BRANCH  19  21
HETATM   21  C3  UNL     1      24.776  -0.987  55.841  1.00  0.00     0.149 C 
BRANCH  21  22
HETATM   22  C2  UNL     1      23.352  -1.347  55.570  1.00  0.00     0.004 C 
HETATM   23  C1  UNL     1      22.518  -1.109  54.565  1.00  0.00     0.082 C 
HETATM   24 CL1  UNL     1      20.828  -1.623  54.408  1.00  0.00    -0.097 Cl
ENDBRANCH  21  22
ENDBRANCH  19  21
ENDBRANCH   1  19
TORSDOF 4
ENDMDL
MODEL 5
REMARK VINA RESULT:      -8.0      3.957      5.619
REMARK  4 active torsions:
REMARK  status: ('A' for Active; 'I' for Inactive)
REMARK    1  A    between atoms: C2_3  and  C3_4 
REMARK    2  A    between atoms: C3_4  and  N1_5 
REMARK    3  A    between atoms: N1_5  and  C4_6 
REMARK    4  A    between atoms: C9_13  and  C10_14 
ROOT
HETATM    1  C4  UNL     1      25.451   4.745  49.527  1.00  0.00     0.137 A 
HETATM    2  N2  UNL     1      24.648   5.435  48.722  1.00  0.00    -0.224 NA
HETATM    3  C5  UNL     1      23.369   5.114  48.541  1.00  0.00     0.235 A 
HETATM    4  N3  UNL     1      22.777   4.080  49.144  1.00  0.00    -0.241 NA
HETATM    5  C6  UNL     1      23.541   3.341  49.974  1.00  0.00     0.072 A 
HETATM    6  C7  UNL     1      22.983   2.269  50.617  1.00  0.00     0.033 A 
HETATM    7  C8  UNL     1      23.739   1.484  51.481  1.00  0.00     0.014 A 
HETATM    8  C9  UNL     1      25.073   1.818  51.670  1.00  0.00    -0.025 A 
HETATM    9  C18 UNL     1      25.604   2.901  51.008  1.00  0.00     0.030 A 
HETATM   10  C19 UNL     1      24.850   3.670  50.158  1.00  0.00     0.039 A 
ENDROOT
BRANCH   8  11
HETATM   11  C10 UNL     1      25.882   1.005  52.571  1.00  0.00    -0.029 A 
HETATM   12  C11 UNL     1      27.174   0.767  52.407  1.00  0.00     0.003 A 
HETATM   13  C12 UNL     1      27.680  -0.092  53.500  1.00  0.00     0.017 A 
HETATM   14  C13 UNL     1      28.834   0.461  54.196  1.00  0.00    -0.013 A 
HETATM   15  C15 UNL     1      28.462  -1.282  53.132  1.00  0.00     0.048 A 
HETATM   16  C16 UNL     1      26.453  -0.293  54.299  1.00  0.00    -0.008 A 
HETATM   17  C14 UNL     1      29.549  -0.601  53.873  1.00  0.00    -0.028 A 
HETATM   18  C17 UNL     1      25.408   0.333  53.777  1.00  0.00     0.009 A 
ENDBRANCH   8  11
BRANCH   1  19
HETATM   19  N1  UNL     1      26.829   5.124  49.696  1.00  0.00    -0.371 N 
HETATM   20  H5  UNL     1      27.229   5.571  50.537  1.00  0.00     0.161 HD
BRANCH  19  21
HETATM   21  C3  UNL     1      27.735   4.857  48.593  1.00  0.00     0.149 C 
BRANCH  21  22
HETATM   22  C2  UNL     1      28.489   6.087  48.210  1.00  0.00     0.004 C 
HETATM   23  C1  UNL     1      29.775   6.418  48.221  1.00  0.00     0.082 C 
HETATM   24 CL1  UNL     1      30.509   7.954  47.721  1.00  0.00    -0.097 Cl
ENDBRANCH  21  22
ENDBRANCH  19  21
ENDBRANCH   1  19
TORSDOF 4
ENDMDL
MODEL 6
REMARK VINA RESULT:      -7.9      2.967      6.400
REMARK  4 active torsions:
REMARK  status: ('A' for Active; 'I' for Inactive)
REMARK    1  A    between atoms: C2_3  and  C3_4 
REMARK    2  A    between atoms: C3_4  and  N1_5 
REMARK    3  A    between atoms: N1_5  and  C4_6 
REMARK    4  A    between atoms: C9_13  and  C10_14 
ROOT
HETATM    1  C4  UNL     1      26.016   1.688  53.310  1.00  0.00     0.137 A 
HETATM    2  N2  UNL     1      27.048   1.383  54.093  1.00  0.00    -0.224 NA
HETATM    3  C5  UNL     1      27.037   0.336  54.914  1.00  0.00     0.235 A 
HETATM    4  N3  UNL     1      26.001  -0.499  55.029  1.00  0.00    -0.241 NA
HETATM    5  C6  UNL     1      24.924  -0.242  54.259  1.00  0.00     0.072 A 
HETATM    6  C7  UNL     1      23.835  -1.067  54.339  1.00  0.00     0.033 A 
HETATM    7  C8  UNL     1      22.706  -0.834  53.560  1.00  0.00     0.014 A 
HETATM    8  C9  UNL     1      22.717   0.258  52.704  1.00  0.00    -0.025 A 
HETATM    9  C18 UNL     1      23.826   1.068  52.648  1.00  0.00     0.030 A 
HETATM   10  C19 UNL     1      24.936   0.830  53.420  1.00  0.00     0.039 A 
ENDROOT
BRANCH   8  11
HETATM   11  C10 UNL     1      21.541   0.519  51.881  1.00  0.00    -0.029 A 
HETATM   12  C11 UNL     1      20.298   0.538  52.337  1.00  0.00     0.003 A 
HETATM   13  C12 UNL     1      19.353   0.832  51.237  1.00  0.00     0.017 A 
HETATM   14  C13 UNL     1      18.468   1.957  51.508  1.00  0.00    -0.013 A 
HETATM   15  C15 UNL     1      18.191  -0.055  51.075  1.00  0.00     0.048 A 
HETATM   16  C16 UNL     1      20.278   0.973  50.094  1.00  0.00    -0.008 A 
HETATM   17  C14 UNL     1      17.415   1.173  51.366  1.00  0.00    -0.028 A 
HETATM   18  C17 UNL     1      21.543   0.795  50.448  1.00  0.00     0.009 A 
ENDBRANCH   8  11
BRANCH   1  19
HETATM   19  N1  UNL     1      26.067   2.829  52.435  1.00  0.00    -0.371 N 
HETATM   20  H5  UNL     1      25.658   3.757  52.636  1.00  0.00     0.161 HD
BRANCH  19  21
HETATM   21  C3  UNL     1      26.746   2.666  51.162  1.00  0.00     0.149 C 
BRANCH  21  22
HETATM   22  C2  UNL     1      26.098   3.490  50.099  1.00  0.00     0.004 C 
HETATM   23  C1  UNL     1      25.471   4.660  50.097  1.00  0.00     0.082 C 
HETATM   24 CL1  UNL     1      24.749   5.506  48.715  1.00  0.00    -0.097 Cl
ENDBRANCH  21  22
ENDBRANCH  19  21
ENDBRANCH   1  19
TORSDOF 4
ENDMDL
MODEL 7
REMARK VINA RESULT:      -7.8      1.820      2.496
REMARK  4 active torsions:
REMARK  status: ('A' for Active; 'I' for Inactive)
REMARK    1  A    between atoms: C2_3  and  C3_4 
REMARK    2  A    between atoms: C3_4  and  N1_5 
REMARK    3  A    between atoms: N1_5  and  C4_6 
REMARK    4  A    between atoms: C9_13  and  C10_14 
ROOT
HETATM    1  C4  UNL     1      19.562   0.810  50.119  1.00  0.00     0.137 A 
HETATM    2  N2  UNL     1      18.245   0.699  49.969  1.00  0.00    -0.224 NA
HETATM    3  C5  UNL     1      17.455   0.217  50.925  1.00  0.00     0.235 A 
HETATM    4  N3  UNL     1      17.904  -0.196  52.113  1.00  0.00    -0.241 NA
HETATM    5  C6  UNL     1      19.233  -0.108  52.325  1.00  0.00     0.072 A 
HETATM    6  C7  UNL     1      19.746  -0.519  53.526  1.00  0.00     0.033 A 
HETATM    7  C8  UNL     1      21.111  -0.444  53.781  1.00  0.00     0.014 A 
HETATM    8  C9  UNL     1      21.936   0.059  52.784  1.00  0.00    -0.025 A 
HETATM    9  C18 UNL     1      21.389   0.462  51.588  1.00  0.00     0.030 A 
HETATM   10  C19 UNL     1      20.041   0.384  51.345  1.00  0.00     0.039 A 
ENDROOT
BRANCH   8  11
HETATM   11  C10 UNL     1      23.371   0.144  53.033  1.00  0.00    -0.029 A 
HETATM   12  C11 UNL     1      24.194   0.956  52.389  1.00  0.00     0.003 A 
HETATM   13  C12 UNL     1      25.576   0.786  52.888  1.00  0.00     0.017 A 
HETATM   14  C13 UNL     1      26.201   2.029  53.321  1.00  0.00    -0.013 A 
HETATM   15  C15 UNL     1      26.644   0.584  51.898  1.00  0.00     0.048 A 
HETATM   16  C16 UNL     1      25.383  -0.256  53.917  1.00  0.00    -0.008 A 
HETATM   17  C14 UNL     1      27.167   1.861  52.436  1.00  0.00    -0.028 A 
HETATM   18  C17 UNL     1      24.118  -0.638  54.013  1.00  0.00     0.009 A 
ENDBRANCH   8  11
BRANCH   1  19
HETATM   19  N1  UNL     1      20.383   1.336  49.060  1.00  0.00    -0.371 N 
HETATM   20  H5  UNL     1      20.916   0.771  48.378  1.00  0.00     0.161 HD
BRANCH  19  21
HETATM   21  C3  UNL     1      20.473   2.780  48.940  1.00  0.00     0.149 C 
BRANCH  21  22
HETATM   22  C2  UNL     1      21.889   3.240  49.048  1.00  0.00     0.004 C 
HETATM   23  C1  UNL     1      23.034   2.632  49.338  1.00  0.00     0.082 C 
HETATM   24 CL1  UNL     1      24.655   3.347  49.422  1.00  0.00    -0.097 Cl
ENDBRANCH  21  22
ENDBRANCH  19  21
ENDBRANCH   1  19
TORSDOF 4
ENDMDL
MODEL 8
REMARK VINA RESULT:      -7.8      3.283      6.932
REMARK  4 active torsions:
REMARK  status: ('A' for Active; 'I' for Inactive)
REMARK    1  A    between atoms: C2_3  and  C3_4 
REMARK    2  A    between atoms: C3_4  and  N1_5 
REMARK    3  A    between atoms: N1_5  and  C4_6 
REMARK    4  A    between atoms: C9_13  and  C10_14 
ROOT
HETATM    1  C4  UNL     1      26.613  -0.373  53.950  1.00  0.00     0.137 A 
HETATM    2  N2  UNL     1      27.891  -0.351  54.322  1.00  0.00    -0.224 NA
HETATM    3  C5  UNL     1      28.759   0.538  53.846  1.00  0.00     0.235 A 
HETATM    4  N3  UNL     1      28.433   1.483  52.960  1.00  0.00    -0.241 NA
HETATM    5  C6  UNL     1      27.150   1.512  52.545  1.00  0.00     0.072 A 
HETATM    6  C7  UNL     1      26.765   2.460  51.636  1.00  0.00     0.033 A 
HETATM    7  C8  UNL     1      25.451   2.522  51.185  1.00  0.00     0.014 A 
HETATM    8  C9  UNL     1      24.545   1.594  51.680  1.00  0.00    -0.025 A 
HETATM    9  C18 UNL     1      24.965   0.653  52.591  1.00  0.00     0.030 A 
HETATM   10  C19 UNL     1      26.263   0.601  53.032  1.00  0.00     0.039 A 
ENDROOT
BRANCH   8  11
HETATM   11  C10 UNL     1      23.163   1.642  51.217  1.00  0.00    -0.029 A 
HETATM   12  C11 UNL     1      22.116   1.302  51.952  1.00  0.00     0.003 A 
HETATM   13  C12 UNL     1      20.868   1.469  51.175  1.00  0.00     0.017 A 
HETATM   14  C13 UNL     1      19.872   2.302  51.835  1.00  0.00    -0.013 A 
HETATM   15  C15 UNL     1      19.921   0.344  51.147  1.00  0.00     0.048 A 
HETATM   16  C16 UNL     1      21.397   1.958  49.885  1.00  0.00    -0.008 A 
HETATM   17  C14 UNL     1      19.011   1.301  51.817  1.00  0.00    -0.028 A 
HETATM   18  C17 UNL     1      22.718   2.063  49.893  1.00  0.00     0.009 A 
ENDBRANCH   8  11
BRANCH   1  19
HETATM   19  N1  UNL     1      25.706  -1.352  54.488  1.00  0.00    -0.371 N 
HETATM   20  H5  UNL     1      25.498  -2.272  54.066  1.00  0.00     0.161 HD
BRANCH  19  21
HETATM   21  C3  UNL     1      25.022  -1.020  55.725  1.00  0.00     0.149 C 
BRANCH  21  22
HETATM   22  C2  UNL     1      23.542  -1.000  55.530  1.00  0.00     0.004 C 
HETATM   23  C1  UNL     1      22.739  -1.379  54.543  1.00  0.00     0.082 C 
HETATM   24 CL1  UNL     1      20.969  -1.280  54.481  1.00  0.00    -0.097 Cl
ENDBRANCH  21  22
ENDBRANCH  19  21
ENDBRANCH   1  19
TORSDOF 4
ENDMDL
MODEL 9
REMARK VINA RESULT:      -7.6      3.303      5.482
REMARK  4 active torsions:
REMARK  status: ('A' for Active; 'I' for Inactive)
REMARK    1  A    between atoms: C2_3  and  C3_4 
REMARK    2  A    between atoms: C3_4  and  N1_5 
REMARK    3  A    between atoms: N1_5  and  C4_6 
REMARK    4  A    between atoms: C9_13  and  C10_14 
ROOT
HETATM    1  C4  UNL     1      22.785   1.009  52.057  1.00  0.00     0.137 A 
HETATM    2  N2  UNL     1      22.600  -0.074  52.807  1.00  0.00    -0.224 NA
HETATM    3  C5  UNL     1      23.611  -0.758  53.337  1.00  0.00     0.235 A 
HETATM    4  N3  UNL     1      24.894  -0.425  53.169  1.00  0.00    -0.241 NA
HETATM    5  C6  UNL     1      25.146   0.666  52.417  1.00  0.00     0.072 A 
HETATM    6  C7  UNL     1      26.443   1.050  52.212  1.00  0.00     0.033 A 
HETATM    7  C8  UNL     1      26.742   2.170  51.443  1.00  0.00     0.014 A 
HETATM    8  C9  UNL     1      25.688   2.883  50.890  1.00  0.00    -0.025 A 
HETATM    9  C18 UNL     1      24.395   2.470  51.114  1.00  0.00     0.030 A 
HETATM   10  C19 UNL     1      24.110   1.364  51.874  1.00  0.00     0.039 A 
ENDROOT
BRANCH   8  11
HETATM   11  C10 UNL     1      25.982   4.060  50.079  1.00  0.00    -0.029 A 
HETATM   12  C11 UNL     1      25.257   5.168  50.078  1.00  0.00     0.003 A 
HETATM   13  C12 UNL     1      25.835   6.157  49.143  1.00  0.00     0.017 A 
HETATM   14  C13 UNL     1      26.100   7.454  49.751  1.00  0.00    -0.013 A 
HETATM   15  C15 UNL     1      24.933   6.788  48.168  1.00  0.00     0.048 A 
HETATM   16  C16 UNL     1      27.002   5.414  48.624  1.00  0.00    -0.008 A 
HETATM   17  C14 UNL     1      25.293   8.036  48.882  1.00  0.00    -0.028 A 
HETATM   18  C17 UNL     1      27.100   4.203  49.153  1.00  0.00     0.009 A 
ENDBRANCH   8  11
BRANCH   1  19
HETATM   19  N1  UNL     1      21.665   1.721  51.501  1.00  0.00    -0.371 N 
HETATM   20  H5  UNL     1      21.368   1.693  50.512  1.00  0.00     0.161 HD
BRANCH  19  21
HETATM   21  C3  UNL     1      20.886   2.550  52.404  1.00  0.00     0.149 C 
BRANCH  21  22
HETATM   22  C2  UNL     1      21.174   3.998  52.184  1.00  0.00     0.004 C 
HETATM   23  C1  UNL     1      21.525   4.716  51.123  1.00  0.00     0.082 C 
HETATM   24 CL1  UNL     1      21.832   6.461  51.043  1.00  0.00    -0.097 Cl
ENDBRANCH  21  22
ENDBRANCH  19  21
ENDBRANCH   1  19
TORSDOF 4
ENDMDL
