MODEL 1
REMARK VINA RESULT:      -9.3      0.000      0.000
REMARK  0 active torsions:
REMARK  status: ('A' for Active; 'I' for Inactive)
ROOT
HETATM    1  C1  UNL     1      23.762   4.230  48.584  1.00  0.00     0.047 C 
HETATM    2  O1  UNL     1      24.250   3.756  49.850  1.00  0.00     0.000 OA
HETATM    3  C2  UNL     1      23.557   2.835  50.719  1.00  0.00     0.045 A 
HETATM    4  C3  UNL     1      22.852   2.087  51.297  1.00  0.00     0.061 A 
HETATM    5  C4  UNL     1      21.806   1.617  51.893  1.00  0.00     0.062 A 
HETATM    6  C5  UNL     1      20.565   1.538  52.415  1.00  0.00     0.035 A 
HETATM    7  N1  UNL     1      19.691   2.502  52.375  1.00  0.00    -0.238 NA
HETATM    8  C6  UNL     1      19.696   3.710  51.892  1.00  0.00     0.292 A 
HETATM    9  N2  UNL     1      20.856   3.432  51.541  1.00  0.00    -0.430 NA
HETATM   10  C7  UNL     1      22.003   2.956  51.275  1.00  0.00     0.100 A 
HETATM   11  C8  UNL     1      22.831   3.899  50.568  1.00  0.00     0.077 A 
HETATM   12  C9  UNL     1      24.254   3.618  50.130  1.00  0.00     0.077 A 
HETATM   13  O2  UNL     1      25.595   3.332  49.728  1.00  0.00    -0.379 OA
HETATM   14  C10 UNL     1      26.593   3.179  50.693  1.00  0.00     0.168 C 
HETATM   15  C11 UNL     1      26.457   2.050  51.696  1.00  0.00     0.028 C 
HETATM   16  C12 UNL     1      27.662   2.070  52.634  1.00  0.00     0.021 C 
HETATM   17  C13 UNL     1      27.558   1.070  53.720  1.00  0.00     0.117 C 
HETATM   18  N3  UNL     1      27.456  -0.318  53.378  1.00  0.00    -0.413 N 
HETATM   19  C14 UNL     1      28.177  -1.439  52.846  1.00  0.00     0.143 C 
HETATM   20  C15 UNL     1      26.006  -0.552  53.670  1.00  0.00     0.086 C 
HETATM   21  C16 UNL     1      24.735  -0.657  53.267  1.00  0.00     0.050 C 
HETATM   22  C17 UNL     1      23.308  -0.884  53.605  1.00  0.00     0.017 C 
HETATM   23  C18 UNL     1      22.996  -1.112  54.855  1.00  0.00     0.013 C 
HETATM   24 BR1  UNL     1      24.027  -1.259  56.408  1.00  0.00    -0.051 Br
HETATM   25  C19 UNL     1      21.570  -0.941  54.502  1.00  0.00     0.057 C 
HETATM   26  C20 UNL     1      21.544  -0.660  53.158  1.00  0.00     0.100 C 
HETATM   27  F1  UNL     1      21.425  -0.381  51.857  1.00  0.00    -0.210 F 
HETATM   28  C21 UNL     1      20.331   0.199  53.047  1.00  0.00     0.126 C 
ENDROOT
TORSDOF 0
ENDMDL
MODEL 2
REMARK VINA RESULT:      -9.1      3.039      5.247
REMARK  0 active torsions:
REMARK  status: ('A' for Active; 'I' for Inactive)
ROOT
HETATM    1  C1  UNL     1      26.178  -0.007  55.169  1.00  0.00     0.047 C 
HETATM    2  O1  UNL     1      25.835   0.451  53.850  1.00  0.00     0.000 OA
HETATM    3  C2  UNL     1      24.506   0.806  53.410  1.00  0.00     0.045 A 
HETATM    4  C3  UNL     1      23.367   1.046  53.228  1.00  0.00     0.061 A 
HETATM    5  C4  UNL     1      22.087   0.883  53.150  1.00  0.00     0.062 A 
HETATM    6  C5  UNL     1      20.873   0.298  53.192  1.00  0.00     0.035 A 
HETATM    7  N1  UNL     1      20.670  -0.946  53.521  1.00  0.00    -0.238 NA
HETATM    8  C6  UNL     1      21.447  -1.928  53.874  1.00  0.00     0.292 A 
HETATM    9  N2  UNL     1      22.358  -1.094  53.734  1.00  0.00    -0.430 NA
HETATM   10  C7  UNL     1      23.131  -0.105  53.537  1.00  0.00     0.100 A 
HETATM   11  C8  UNL     1      24.511  -0.439  53.772  1.00  0.00     0.077 A 
HETATM   12  C9  UNL     1      25.662   0.533  53.603  1.00  0.00     0.077 A 
HETATM   13  O2  UNL     1      26.731   1.466  53.437  1.00  0.00    -0.379 OA
HETATM   14  C10 UNL     1      27.060   1.926  52.159  1.00  0.00     0.168 C 
HETATM   15  C11 UNL     1      26.014   2.703  51.382  1.00  0.00     0.028 C 
HETATM   16  C12 UNL     1      26.599   3.111  50.032  1.00  0.00     0.021 C 
HETATM   17  C13 UNL     1      25.609   3.779  49.158  1.00  0.00     0.117 C 
HETATM   18  N3  UNL     1      24.993   4.992  49.608  1.00  0.00    -0.413 N 
HETATM   19  C14 UNL     1      25.224   6.383  49.872  1.00  0.00     0.143 C 
HETATM   20  C15 UNL     1      23.630   4.477  49.956  1.00  0.00     0.086 C 
HETATM   21  C16 UNL     1      22.742   4.035  50.854  1.00  0.00     0.050 C 
HETATM   22  C17 UNL     1      21.383   3.518  51.150  1.00  0.00     0.017 C 
HETATM   23  C18 UNL     1      20.539   3.391  50.159  1.00  0.00     0.013 C 
HETATM   24 BR1  UNL     1      20.666   3.776  48.334  1.00  0.00    -0.051 Br
HETATM   25  C19 UNL     1      19.643   2.628  51.055  1.00  0.00     0.057 C 
HETATM   26  C20 UNL     1      20.286   2.564  52.268  1.00  0.00     0.100 C 
HETATM   27  F1  UNL     1      20.837   2.454  53.479  1.00  0.00    -0.210 F 
HETATM   28  C21 UNL     1      19.795   1.266  52.808  1.00  0.00     0.126 C 
ENDROOT
TORSDOF 0
ENDMDL
MODEL 3
REMARK VINA RESULT:      -9.1      3.018      6.865
REMARK  0 active torsions:
REMARK  status: ('A' for Active; 'I' for Inactive)
ROOT
HETATM    1  C1  UNL     1      21.638  -1.981  54.125  1.00  0.00     0.047 C 
HETATM    2  O1  UNL     1      21.663  -0.591  53.759  1.00  0.00     0.000 OA
HETATM    3  C2  UNL     1      22.795   0.102  53.191  1.00  0.00     0.045 A 
HETATM    4  C3  UNL     1      23.810   0.500  52.744  1.00  0.00     0.061 A 
HETATM    5  C4  UNL     1      25.066   0.789  52.649  1.00  0.00     0.062 A 
HETATM    6  C5  UNL     1      26.372   0.915  52.963  1.00  0.00     0.035 A 
HETATM    7  N1  UNL     1      26.894   0.531  54.092  1.00  0.00    -0.238 NA
HETATM    8  C6  UNL     1      26.419  -0.029  55.166  1.00  0.00     0.292 A 
HETATM    9  N2  UNL     1      25.334   0.014  54.559  1.00  0.00    -0.430 NA
HETATM   10  C7  UNL     1      24.341   0.148  53.779  1.00  0.00     0.100 A 
HETATM   11  C8  UNL     1      23.123  -0.351  54.361  1.00  0.00     0.077 A 
HETATM   12  C9  UNL     1      21.773  -0.312  53.672  1.00  0.00     0.077 A 
HETATM   13  O2  UNL     1      20.511  -0.264  53.004  1.00  0.00    -0.379 OA
HETATM   14  C10 UNL     1      19.895   0.968  52.770  1.00  0.00     0.168 C 
HETATM   15  C11 UNL     1      20.609   1.974  51.889  1.00  0.00     0.028 C 
HETATM   16  C12 UNL     1      19.746   3.228  51.766  1.00  0.00     0.021 C 
HETATM   17  C13 UNL     1      20.416   4.312  51.012  1.00  0.00     0.117 C 
HETATM   18  N3  UNL     1      20.809   4.074  49.656  1.00  0.00    -0.413 N 
HETATM   19  C14 UNL     1      20.319   3.882  48.321  1.00  0.00     0.143 C 
HETATM   20  C15 UNL     1      22.289   3.931  49.836  1.00  0.00     0.086 C 
HETATM   21  C16 UNL     1      23.382   3.172  49.981  1.00  0.00     0.050 C 
HETATM   22  C17 UNL     1      24.851   3.080  50.170  1.00  0.00     0.017 C 
HETATM   23  C18 UNL     1      25.538   4.191  50.233  1.00  0.00     0.013 C 
HETATM   24 BR1  UNL     1      25.048   5.990  50.093  1.00  0.00    -0.051 Br
HETATM   25  C19 UNL     1      26.708   3.410  50.689  1.00  0.00     0.057 C 
HETATM   26  C20 UNL     1      26.291   2.102  50.744  1.00  0.00     0.100 C 
HETATM   27  F1  UNL     1      25.972   0.808  50.827  1.00  0.00    -0.210 F 
HETATM   28  C21 UNL     1      27.136   1.557  51.844  1.00  0.00     0.126 C 
ENDROOT
TORSDOF 0
ENDMDL
MODEL 4
REMARK VINA RESULT:      -8.9      3.021      5.878
REMARK  0 active torsions:
REMARK  status: ('A' for Active; 'I' for Inactive)
ROOT
HETATM    1  C1  UNL     1      26.948  -0.074  52.156  1.00  0.00     0.047 C 
HETATM    2  O1  UNL     1      25.663   0.394  52.601  1.00  0.00     0.000 OA
HETATM    3  C2  UNL     1      24.723   1.138  51.798  1.00  0.00     0.045 A 
HETATM    4  C3  UNL     1      24.087   1.734  51.004  1.00  0.00     0.061 A 
HETATM    5  C4  UNL     1      23.756   2.642  50.146  1.00  0.00     0.062 A 
HETATM    6  C5  UNL     1      23.816   3.744  49.370  1.00  0.00     0.035 A 
HETATM    7  N1  UNL     1      24.828   4.561  49.335  1.00  0.00    -0.238 NA
HETATM    8  C6  UNL     1      25.977   4.608  49.945  1.00  0.00     0.292 A 
HETATM    9  N2  UNL     1      25.588   3.561  50.493  1.00  0.00    -0.430 NA
HETATM   10  C7  UNL     1      25.013   2.519  50.933  1.00  0.00     0.100 A 
HETATM   11  C8  UNL     1      25.821   1.818  51.897  1.00  0.00     0.077 A 
HETATM   12  C9  UNL     1      25.392   0.549  52.605  1.00  0.00     0.077 A 
HETATM   13  O2  UNL     1      24.966  -0.647  53.261  1.00  0.00    -0.379 OA
HETATM   14  C10 UNL     1      23.914  -0.599  54.178  1.00  0.00     0.168 C 
HETATM   15  C11 UNL     1      22.548  -0.163  53.685  1.00  0.00     0.028 C 
HETATM   16  C12 UNL     1      21.562  -0.202  54.851  1.00  0.00     0.021 C 
HETATM   17  C13 UNL     1      20.225   0.317  54.487  1.00  0.00     0.117 C 
HETATM   18  N3  UNL     1      19.491  -0.329  53.440  1.00  0.00    -0.413 N 
HETATM   19  C14 UNL     1      18.772  -1.521  53.090  1.00  0.00     0.143 C 
HETATM   20  C15 UNL     1      19.656   0.680  52.346  1.00  0.00     0.086 C 
HETATM   21  C16 UNL     1      20.276   1.120  51.245  1.00  0.00     0.050 C 
HETATM   22  C17 UNL     1      20.410   2.151  50.186  1.00  0.00     0.017 C 
HETATM   23  C18 UNL     1      19.590   3.171  50.208  1.00  0.00     0.013 C 
HETATM   24 BR1  UNL     1      18.170   3.627  51.335  1.00  0.00    -0.051 Br
HETATM   25  C19 UNL     1      20.429   3.832  49.185  1.00  0.00     0.057 C 
HETATM   26  C20 UNL     1      21.463   2.965  48.925  1.00  0.00     0.100 C 
HETATM   27  F1  UNL     1      22.501   2.185  48.612  1.00  0.00    -0.210 F 
HETATM   28  C21 UNL     1      22.564   3.900  48.560  1.00  0.00     0.126 C 
ENDROOT
TORSDOF 0
ENDMDL
MODEL 5
REMARK VINA RESULT:      -8.8      2.939      4.980
REMARK  0 active torsions:
REMARK  status: ('A' for Active; 'I' for Inactive)
ROOT
HETATM    1  C1  UNL     1      21.154  -1.186  54.595  1.00  0.00     0.047 C 
HETATM    2  O1  UNL     1      22.309  -0.901  53.786  1.00  0.00     0.000 OA
HETATM    3  C2  UNL     1      22.465   0.254  52.934  1.00  0.00     0.045 A 
HETATM    4  C3  UNL     1      22.416   1.244  52.296  1.00  0.00     0.061 A 
HETATM    5  C4  UNL     1      22.005   2.119  51.438  1.00  0.00     0.062 A 
HETATM    6  C5  UNL     1      21.265   2.712  50.478  1.00  0.00     0.035 A 
HETATM    7  N1  UNL     1      20.207   2.181  49.937  1.00  0.00    -0.238 NA
HETATM    8  C6  UNL     1      19.573   1.057  50.098  1.00  0.00     0.292 A 
HETATM    9  N2  UNL     1      20.448   0.829  50.952  1.00  0.00    -0.430 NA
HETATM   10  C7  UNL     1      21.419   0.791  51.770  1.00  0.00     0.100 A 
HETATM   11  C8  UNL     1      21.441  -0.431  52.530  1.00  0.00     0.077 A 
HETATM   12  C9  UNL     1      22.491  -0.766  53.571  1.00  0.00     0.077 A 
HETATM   13  O2  UNL     1      23.491  -1.060  54.548  1.00  0.00    -0.379 OA
HETATM   14  C10 UNL     1      24.809  -1.286  54.147  1.00  0.00     0.168 C 
HETATM   15  C11 UNL     1      25.554  -0.160  53.455  1.00  0.00     0.028 C 
HETATM   16  C12 UNL     1      26.969  -0.629  53.125  1.00  0.00     0.021 C 
HETATM   17  C13 UNL     1      27.735   0.369  52.345  1.00  0.00     0.117 C 
HETATM   18  N3  UNL     1      27.963   1.666  52.911  1.00  0.00    -0.413 N 
HETATM   19  C14 UNL     1      28.681   2.380  53.927  1.00  0.00     0.143 C 
HETATM   20  C15 UNL     1      26.998   2.476  52.101  1.00  0.00     0.086 C 
HETATM   21  C16 UNL     1      25.809   3.070  51.950  1.00  0.00     0.050 C 
HETATM   22  C17 UNL     1      24.882   3.865  51.107  1.00  0.00     0.017 C 
HETATM   23  C18 UNL     1      25.293   4.247  49.925  1.00  0.00     0.013 C 
HETATM   24 BR1  UNL     1      26.913   4.026  49.018  1.00  0.00    -0.051 Br
HETATM   25  C19 UNL     1      23.907   4.653  49.604  1.00  0.00     0.057 C 
HETATM   26  C20 UNL     1      23.158   4.355  50.716  1.00  0.00     0.100 C 
HETATM   27  F1  UNL     1      22.356   4.098  51.752  1.00  0.00    -0.210 F 
HETATM   28  C21 UNL     1      21.827   4.055  50.119  1.00  0.00     0.126 C 
ENDROOT
TORSDOF 0
ENDMDL
MODEL 6
REMARK VINA RESULT:      -8.2      3.303      5.581
REMARK  0 active torsions:
REMARK  status: ('A' for Active; 'I' for Inactive)
ROOT
HETATM    1  C1  UNL     1      25.128   0.142  53.819  1.00  0.00     0.047 C 
HETATM    2  O1  UNL     1      25.025   0.930  52.621  1.00  0.00     0.000 OA
HETATM    3  C2  UNL     1      23.860   1.680  52.215  1.00  0.00     0.045 A 
HETATM    4  C3  UNL     1      22.828   2.224  52.043  1.00  0.00     0.061 A 
HETATM    5  C4  UNL     1      21.558   2.397  51.877  1.00  0.00     0.062 A 
HETATM    6  C5  UNL     1      20.243   2.130  51.738  1.00  0.00     0.035 A 
HETATM    7  N1  UNL     1      19.731   0.934  51.775  1.00  0.00    -0.238 NA
HETATM    8  C6  UNL     1      20.226  -0.260  51.934  1.00  0.00     0.292 A 
HETATM    9  N2  UNL     1      21.313   0.338  52.020  1.00  0.00    -0.430 NA
HETATM   10  C7  UNL     1      22.306   1.127  52.079  1.00  0.00     0.100 A 
HETATM   11  C8  UNL     1      23.545   0.425  52.293  1.00  0.00     0.077 A 
HETATM   12  C9  UNL     1      24.899   1.101  52.391  1.00  0.00     0.077 A 
HETATM   13  O2  UNL     1      26.164   1.758  52.481  1.00  0.00    -0.379 OA
HETATM   14  C10 UNL     1      26.707   2.376  51.352  1.00  0.00     0.168 C 
HETATM   15  C11 UNL     1      25.945   3.527  50.723  1.00  0.00     0.028 C 
HETATM   16  C12 UNL     1      26.733   4.048  49.523  1.00  0.00     0.021 C 
HETATM   17  C13 UNL     1      26.008   5.101  48.778  1.00  0.00     0.117 C 
HETATM   18  N3  UNL     1      25.646   6.309  49.458  1.00  0.00    -0.413 N 
HETATM   19  C14 UNL     1      26.164   7.518  50.034  1.00  0.00     0.143 C 
HETATM   20  C15 UNL     1      24.176   6.083  49.627  1.00  0.00     0.086 C 
HETATM   21  C16 UNL     1      23.130   5.696  50.366  1.00  0.00     0.050 C 
HETATM   22  C17 UNL     1      21.667   5.477  50.483  1.00  0.00     0.017 C 
HETATM   23  C18 UNL     1      20.913   5.765  49.454  1.00  0.00     0.013 C 
HETATM   24 BR1  UNL     1      21.295   6.474  47.766  1.00  0.00    -0.051 Br
HETATM   25  C19 UNL     1      19.786   5.077  50.120  1.00  0.00     0.057 C 
HETATM   26  C20 UNL     1      20.280   4.611  51.314  1.00  0.00     0.100 C 
HETATM   27  F1  UNL     1      20.676   4.124  52.493  1.00  0.00    -0.210 F 
HETATM   28  C21 UNL     1      19.457   3.390  51.533  1.00  0.00     0.126 C 
ENDROOT
TORSDOF 0
ENDMDL
MODEL 7
REMARK VINA RESULT:      -8.0      5.668      8.815
REMARK  0 active torsions:
REMARK  status: ('A' for Active; 'I' for Inactive)
ROOT
HETATM    1  C1  UNL     1      29.846   5.851  48.565  1.00  0.00     0.047 C 
HETATM    2  O1  UNL     1      28.645   6.306  47.918  1.00  0.00     0.000 OA
HETATM    3  C2  UNL     1      27.341   6.372  48.535  1.00  0.00     0.045 A 
HETATM    4  C3  UNL     1      26.363   6.353  49.192  1.00  0.00     0.061 A 
HETATM    5  C4  UNL     1      25.405   5.903  49.933  1.00  0.00     0.062 A 
HETATM    6  C5  UNL     1      24.628   5.050  50.633  1.00  0.00     0.035 A 
HETATM    7  N1  UNL     1      24.861   3.775  50.748  1.00  0.00    -0.238 NA
HETATM    8  C6  UNL     1      25.785   2.978  50.297  1.00  0.00     0.292 A 
HETATM    9  N2  UNL     1      26.245   4.008  49.775  1.00  0.00    -0.430 NA
HETATM   10  C7  UNL     1      26.546   5.160  49.333  1.00  0.00     0.100 A 
HETATM   11  C8  UNL     1      27.746   5.141  48.539  1.00  0.00     0.077 A 
HETATM   12  C9  UNL     1      28.342   6.362  47.868  1.00  0.00     0.077 A 
HETATM   13  O2  UNL     1      28.886   7.527  47.244  1.00  0.00    -0.379 OA
HETATM   14  C10 UNL     1      28.199   8.137  46.192  1.00  0.00     0.168 C 
HETATM   15  C11 UNL     1      26.818   8.701  46.465  1.00  0.00     0.028 C 
HETATM   16  C12 UNL     1      26.273   9.326  45.182  1.00  0.00     0.021 C 
HETATM   17  C13 UNL     1      24.880   9.803  45.325  1.00  0.00     0.117 C 
HETATM   18  N3  UNL     1      24.588  10.807  46.306  1.00  0.00    -0.413 N 
HETATM   19  C14 UNL     1      24.760  12.192  46.636  1.00  0.00     0.143 C 
HETATM   20  C15 UNL     1      23.903   9.967  47.340  1.00  0.00     0.086 C 
HETATM   21  C16 UNL     1      23.925   9.271  48.482  1.00  0.00     0.050 C 
HETATM   22  C17 UNL     1      23.208   8.433  49.475  1.00  0.00     0.017 C 
HETATM   23  C18 UNL     1      21.940   8.182  49.273  1.00  0.00     0.013 C 
HETATM   24 BR1  UNL     1      20.744   8.710  47.936  1.00  0.00    -0.051 Br
HETATM   25  C19 UNL     1      21.996   7.172  50.352  1.00  0.00     0.057 C 
HETATM   26  C20 UNL     1      23.292   7.177  50.808  1.00  0.00     0.100 C 
HETATM   27  F1  UNL     1      24.527   7.115  51.312  1.00  0.00    -0.210 F 
HETATM   28  C21 UNL     1      23.466   5.766  51.253  1.00  0.00     0.126 C 
ENDROOT
TORSDOF 0
ENDMDL
MODEL 8
REMARK VINA RESULT:      -7.9      3.606      5.868
REMARK  0 active torsions:
REMARK  status: ('A' for Active; 'I' for Inactive)
ROOT
HETATM    1  C1  UNL     1      22.251  -0.528  54.592  1.00  0.00     0.047 C 
HETATM    2  O1  UNL     1      22.480   0.142  53.341  1.00  0.00     0.000 OA
HETATM    3  C2  UNL     1      21.517   0.964  52.647  1.00  0.00     0.045 A 
HETATM    4  C3  UNL     1      20.613   1.592  52.225  1.00  0.00     0.061 A 
HETATM    5  C4  UNL     1      19.431   1.878  51.788  1.00  0.00     0.062 A 
HETATM    6  C5  UNL     1      18.146   1.736  51.402  1.00  0.00     0.035 A 
HETATM    7  N1  UNL     1      17.495   0.609  51.425  1.00  0.00    -0.238 NA
HETATM    8  C6  UNL     1      17.800  -0.607  51.775  1.00  0.00     0.292 A 
HETATM    9  N2  UNL     1      18.914  -0.120  52.037  1.00  0.00    -0.430 NA
HETATM   10  C7  UNL     1      19.965   0.564  52.238  1.00  0.00     0.100 A 
HETATM   11  C8  UNL     1      21.043  -0.237  52.756  1.00  0.00     0.077 A 
HETATM   12  C9  UNL     1      22.423   0.301  53.078  1.00  0.00     0.077 A 
HETATM   13  O2  UNL     1      23.717   0.829  53.375  1.00  0.00    -0.379 OA
HETATM   14  C10 UNL     1      24.542   1.271  52.337  1.00  0.00     0.168 C 
HETATM   15  C11 UNL     1      24.064   2.425  51.478  1.00  0.00     0.028 C 
HETATM   16  C12 UNL     1      25.128   2.738  50.429  1.00  0.00     0.021 C 
HETATM   17  C13 UNL     1      24.697   3.781  49.471  1.00  0.00     0.117 C 
HETATM   18  N3  UNL     1      24.359   5.082  49.967  1.00  0.00    -0.413 N 
HETATM   19  C14 UNL     1      24.898   6.282  50.541  1.00  0.00     0.143 C 
HETATM   20  C15 UNL     1      22.868   5.027  49.846  1.00  0.00     0.086 C 
HETATM   21  C16 UNL     1      21.658   4.827  50.381  1.00  0.00     0.050 C 
HETATM   22  C17 UNL     1      20.184   4.774  50.211  1.00  0.00     0.017 C 
HETATM   23  C18 UNL     1      19.688   5.034  49.030  1.00  0.00     0.013 C 
HETATM   24 BR1  UNL     1      20.476   5.525  47.407  1.00  0.00    -0.051 Br
HETATM   25  C19 UNL     1      18.377   4.536  49.501  1.00  0.00     0.057 C 
HETATM   26  C20 UNL     1      18.567   4.145  50.804  1.00  0.00     0.100 C 
HETATM   27  F1  UNL     1      18.662   3.740  52.073  1.00  0.00    -0.210 F 
HETATM   28  C21 UNL     1      17.574   3.043  50.942  1.00  0.00     0.126 C 
ENDROOT
TORSDOF 0
ENDMDL
MODEL 9
REMARK VINA RESULT:      -7.9      3.941      7.188
REMARK  0 active torsions:
REMARK  status: ('A' for Active; 'I' for Inactive)
ROOT
HETATM    1  C1  UNL     1      27.803   6.933  48.582  1.00  0.00     0.047 C 
HETATM    2  O1  UNL     1      26.446   6.583  48.262  1.00  0.00     0.000 OA
HETATM    3  C2  UNL     1      25.523   5.923  49.155  1.00  0.00     0.045 A 
HETATM    4  C3  UNL     1      24.915   5.383  50.009  1.00  0.00     0.061 A 
HETATM    5  C4  UNL     1      24.587   4.506  50.899  1.00  0.00     0.062 A 
HETATM    6  C5  UNL     1      24.621   3.401  51.673  1.00  0.00     0.035 A 
HETATM    7  N1  UNL     1      25.556   2.497  51.616  1.00  0.00    -0.238 NA
HETATM    8  C6  UNL     1      26.634   2.350  50.901  1.00  0.00     0.292 A 
HETATM    9  N2  UNL     1      26.289   3.429  50.387  1.00  0.00    -0.430 NA
HETATM   10  C7  UNL     1      25.770   4.519  49.996  1.00  0.00     0.100 A 
HETATM   11  C8  UNL     1      26.543   5.148  48.957  1.00  0.00     0.077 A 
HETATM   12  C9  UNL     1      26.163   6.453  48.286  1.00  0.00     0.077 A 
HETATM   13  O2  UNL     1      25.785   7.683  47.666  1.00  0.00    -0.379 OA
HETATM   14  C10 UNL     1      24.651   7.732  46.852  1.00  0.00     0.168 C 
HETATM   15  C11 UNL     1      23.304   7.417  47.474  1.00  0.00     0.028 C 
HETATM   16  C12 UNL     1      22.220   7.548  46.406  1.00  0.00     0.021 C 
HETATM   17  C13 UNL     1      20.882   7.148  46.898  1.00  0.00     0.117 C 
HETATM   18  N3  UNL     1      20.310   7.854  48.006  1.00  0.00    -0.413 N 
HETATM   19  C14 UNL     1      19.737   9.104  48.415  1.00  0.00     0.143 C 
HETATM   20  C15 UNL     1      20.488   6.831  49.085  1.00  0.00     0.086 C 
HETATM   21  C16 UNL     1      21.167   6.335  50.125  1.00  0.00     0.050 C 
HETATM   22  C17 UNL     1      21.309   5.292  51.172  1.00  0.00     0.017 C 
HETATM   23  C18 UNL     1      20.404   4.350  51.233  1.00  0.00     0.013 C 
HETATM   24 BR1  UNL     1      18.848   4.025  50.248  1.00  0.00    -0.051 Br
HETATM   25  C19 UNL     1      21.273   3.614  52.177  1.00  0.00     0.057 C 
HETATM   26  C20 UNL     1      22.400   4.384  52.333  1.00  0.00     0.100 C 
HETATM   27  F1  UNL     1      23.527   5.068  52.543  1.00  0.00    -0.210 F 
HETATM   28  C21 UNL     1      23.443   3.354  52.598  1.00  0.00     0.126 C 
ENDROOT
TORSDOF 0
ENDMDL
