MODEL 1
REMARK VINA RESULT:      -8.6      0.000      0.000
REMARK  7 active torsions:
REMARK  status: ('A' for Active; 'I' for Inactive)
REMARK    1  A    between atoms: S1_2  and  C2_3 
REMARK    2  A    between atoms: C3_4  and  C4_5 
REMARK    3  A    between atoms: C4_5  and  C5_6 
REMARK    4  A    between atoms: C5_6  and  C6_8 
REMARK    5  A    between atoms: C8_12  and  O1_13 
REMARK    6  A    between atoms: C11_16  and  N3_17 
REMARK    7  A    between atoms: N3_17  and  C12_18 
ROOT
HETATM    1  C2  UNL     1      24.124   3.638  50.769  1.00  0.00     0.131 A 
HETATM    2  C3  UNL     1      25.325   4.051  50.023  1.00  0.00    -0.059 A 
HETATM    3  C9  UNL     1      26.443   3.346  50.257  1.00  0.00     0.007 A 
HETATM    4  C10 UNL     1      26.639   2.202  51.155  1.00  0.00     0.032 A 
HETATM    5  C11 UNL     1      25.617   1.745  51.857  1.00  0.00     0.059 A 
HETATM    6  C18 UNL     1      24.367   2.432  51.610  1.00  0.00     0.091 A 
HETATM    7  N4  UNL     1      23.277   2.032  52.138  1.00  0.00    -0.175 NA
HETATM    8  C19 UNL     1      23.166   0.929  52.980  1.00  0.00     0.206 C 
HETATM    9  N5  UNL     1      23.054   0.015  53.673  1.00  0.00    -0.170 NA
ENDROOT
BRANCH   1  10
HETATM   10  S1  UNL     1      23.534   4.889  51.950  1.00  0.00    -0.158 SA
HETATM   11  C1  UNL     1      22.019   5.616  51.275  1.00  0.00     0.091 C 
ENDBRANCH   1  10
BRANCH   5  12
HETATM   12  N3  UNL     1      25.732   0.656  52.740  1.00  0.00    -0.355 N 
HETATM   13  H13 UNL     1      24.729   0.449  52.937  1.00  0.00     0.166 HD
BRANCH  12  14
HETATM   14  C12 UNL     1      27.000   0.134  53.125  1.00  0.00     0.032 A 
HETATM   15  C13 UNL     1      27.246  -1.131  52.659  1.00  0.00     0.032 A 
HETATM   16  C14 UNL     1      28.478  -1.696  53.006  1.00  0.00     0.044 A 
HETATM   17  C15 UNL     1      29.365  -0.980  53.777  1.00  0.00     0.116 A 
HETATM   18  F1  UNL     1      30.566  -1.463  54.146  1.00  0.00    -0.206 F 
HETATM   19  C16 UNL     1      29.079   0.292  54.225  1.00  0.00     0.044 A 
HETATM   20  C17 UNL     1      27.856   0.888  53.898  1.00  0.00     0.032 A 
ENDBRANCH  12  14
ENDBRANCH   5  12
BRANCH   2  21
HETATM   21  C4  UNL     1      25.537   5.083  49.022  1.00  0.00     0.058 C 
BRANCH  21  22
HETATM   22  C5  UNL     1      26.725   5.960  49.113  1.00  0.00     0.119 C 
HETATM   23 CL1  UNL     1      28.172   5.422  48.285  1.00  0.00    -0.122 Cl
BRANCH  22  24
HETATM   24  C6  UNL     1      26.418   7.418  48.811  1.00  0.00     0.204 A 
HETATM   25  N1  UNL     1      27.704   8.023  48.490  1.00  0.00    -0.268 NA
HETATM   26  C7  UNL     1      28.041   8.895  49.356  1.00  0.00     0.230 A 
HETATM   27  N2  UNL     1      27.018   8.958  50.338  1.00  0.00    -0.220 NA
HETATM   28  C8  UNL     1      26.075   8.133  50.064  1.00  0.00     0.165 A 
BRANCH  28  29
HETATM   29  O1  UNL     1      25.005   8.100  50.958  1.00  0.00    -0.346 OA
HETATM   30  H10 UNL     1      24.229   8.752  50.820  1.00  0.00     0.219 HD
ENDBRANCH  28  29
ENDBRANCH  22  24
ENDBRANCH  21  22
ENDBRANCH   2  21
TORSDOF 7
ENDMDL
MODEL 2
REMARK VINA RESULT:      -8.4      3.725      7.592
REMARK  7 active torsions:
REMARK  status: ('A' for Active; 'I' for Inactive)
REMARK    1  A    between atoms: S1_2  and  C2_3 
REMARK    2  A    between atoms: C3_4  and  C4_5 
REMARK    3  A    between atoms: C4_5  and  C5_6 
REMARK    4  A    between atoms: C5_6  and  C6_8 
REMARK    5  A    between atoms: C8_12  and  O1_13 
REMARK    6  A    between atoms: C11_16  and  N3_17 
REMARK    7  A    between atoms: N3_17  and  C12_18 
ROOT
HETATM    1  C2  UNL     1      24.675   3.443  51.304  1.00  0.00     0.131 A 
HETATM    2  C3  UNL     1      25.826   2.661  50.819  1.00  0.00    -0.059 A 
HETATM    3  C9  UNL     1      26.593   3.246  49.885  1.00  0.00     0.007 A 
HETATM    4  C10 UNL     1      26.451   4.574  49.278  1.00  0.00     0.032 A 
HETATM    5  C11 UNL     1      25.458   5.359  49.657  1.00  0.00     0.059 A 
HETATM    6  C18 UNL     1      24.623   4.805  50.702  1.00  0.00     0.091 A 
HETATM    7  N4  UNL     1      23.692   5.493  51.239  1.00  0.00    -0.175 NA
HETATM    8  C19 UNL     1      23.384   6.806  50.898  1.00  0.00     0.206 C 
HETATM    9  N5  UNL     1      23.118   7.896  50.632  1.00  0.00    -0.170 NA
ENDROOT
BRANCH   1  10
HETATM   10  S1  UNL     1      23.066   2.710  50.879  1.00  0.00    -0.158 SA
HETATM   11  C1  UNL     1      22.963   2.608  49.074  1.00  0.00     0.091 C 
ENDBRANCH   1  10
BRANCH   5  12
HETATM   12  N3  UNL     1      25.258   6.642  49.115  1.00  0.00    -0.355 N 
HETATM   13  H13 UNL     1      24.225   6.643  48.977  1.00  0.00     0.166 HD
BRANCH  12  14
HETATM   14  C12 UNL     1      26.341   7.542  48.901  1.00  0.00     0.032 A 
HETATM   15  C13 UNL     1      26.668   8.291  50.001  1.00  0.00     0.032 A 
HETATM   16  C14 UNL     1      27.727   9.194  49.850  1.00  0.00     0.044 A 
HETATM   17  C15 UNL     1      28.376   9.289  48.640  1.00  0.00     0.116 A 
HETATM   18  F1  UNL     1      29.400  10.136  48.426  1.00  0.00    -0.206 F 
HETATM   19  C16 UNL     1      28.015   8.516  47.557  1.00  0.00     0.044 A 
HETATM   20  C17 UNL     1      26.961   7.603  47.672  1.00  0.00     0.032 A 
ENDBRANCH  12  14
ENDBRANCH   5  12
BRANCH   2  21
HETATM   21  C4  UNL     1      26.334   1.351  51.192  1.00  0.00     0.058 C 
BRANCH  21  22
HETATM   22  C5  UNL     1      26.524   1.017  52.620  1.00  0.00     0.119 C 
HETATM   23 CL1  UNL     1      25.331  -0.037  53.352  1.00  0.00    -0.122 Cl
BRANCH  22  24
HETATM   24  C6  UNL     1      27.940   0.572  52.949  1.00  0.00     0.204 A 
HETATM   25  N1  UNL     1      27.807  -0.311  54.101  1.00  0.00    -0.268 NA
HETATM   26  C7  UNL     1      28.363   0.184  55.136  1.00  0.00     0.230 A 
HETATM   27  N2  UNL     1      28.918   1.441  54.780  1.00  0.00    -0.220 NA
HETATM   28  C8  UNL     1      28.699   1.699  53.543  1.00  0.00     0.165 A 
BRANCH  28  29
HETATM   29  O1  UNL     1      29.198   2.912  53.069  1.00  0.00    -0.346 OA
HETATM   30  H10 UNL     1      28.734   3.356  52.272  1.00  0.00     0.219 HD
ENDBRANCH  28  29
ENDBRANCH  22  24
ENDBRANCH  21  22
ENDBRANCH   2  21
TORSDOF 7
ENDMDL
MODEL 3
REMARK VINA RESULT:      -8.3      1.148      1.493
REMARK  7 active torsions:
REMARK  status: ('A' for Active; 'I' for Inactive)
REMARK    1  A    between atoms: S1_2  and  C2_3 
REMARK    2  A    between atoms: C3_4  and  C4_5 
REMARK    3  A    between atoms: C4_5  and  C5_6 
REMARK    4  A    between atoms: C5_6  and  C6_8 
REMARK    5  A    between atoms: C8_12  and  O1_13 
REMARK    6  A    between atoms: C11_16  and  N3_17 
REMARK    7  A    between atoms: N3_17  and  C12_18 
ROOT
HETATM    1  C2  UNL     1      23.442   2.730  50.766  1.00  0.00     0.131 A 
HETATM    2  C3  UNL     1      24.587   3.428  50.154  1.00  0.00    -0.059 A 
HETATM    3  C9  UNL     1      25.805   3.068  50.589  1.00  0.00     0.007 A 
HETATM    4  C10 UNL     1      26.164   2.060  51.593  1.00  0.00     0.032 A 
HETATM    5  C11 UNL     1      25.208   1.369  52.189  1.00  0.00     0.059 A 
HETATM    6  C18 UNL     1      23.871   1.673  51.725  1.00  0.00     0.091 A 
HETATM    7  N4  UNL     1      22.861   1.010  52.135  1.00  0.00    -0.175 NA
HETATM    8  C19 UNL     1      22.925  -0.046  53.040  1.00  0.00     0.206 C 
HETATM    9  N5  UNL     1      22.959  -0.926  53.783  1.00  0.00    -0.170 NA
ENDROOT
BRANCH   1  10
HETATM   10  S1  UNL     1      22.371   3.817  51.754  1.00  0.00    -0.158 SA
HETATM   11  C1  UNL     1      23.427   4.751  52.891  1.00  0.00     0.091 C 
ENDBRANCH   1  10
BRANCH   5  12
HETATM   12  N3  UNL     1      25.477   0.390  53.163  1.00  0.00    -0.355 N 
HETATM   13  H13 UNL     1      24.523   0.221  53.548  1.00  0.00     0.166 HD
BRANCH  12  14
HETATM   14  C12 UNL     1      26.795  -0.098  53.390  1.00  0.00     0.032 A 
HETATM   15  C13 UNL     1      27.498   0.611  54.330  1.00  0.00     0.032 A 
HETATM   16  C14 UNL     1      28.801   0.176  54.595  1.00  0.00     0.044 A 
HETATM   17  C15 UNL     1      29.308  -0.912  53.923  1.00  0.00     0.116 A 
HETATM   18  F1  UNL     1      30.552  -1.383  54.129  1.00  0.00    -0.206 F 
HETATM   19  C16 UNL     1      28.567  -1.600  52.984  1.00  0.00     0.044 A 
HETATM   20  C17 UNL     1      27.260  -1.192  52.693  1.00  0.00     0.032 A 
ENDBRANCH  12  14
ENDBRANCH   5  12
BRANCH   2  21
HETATM   21  C4  UNL     1      24.662   4.437  49.110  1.00  0.00     0.058 C 
BRANCH  21  22
HETATM   22  C5  UNL     1      25.470   5.656  49.326  1.00  0.00     0.119 C 
HETATM   23 CL1  UNL     1      27.069   5.684  48.610  1.00  0.00    -0.122 Cl
BRANCH  22  24
HETATM   24  C6  UNL     1      24.708   6.940  49.039  1.00  0.00     0.204 A 
HETATM   25  N1  UNL     1      25.559   7.698  48.131  1.00  0.00    -0.268 NA
HETATM   26  C7  UNL     1      25.978   8.774  48.671  1.00  0.00     0.230 A 
HETATM   27  N2  UNL     1      25.451   8.840  49.987  1.00  0.00    -0.220 NA
HETATM   28  C8  UNL     1      24.722   7.815  50.236  1.00  0.00     0.165 A 
BRANCH  28  29
HETATM   29  O1  UNL     1      24.144   7.762  51.504  1.00  0.00    -0.346 OA
HETATM   30  H10 UNL     1      24.528   8.355  52.244  1.00  0.00     0.219 HD
ENDBRANCH  28  29
ENDBRANCH  22  24
ENDBRANCH  21  22
ENDBRANCH   2  21
TORSDOF 7
ENDMDL
MODEL 4
REMARK VINA RESULT:      -8.3      1.804      2.392
REMARK  7 active torsions:
REMARK  status: ('A' for Active; 'I' for Inactive)
REMARK    1  A    between atoms: S1_2  and  C2_3 
REMARK    2  A    between atoms: C3_4  and  C4_5 
REMARK    3  A    between atoms: C4_5  and  C5_6 
REMARK    4  A    between atoms: C5_6  and  C6_8 
REMARK    5  A    between atoms: C8_12  and  O1_13 
REMARK    6  A    between atoms: C11_16  and  N3_17 
REMARK    7  A    between atoms: N3_17  and  C12_18 
ROOT
HETATM    1  C2  UNL     1      24.695   5.494  49.684  1.00  0.00     0.131 A 
HETATM    2  C3  UNL     1      26.017   5.493  49.031  1.00  0.00    -0.059 A 
HETATM    3  C9  UNL     1      26.770   4.397  49.215  1.00  0.00     0.007 A 
HETATM    4  C10 UNL     1      26.457   3.181  49.975  1.00  0.00     0.032 A 
HETATM    5  C11 UNL     1      25.289   3.079  50.584  1.00  0.00     0.059 A 
HETATM    6  C18 UNL     1      24.408   4.209  50.381  1.00  0.00     0.091 A 
HETATM    7  N4  UNL     1      23.211   4.201  50.822  1.00  0.00    -0.175 NA
HETATM    8  C19 UNL     1      22.634   3.145  51.521  1.00  0.00     0.206 C 
HETATM    9  N5  UNL     1      22.138   2.278  52.096  1.00  0.00    -0.170 NA
ENDROOT
BRANCH   1  10
HETATM   10  S1  UNL     1      24.527   6.751  50.986  1.00  0.00    -0.158 SA
HETATM   11  C1  UNL     1      23.349   7.998  50.405  1.00  0.00     0.091 C 
ENDBRANCH   1  10
BRANCH   5  12
HETATM   12  N3  UNL     1      24.923   1.945  51.333  1.00  0.00    -0.355 N 
HETATM   13  H13 UNL     1      23.952   1.782  50.990  1.00  0.00     0.166 HD
BRANCH  12  14
HETATM   14  C12 UNL     1      25.817   1.342  52.263  1.00  0.00     0.032 A 
HETATM   15  C13 UNL     1      25.859   1.967  53.482  1.00  0.00     0.032 A 
HETATM   16  C14 UNL     1      26.721   1.417  54.437  1.00  0.00     0.044 A 
HETATM   17  C15 UNL     1      27.468   0.305  54.123  1.00  0.00     0.116 A 
HETATM   18  F1  UNL     1      28.315  -0.275  54.994  1.00  0.00    -0.206 F 
HETATM   19  C16 UNL     1      27.396  -0.296  52.884  1.00  0.00     0.044 A 
HETATM   20  C17 UNL     1      26.545   0.228  51.904  1.00  0.00     0.032 A 
ENDBRANCH  12  14
ENDBRANCH   5  12
BRANCH   2  21
HETATM   21  C4  UNL     1      26.673   6.461  48.168  1.00  0.00     0.058 C 
BRANCH  21  22
HETATM   22  C5  UNL     1      27.920   7.117  48.617  1.00  0.00     0.119 C 
HETATM   23 CL1  UNL     1      29.426   6.425  48.050  1.00  0.00    -0.122 Cl
BRANCH  22  24
HETATM   24  C6  UNL     1      27.899   8.627  48.446  1.00  0.00     0.204 A 
HETATM   25  N1  UNL     1      29.057   8.936  47.617  1.00  0.00    -0.268 NA
HETATM   26  C7  UNL     1      29.921   9.621  48.257  1.00  0.00     0.230 A 
HETATM   27  N2  UNL     1      29.428   9.836  49.570  1.00  0.00    -0.220 NA
HETATM   28  C8  UNL     1      28.279   9.286  49.718  1.00  0.00     0.165 A 
BRANCH  28  29
HETATM   29  O1  UNL     1      27.685   9.427  50.973  1.00  0.00    -0.346 OA
HETATM   30  H10 UNL     1      27.257   8.606  51.408  1.00  0.00     0.219 HD
ENDBRANCH  28  29
ENDBRANCH  22  24
ENDBRANCH  21  22
ENDBRANCH   2  21
TORSDOF 7
ENDMDL
MODEL 5
REMARK VINA RESULT:      -8.1      2.070      2.409
REMARK  7 active torsions:
REMARK  status: ('A' for Active; 'I' for Inactive)
REMARK    1  A    between atoms: S1_2  and  C2_3 
REMARK    2  A    between atoms: C3_4  and  C4_5 
REMARK    3  A    between atoms: C4_5  and  C5_6 
REMARK    4  A    between atoms: C5_6  and  C6_8 
REMARK    5  A    between atoms: C8_12  and  O1_13 
REMARK    6  A    between atoms: C11_16  and  N3_17 
REMARK    7  A    between atoms: N3_17  and  C12_18 
ROOT
HETATM    1  C2  UNL     1      22.970   2.158  50.977  1.00  0.00     0.131 A 
HETATM    2  C3  UNL     1      24.001   2.890  50.220  1.00  0.00    -0.059 A 
HETATM    3  C9  UNL     1      25.268   2.733  50.635  1.00  0.00     0.007 A 
HETATM    4  C10 UNL     1      25.780   1.919  51.743  1.00  0.00     0.032 A 
HETATM    5  C11 UNL     1      24.935   1.213  52.474  1.00  0.00     0.059 A 
HETATM    6  C18 UNL     1      23.556   1.298  52.044  1.00  0.00     0.091 A 
HETATM    7  N4  UNL     1      22.647   0.588  52.590  1.00  0.00    -0.175 NA
HETATM    8  C19 UNL     1      22.869  -0.319  53.622  1.00  0.00     0.206 C 
HETATM    9  N5  UNL     1      23.034  -1.079  54.472  1.00  0.00    -0.170 NA
ENDROOT
BRANCH   1  10
HETATM   10  S1  UNL     1      21.814   3.243  51.867  1.00  0.00    -0.158 SA
HETATM   11  C1  UNL     1      20.200   3.117  51.057  1.00  0.00     0.091 C 
ENDBRANCH   1  10
BRANCH   5  12
HETATM   12  N3  UNL     1      25.353   0.414  53.554  1.00  0.00    -0.355 N 
HETATM   13  H13 UNL     1      24.460   0.303  54.080  1.00  0.00     0.166 HD
BRANCH  12  14
HETATM   14  C12 UNL     1      26.704  -0.017  53.688  1.00  0.00     0.032 A 
HETATM   15  C13 UNL     1      27.039  -1.063  52.868  1.00  0.00     0.032 A 
HETATM   16  C14 UNL     1      28.355  -1.529  52.955  1.00  0.00     0.044 A 
HETATM   17  C15 UNL     1      29.233  -0.937  53.834  1.00  0.00     0.116 A 
HETATM   18  F1  UNL     1      30.511  -1.335  53.969  1.00  0.00    -0.206 F 
HETATM   19  C16 UNL     1      28.856   0.115  54.643  1.00  0.00     0.044 A 
HETATM   20  C17 UNL     1      27.547   0.607  54.582  1.00  0.00     0.032 A 
ENDBRANCH  12  14
ENDBRANCH   5  12
BRANCH   2  21
HETATM   21  C4  UNL     1      23.918   3.748  49.049  1.00  0.00     0.058 C 
BRANCH  21  22
HETATM   22  C5  UNL     1      23.605   5.184  49.213  1.00  0.00     0.119 C 
HETATM   23 CL1  UNL     1      21.928   5.654  49.028  1.00  0.00    -0.122 Cl
BRANCH  22  24
HETATM   24  C6  UNL     1      24.223   5.793  50.461  1.00  0.00     0.204 A 
HETATM   25  N1  UNL     1      23.359   6.914  50.809  1.00  0.00    -0.268 NA
HETATM   26  C7  UNL     1      23.967   8.028  50.690  1.00  0.00     0.230 A 
HETATM   27  N2  UNL     1      25.291   7.763  50.253  1.00  0.00    -0.220 NA
HETATM   28  C8  UNL     1      25.477   6.502  50.111  1.00  0.00     0.165 A 
BRANCH  28  29
HETATM   29  O1  UNL     1      26.746   6.110  49.683  1.00  0.00    -0.346 OA
HETATM   30  H10 UNL     1      27.423   5.792  50.381  1.00  0.00     0.219 HD
ENDBRANCH  28  29
ENDBRANCH  22  24
ENDBRANCH  21  22
ENDBRANCH   2  21
TORSDOF 7
ENDMDL
MODEL 6
REMARK VINA RESULT:      -8.1      3.568      8.080
REMARK  7 active torsions:
REMARK  status: ('A' for Active; 'I' for Inactive)
REMARK    1  A    between atoms: S1_2  and  C2_3 
REMARK    2  A    between atoms: C3_4  and  C4_5 
REMARK    3  A    between atoms: C4_5  and  C5_6 
REMARK    4  A    between atoms: C5_6  and  C6_8 
REMARK    5  A    between atoms: C8_12  and  O1_13 
REMARK    6  A    between atoms: C11_16  and  N3_17 
REMARK    7  A    between atoms: N3_17  and  C12_18 
ROOT
HETATM    1  C2  UNL     1      25.712   5.590  49.894  1.00  0.00     0.131 A 
HETATM    2  C3  UNL     1      26.519   4.411  49.535  1.00  0.00    -0.059 A 
HETATM    3  C9  UNL     1      27.594   4.638  48.761  1.00  0.00     0.007 A 
HETATM    4  C10 UNL     1      28.089   5.910  48.224  1.00  0.00     0.032 A 
HETATM    5  C11 UNL     1      27.442   7.028  48.502  1.00  0.00     0.059 A 
HETATM    6  C18 UNL     1      26.302   6.858  49.377  1.00  0.00     0.091 A 
HETATM    7  N4  UNL     1      25.647   7.862  49.814  1.00  0.00    -0.175 NA
HETATM    8  C19 UNL     1      25.944   9.188  49.514  1.00  0.00     0.206 C 
HETATM    9  N5  UNL     1      26.178  10.293  49.281  1.00  0.00    -0.170 NA
ENDROOT
BRANCH   1  10
HETATM   10  S1  UNL     1      24.034   5.565  49.193  1.00  0.00    -0.158 SA
HETATM   11  C1  UNL     1      22.858   5.594  50.570  1.00  0.00     0.091 C 
ENDBRANCH   1  10
BRANCH   5  12
HETATM   12  N3  UNL     1      27.856   8.283  48.018  1.00  0.00    -0.355 N 
HETATM   13  H13 UNL     1      26.938   8.739  47.828  1.00  0.00     0.166 HD
BRANCH  12  14
HETATM   14  C12 UNL     1      29.234   8.624  47.905  1.00  0.00     0.032 A 
HETATM   15  C13 UNL     1      29.813   9.004  49.089  1.00  0.00     0.032 A 
HETATM   16  C14 UNL     1      31.167   9.351  49.040  1.00  0.00     0.044 A 
HETATM   17  C15 UNL     1      31.842   9.298  47.842  1.00  0.00     0.116 A 
HETATM   18  F1  UNL     1      33.145   9.618  47.723  1.00  0.00    -0.206 F 
HETATM   19  C16 UNL     1      31.224   8.910  46.672  1.00  0.00     0.044 A 
HETATM   20  C17 UNL     1      29.869   8.556  46.684  1.00  0.00     0.032 A 
ENDBRANCH  12  14
ENDBRANCH   5  12
BRANCH   2  21
HETATM   21  C4  UNL     1      26.400   3.008  49.895  1.00  0.00     0.058 C 
BRANCH  21  22
HETATM   22  C5  UNL     1      25.916   2.636  51.242  1.00  0.00     0.119 C 
HETATM   23 CL1  UNL     1      24.203   2.302  51.404  1.00  0.00    -0.122 Cl
BRANCH  22  24
HETATM   24  C6  UNL     1      26.760   1.560  51.907  1.00  0.00     0.204 A 
HETATM   25  N1  UNL     1      25.849   0.853  52.798  1.00  0.00    -0.268 NA
HETATM   26  C7  UNL     1      26.170   1.018  54.021  1.00  0.00     0.230 A 
HETATM   27  N2  UNL     1      27.320   1.847  54.067  1.00  0.00    -0.220 NA
HETATM   28  C8  UNL     1      27.688   2.177  52.884  1.00  0.00     0.165 A 
BRANCH  28  29
HETATM   29  O1  UNL     1      28.814   2.996  52.794  1.00  0.00    -0.346 OA
HETATM   30  H10 UNL     1      29.694   2.667  53.199  1.00  0.00     0.219 HD
ENDBRANCH  28  29
ENDBRANCH  22  24
ENDBRANCH  21  22
ENDBRANCH   2  21
TORSDOF 7
ENDMDL
MODEL 7
REMARK VINA RESULT:      -7.8      4.549      8.014
REMARK  7 active torsions:
REMARK  status: ('A' for Active; 'I' for Inactive)
REMARK    1  A    between atoms: S1_2  and  C2_3 
REMARK    2  A    between atoms: C3_4  and  C4_5 
REMARK    3  A    between atoms: C4_5  and  C5_6 
REMARK    4  A    between atoms: C5_6  and  C6_8 
REMARK    5  A    between atoms: C8_12  and  O1_13 
REMARK    6  A    between atoms: C11_16  and  N3_17 
REMARK    7  A    between atoms: N3_17  and  C12_18 
ROOT
HETATM    1  C2  UNL     1      24.513   3.317  51.576  1.00  0.00     0.131 A 
HETATM    2  C3  UNL     1      25.787   2.886  50.975  1.00  0.00    -0.059 A 
HETATM    3  C9  UNL     1      26.225   3.604  49.929  1.00  0.00     0.007 A 
HETATM    4  C10 UNL     1      25.611   4.777  49.296  1.00  0.00     0.032 A 
HETATM    5  C11 UNL     1      24.473   5.251  49.772  1.00  0.00     0.059 A 
HETATM    6  C18 UNL     1      23.974   4.551  50.936  1.00  0.00     0.091 A 
HETATM    7  N4  UNL     1      22.943   4.963  51.564  1.00  0.00    -0.175 NA
HETATM    8  C19 UNL     1      22.206   6.091  51.217  1.00  0.00     0.206 C 
HETATM    9  N5  UNL     1      21.588   7.026  50.949  1.00  0.00    -0.170 NA
ENDROOT
BRANCH   1  10
HETATM   10  S1  UNL     1      23.172   2.102  51.392  1.00  0.00    -0.158 SA
HETATM   11  C1  UNL     1      22.702   2.057  49.644  1.00  0.00     0.091 C 
ENDBRANCH   1  10
BRANCH   5  12
HETATM   12  N3  UNL     1      23.826   6.368  49.213  1.00  0.00    -0.355 N 
HETATM   13  H13 UNL     1      23.821   7.024  50.024  1.00  0.00     0.166 HD
BRANCH  12  14
HETATM   14  C12 UNL     1      23.380   6.377  47.861  1.00  0.00     0.032 A 
HETATM   15  C13 UNL     1      22.543   5.340  47.544  1.00  0.00     0.032 A 
HETATM   16  C14 UNL     1      22.072   5.296  46.227  1.00  0.00     0.044 A 
HETATM   17  C15 UNL     1      22.457   6.268  45.332  1.00  0.00     0.116 A 
HETATM   18  F1  UNL     1      22.042   6.287  44.051  1.00  0.00    -0.206 F 
HETATM   19  C16 UNL     1      23.302   7.297  45.691  1.00  0.00     0.044 A 
HETATM   20  C17 UNL     1      23.793   7.371  47.000  1.00  0.00     0.032 A 
ENDBRANCH  12  14
ENDBRANCH   5  12
BRANCH   2  21
HETATM   21  C4  UNL     1      26.714   1.823  51.327  1.00  0.00     0.058 C 
BRANCH  21  22
HETATM   22  C5  UNL     1      26.395   0.913  52.449  1.00  0.00     0.119 C 
HETATM   23 CL1  UNL     1      26.648  -0.799  52.175  1.00  0.00    -0.122 Cl
BRANCH  22  24
HETATM   24  C6  UNL     1      26.992   1.361  53.773  1.00  0.00     0.204 A 
HETATM   25  N1  UNL     1      28.413   1.548  53.511  1.00  0.00    -0.268 NA
HETATM   26  C7  UNL     1      29.123   0.711  54.159  1.00  0.00     0.230 A 
HETATM   27  N2  UNL     1      28.249  -0.115  54.914  1.00  0.00    -0.220 NA
HETATM   28  C8  UNL     1      27.028   0.223  54.723  1.00  0.00     0.165 A 
BRANCH  28  29
HETATM   29  O1  UNL     1      26.067  -0.517  55.413  1.00  0.00    -0.346 OA
HETATM   30  H10 UNL     1      26.350  -1.392  55.861  1.00  0.00     0.219 HD
ENDBRANCH  28  29
ENDBRANCH  22  24
ENDBRANCH  21  22
ENDBRANCH   2  21
TORSDOF 7
ENDMDL
MODEL 8
REMARK VINA RESULT:      -7.7      5.210      7.979
REMARK  7 active torsions:
REMARK  status: ('A' for Active; 'I' for Inactive)
REMARK    1  A    between atoms: S1_2  and  C2_3 
REMARK    2  A    between atoms: C3_4  and  C4_5 
REMARK    3  A    between atoms: C4_5  and  C5_6 
REMARK    4  A    between atoms: C5_6  and  C6_8 
REMARK    5  A    between atoms: C8_12  and  O1_13 
REMARK    6  A    between atoms: C11_16  and  N3_17 
REMARK    7  A    between atoms: N3_17  and  C12_18 
ROOT
HETATM    1  C2  UNL     1      24.076   2.341  51.173  1.00  0.00     0.131 A 
HETATM    2  C3  UNL     1      24.183   1.591  52.437  1.00  0.00    -0.059 A 
HETATM    3  C9  UNL     1      23.149   0.793  52.745  1.00  0.00     0.007 A 
HETATM    4  C10 UNL     1      21.915   0.551  51.989  1.00  0.00     0.032 A 
HETATM    5  C11 UNL     1      21.731   1.166  50.834  1.00  0.00     0.059 A 
HETATM    6  C18 UNL     1      22.836   2.003  50.419  1.00  0.00     0.091 A 
HETATM    7  N4  UNL     1      22.841   2.573  49.277  1.00  0.00    -0.175 NA
HETATM    8  C19 UNL     1      21.825   2.459  48.333  1.00  0.00     0.206 C 
HETATM    9  N5  UNL     1      20.996   2.372  47.537  1.00  0.00    -0.170 NA
ENDROOT
BRANCH   1  10
HETATM   10  S1  UNL     1      23.977   4.143  51.401  1.00  0.00    -0.158 SA
HETATM   11  C1  UNL     1      22.486   4.498  52.366  1.00  0.00     0.091 C 
ENDBRANCH   1  10
BRANCH   5  12
HETATM   12  N3  UNL     1      20.571   0.985  50.057  1.00  0.00    -0.355 N 
HETATM   13  H13 UNL     1      20.978   0.616  49.171  1.00  0.00     0.166 HD
BRANCH  12  14
HETATM   14  C12 UNL     1      19.276   1.294  50.562  1.00  0.00     0.032 A 
HETATM   15  C13 UNL     1      18.432   0.216  50.626  1.00  0.00     0.032 A 
HETATM   16  C14 UNL     1      17.143   0.459  51.116  1.00  0.00     0.044 A 
HETATM   17  C15 UNL     1      16.788   1.732  51.501  1.00  0.00     0.116 A 
HETATM   18  F1  UNL     1      15.567   2.035  51.980  1.00  0.00    -0.206 F 
HETATM   19  C16 UNL     1      17.669   2.790  51.421  1.00  0.00     0.044 A 
HETATM   20  C17 UNL     1      18.965   2.584  50.936  1.00  0.00     0.032 A 
ENDBRANCH  12  14
ENDBRANCH   5  12
BRANCH   2  21
HETATM   21  C4  UNL     1      25.241   1.514  53.431  1.00  0.00     0.058 C 
BRANCH  21  22
HETATM   22  C5  UNL     1      26.148   0.346  53.448  1.00  0.00     0.119 C 
HETATM   23 CL1  UNL     1      26.693  -0.255  51.895  1.00  0.00    -0.122 Cl
BRANCH  22  24
HETATM   24  C6  UNL     1      27.302   0.497  54.426  1.00  0.00     0.204 A 
HETATM   25  N1  UNL     1      27.744   1.879  54.289  1.00  0.00    -0.268 NA
HETATM   26  C7  UNL     1      28.924   1.947  53.812  1.00  0.00     0.230 A 
HETATM   27  N2  UNL     1      29.385   0.625  53.584  1.00  0.00    -0.220 NA
HETATM   28  C8  UNL     1      28.491  -0.231  53.921  1.00  0.00     0.165 A 
BRANCH  28  29
HETATM   29  O1  UNL     1      28.825  -1.574  53.744  1.00  0.00    -0.346 OA
HETATM   30  H10 UNL     1      28.257  -2.141  53.108  1.00  0.00     0.219 HD
ENDBRANCH  28  29
ENDBRANCH  22  24
ENDBRANCH  21  22
ENDBRANCH   2  21
TORSDOF 7
ENDMDL
MODEL 9
REMARK VINA RESULT:      -7.5      3.289      4.661
REMARK  7 active torsions:
REMARK  status: ('A' for Active; 'I' for Inactive)
REMARK    1  A    between atoms: S1_2  and  C2_3 
REMARK    2  A    between atoms: C3_4  and  C4_5 
REMARK    3  A    between atoms: C4_5  and  C5_6 
REMARK    4  A    between atoms: C5_6  and  C6_8 
REMARK    5  A    between atoms: C8_12  and  O1_13 
REMARK    6  A    between atoms: C11_16  and  N3_17 
REMARK    7  A    between atoms: N3_17  and  C12_18 
ROOT
HETATM    1  C2  UNL     1      26.216   6.838  48.312  1.00  0.00     0.131 A 
HETATM    2  C3  UNL     1      27.654   6.563  48.142  1.00  0.00    -0.059 A 
HETATM    3  C9  UNL     1      28.075   5.343  48.512  1.00  0.00     0.007 A 
HETATM    4  C10 UNL     1      27.295   4.227  49.059  1.00  0.00     0.032 A 
HETATM    5  C11 UNL     1      25.993   4.369  49.235  1.00  0.00     0.059 A 
HETATM    6  C18 UNL     1      25.468   5.648  48.806  1.00  0.00     0.091 A 
HETATM    7  N4  UNL     1      24.214   5.885  48.818  1.00  0.00    -0.175 NA
HETATM    8  C19 UNL     1      23.243   4.977  49.227  1.00  0.00     0.206 C 
HETATM    9  N5  UNL     1      22.424   4.236  49.557  1.00  0.00    -0.170 NA
ENDROOT
BRANCH   1  10
HETATM   10  S1  UNL     1      25.861   8.126  49.545  1.00  0.00    -0.158 SA
HETATM   11  C1  UNL     1      24.866   9.406  48.738  1.00  0.00     0.091 C 
ENDBRANCH   1  10
BRANCH   5  12
HETATM   12  N3  UNL     1      25.184   3.344  49.758  1.00  0.00    -0.355 N 
HETATM   13  H13 UNL     1      24.508   3.202  48.977  1.00  0.00     0.166 HD
BRANCH  12  14
HETATM   14  C12 UNL     1      25.417   2.791  51.050  1.00  0.00     0.032 A 
HETATM   15  C13 UNL     1      26.409   1.846  51.080  1.00  0.00     0.032 A 
HETATM   16  C14 UNL     1      26.684   1.267  52.323  1.00  0.00     0.044 A 
HETATM   17  C15 UNL     1      25.969   1.659  53.432  1.00  0.00     0.116 A 
HETATM   18  F1  UNL     1      26.181   1.143  54.657  1.00  0.00    -0.206 F 
HETATM   19  C16 UNL     1      24.978   2.615  53.359  1.00  0.00     0.044 A 
HETATM   20  C17 UNL     1      24.676   3.215  52.131  1.00  0.00     0.032 A 
ENDBRANCH  12  14
ENDBRANCH   5  12
BRANCH   2  21
HETATM   21  C4  UNL     1      28.737   7.368  47.601  1.00  0.00     0.058 C 
BRANCH  21  22
HETATM   22  C5  UNL     1      30.131   6.884  47.702  1.00  0.00     0.119 C 
HETATM   23 CL1  UNL     1      31.085   6.907  46.233  1.00  0.00    -0.122 Cl
BRANCH  22  24
HETATM   24  C6  UNL     1      30.892   7.486  48.872  1.00  0.00     0.204 A 
HETATM   25  N1  UNL     1      31.974   8.255  48.272  1.00  0.00    -0.268 NA
HETATM   26  C7  UNL     1      33.114   7.762  48.559  1.00  0.00     0.230 A 
HETATM   27  N2  UNL     1      32.907   6.619  49.375  1.00  0.00    -0.220 NA
HETATM   28  C8  UNL     1      31.655   6.428  49.577  1.00  0.00     0.165 A 
BRANCH  28  29
HETATM   29  O1  UNL     1      31.319   5.329  50.369  1.00  0.00    -0.346 OA
HETATM   30  H10 UNL     1      30.343   5.024  50.395  1.00  0.00     0.219 HD
ENDBRANCH  28  29
ENDBRANCH  22  24
ENDBRANCH  21  22
ENDBRANCH   2  21
TORSDOF 7
ENDMDL
