MODEL 1
REMARK VINA RESULT:      -7.9      0.000      0.000
REMARK  4 active torsions:
REMARK  status: ('A' for Active; 'I' for Inactive)
REMARK    1  A    between atoms: C3_3  and  N1_4 
REMARK    2  A    between atoms: N1_4  and  C4_5 
REMARK    3  A    between atoms: C10_12  and  N3_13 
REMARK       I    between atoms: N3_13  and  C11_14 
REMARK    4  A    between atoms: C11_14  and  C12_16 
ROOT
HETATM    1  C4  UNL     1      27.144   0.507  53.059  1.00  0.00     0.080 A 
HETATM    2  C5  UNL     1      28.258  -0.262  53.397  1.00  0.00     0.073 A 
HETATM    3  C6  UNL     1      28.298  -1.693  53.238  1.00  0.00     0.102 C 
HETATM    4  N2  UNL     1      28.327  -2.849  53.088  1.00  0.00    -0.191 NA
HETATM    5  C7  UNL     1      29.355   0.427  53.900  1.00  0.00     0.025 A 
HETATM    6  C8  UNL     1      29.395   1.794  54.075  1.00  0.00     0.004 A 
HETATM    7  C9  UNL     1      28.287   2.538  53.735  1.00  0.00     0.032 A 
HETATM    8  C10 UNL     1      27.188   1.873  53.236  1.00  0.00     0.063 A 
ENDROOT
BRANCH   1   9
HETATM    9  N1  UNL     1      26.065  -0.282  52.555  1.00  0.00    -0.363 N 
HETATM   10  H6  UNL     1      26.205  -0.555  51.569  1.00  0.00     0.165 HD
BRANCH   9  11
HETATM   11  C3  UNL     1      24.956  -0.620  53.382  1.00  0.00     0.084 C 
HETATM   12  C2  UNL     1      23.705  -0.235  53.320  1.00  0.00    -0.014 C 
HETATM   13  C1  UNL     1      23.094   0.682  52.344  1.00  0.00     0.037 C 
ENDBRANCH   9  11
ENDBRANCH   1   9
BRANCH   8  14
HETATM   14  N3  UNL     1      25.984   2.552  52.851  1.00  0.00    -0.325 N 
HETATM   15  C11 UNL     1      26.155   2.816  51.474  1.00  0.00     0.226 C 
HETATM   16  O1  UNL     1      27.301   2.350  51.106  1.00  0.00    -0.273 OA
HETATM   17  H10 UNL     1      25.045   2.935  53.142  1.00  0.00     0.169 HD
BRANCH  15  18
HETATM   18  C12 UNL     1      25.384   3.466  50.386  1.00  0.00     0.078 C 
HETATM   19  C13 UNL     1      24.425   4.511  50.835  1.00  0.00     0.014 C 
HETATM   20  C14 UNL     1      23.721   5.070  49.608  1.00  0.00     0.001 C 
HETATM   21  C15 UNL     1      24.730   5.924  48.852  1.00  0.00     0.000 C 
HETATM   22  C16 UNL     1      26.143   5.457  49.023  1.00  0.00     0.001 C 
HETATM   23  C17 UNL     1      26.276   3.990  49.317  1.00  0.00     0.014 C 
ENDBRANCH  15  18
ENDBRANCH   8  14
TORSDOF 4
ENDMDL
MODEL 2
REMARK VINA RESULT:      -7.7      1.347      3.441
REMARK  4 active torsions:
REMARK  status: ('A' for Active; 'I' for Inactive)
REMARK    1  A    between atoms: C3_3  and  N1_4 
REMARK    2  A    between atoms: N1_4  and  C4_5 
REMARK    3  A    between atoms: C10_12  and  N3_13 
REMARK       I    between atoms: N3_13  and  C11_14 
REMARK    4  A    between atoms: C11_14  and  C12_16 
ROOT
HETATM    1  C4  UNL     1      25.723   1.118  52.601  1.00  0.00     0.080 A 
HETATM    2  C5  UNL     1      25.364  -0.176  52.977  1.00  0.00     0.073 A 
HETATM    3  C6  UNL     1      26.304  -1.267  53.022  1.00  0.00     0.102 C 
HETATM    4  N2  UNL     1      27.077  -2.138  53.073  1.00  0.00    -0.191 NA
HETATM    5  C7  UNL     1      24.032  -0.374  53.320  1.00  0.00     0.025 A 
HETATM    6  C8  UNL     1      23.077   0.620  53.308  1.00  0.00     0.004 A 
HETATM    7  C9  UNL     1      23.448   1.892  52.936  1.00  0.00     0.032 A 
HETATM    8  C10 UNL     1      24.764   2.108  52.591  1.00  0.00     0.063 A 
ENDROOT
BRANCH   1   9
HETATM    9  N1  UNL     1      27.106   1.228  52.264  1.00  0.00    -0.363 N 
HETATM   10  H6  UNL     1      27.328   0.782  51.359  1.00  0.00     0.165 HD
BRANCH   9  11
HETATM   11  C3  UNL     1      28.019   1.901  53.126  1.00  0.00     0.084 C 
HETATM   12  C2  UNL     1      29.104   1.465  53.718  1.00  0.00    -0.014 C 
HETATM   13  C1  UNL     1      29.685   0.114  53.645  1.00  0.00     0.037 C 
ENDBRANCH   9  11
ENDBRANCH   1   9
BRANCH   8  14
HETATM   14  N3  UNL     1      25.256   3.395  52.189  1.00  0.00    -0.325 N 
HETATM   15  C11 UNL     1      25.134   3.394  50.782  1.00  0.00     0.226 C 
HETATM   16  O1  UNL     1      24.633   2.263  50.414  1.00  0.00    -0.273 OA
HETATM   17  H10 UNL     1      25.665   4.323  52.480  1.00  0.00     0.169 HD
BRANCH  15  18
HETATM   18  C12 UNL     1      25.422   4.326  49.664  1.00  0.00     0.078 C 
HETATM   19  C13 UNL     1      25.447   5.765  50.037  1.00  0.00     0.014 C 
HETATM   20  C14 UNL     1      25.750   6.576  48.786  1.00  0.00     0.001 C 
HETATM   21  C15 UNL     1      27.216   6.352  48.442  1.00  0.00     0.000 C 
HETATM   22  C16 UNL     1      27.723   5.007  48.865  1.00  0.00     0.001 C 
HETATM   23  C17 UNL     1      26.664   3.945  48.937  1.00  0.00     0.014 C 
ENDBRANCH  15  18
ENDBRANCH   8  14
TORSDOF 4
ENDMDL
MODEL 3
REMARK VINA RESULT:      -7.7      2.610      6.571
REMARK  4 active torsions:
REMARK  status: ('A' for Active; 'I' for Inactive)
REMARK    1  A    between atoms: C3_3  and  N1_4 
REMARK    2  A    between atoms: N1_4  and  C4_5 
REMARK    3  A    between atoms: C10_12  and  N3_13 
REMARK       I    between atoms: N3_13  and  C11_14 
REMARK    4  A    between atoms: C11_14  and  C12_16 
ROOT
HETATM    1  C4  UNL     1      22.631   0.666  52.839  1.00  0.00     0.080 A 
HETATM    2  C5  UNL     1      21.362   1.034  53.285  1.00  0.00     0.073 A 
HETATM    3  C6  UNL     1      20.717   2.259  52.886  1.00  0.00     0.102 C 
HETATM    4  N2  UNL     1      20.197   3.244  52.542  1.00  0.00    -0.191 NA
HETATM    5  C7  UNL     1      20.728   0.147  54.146  1.00  0.00     0.025 A 
HETATM    6  C8  UNL     1      21.276  -1.046  54.568  1.00  0.00     0.004 A 
HETATM    7  C9  UNL     1      22.529  -1.395  54.117  1.00  0.00     0.032 A 
HETATM    8  C10 UNL     1      23.176  -0.528  53.263  1.00  0.00     0.063 A 
ENDROOT
BRANCH   1   9
HETATM    9  N1  UNL     1      23.208   1.635  51.962  1.00  0.00    -0.363 N 
HETATM   10  H6  UNL     1      22.858   1.547  50.994  1.00  0.00     0.165 HD
BRANCH   9  11
HETATM   11  C3  UNL     1      24.148   2.590  52.444  1.00  0.00     0.084 C 
HETATM   12  C2  UNL     1      25.417   2.748  52.157  1.00  0.00    -0.014 C 
HETATM   13  C1  UNL     1      26.234   1.951  51.228  1.00  0.00     0.037 C 
ENDBRANCH   9  11
ENDBRANCH   1   9
BRANCH   8  14
HETATM   14  N3  UNL     1      24.482  -0.795  52.734  1.00  0.00    -0.325 N 
HETATM   15  C11 UNL     1      25.347  -0.639  53.839  1.00  0.00     0.226 C 
HETATM   16  O1  UNL     1      24.640  -0.328  54.873  1.00  0.00    -0.273 OA
HETATM   17  H10 UNL     1      25.069  -1.050  51.894  1.00  0.00     0.169 HD
BRANCH  15  18
HETATM   18  C12 UNL     1      26.804  -0.737  54.104  1.00  0.00     0.078 C 
HETATM   19  C13 UNL     1      27.634  -1.093  52.922  1.00  0.00     0.014 C 
HETATM   20  C14 UNL     1      29.089  -1.155  53.363  1.00  0.00     0.001 C 
HETATM   21  C15 UNL     1      29.552   0.275  53.608  1.00  0.00     0.000 C 
HETATM   22  C16 UNL     1      28.448   1.185  54.053  1.00  0.00     0.001 C 
HETATM   23  C17 UNL     1      27.326   0.488  54.769  1.00  0.00     0.014 C 
ENDBRANCH  15  18
ENDBRANCH   8  14
TORSDOF 4
ENDMDL
MODEL 4
REMARK VINA RESULT:      -7.5      2.002      6.422
REMARK  4 active torsions:
REMARK  status: ('A' for Active; 'I' for Inactive)
REMARK    1  A    between atoms: C3_3  and  N1_4 
REMARK    2  A    between atoms: N1_4  and  C4_5 
REMARK    3  A    between atoms: C10_12  and  N3_13 
REMARK       I    between atoms: N3_13  and  C11_14 
REMARK    4  A    between atoms: C11_14  and  C12_16 
ROOT
HETATM    1  C4  UNL     1      23.930   1.901  51.842  1.00  0.00     0.080 A 
HETATM    2  C5  UNL     1      22.875   1.851  50.931  1.00  0.00     0.073 A 
HETATM    3  C6  UNL     1      22.786   2.725  49.789  1.00  0.00     0.102 C 
HETATM    4  N2  UNL     1      22.732   3.426  48.859  1.00  0.00    -0.191 NA
HETATM    5  C7  UNL     1      21.894   0.897  51.171  1.00  0.00     0.025 A 
HETATM    6  C8  UNL     1      21.913   0.021  52.236  1.00  0.00     0.004 A 
HETATM    7  C9  UNL     1      22.962   0.082  53.126  1.00  0.00     0.032 A 
HETATM    8  C10 UNL     1      23.945   1.023  52.906  1.00  0.00     0.063 A 
ENDROOT
BRANCH   1   9
HETATM    9  N1  UNL     1      24.887   2.909  51.520  1.00  0.00    -0.363 N 
HETATM   10  H6  UNL     1      24.651   3.824  51.937  1.00  0.00     0.165 HD
BRANCH   9  11
HETATM   11  C3  UNL     1      26.023   2.611  50.713  1.00  0.00     0.084 C 
HETATM   12  C2  UNL     1      26.587   3.305  49.754  1.00  0.00    -0.014 C 
HETATM   13  C1  UNL     1      26.181   4.623  49.241  1.00  0.00     0.037 C 
ENDBRANCH   9  11
ENDBRANCH   1   9
BRANCH   8  14
HETATM   14  N3  UNL     1      25.080   1.171  53.770  1.00  0.00    -0.325 N 
HETATM   15  C11 UNL     1      25.917   0.083  53.440  1.00  0.00     0.226 C 
HETATM   16  O1  UNL     1      25.348  -0.604  52.507  1.00  0.00    -0.273 OA
HETATM   17  H10 UNL     1      25.554   1.727  54.532  1.00  0.00     0.169 HD
BRANCH  15  18
HETATM   18  C12 UNL     1      27.231  -0.452  53.876  1.00  0.00     0.078 C 
HETATM   19  C13 UNL     1      27.959  -1.240  52.846  1.00  0.00     0.014 C 
HETATM   20  C14 UNL     1      29.273  -1.714  53.450  1.00  0.00     0.001 C 
HETATM   21  C15 UNL     1      30.184  -0.500  53.568  1.00  0.00     0.000 C 
HETATM   22  C16 UNL     1      29.436   0.782  53.772  1.00  0.00     0.001 C 
HETATM   23  C17 UNL     1      28.100   0.617  54.439  1.00  0.00     0.014 C 
ENDBRANCH  15  18
ENDBRANCH   8  14
TORSDOF 4
ENDMDL
MODEL 5
REMARK VINA RESULT:      -7.3      2.739      6.960
REMARK  4 active torsions:
REMARK  status: ('A' for Active; 'I' for Inactive)
REMARK    1  A    between atoms: C3_3  and  N1_4 
REMARK    2  A    between atoms: N1_4  and  C4_5 
REMARK    3  A    between atoms: C10_12  and  N3_13 
REMARK       I    between atoms: N3_13  and  C11_14 
REMARK    4  A    between atoms: C11_14  and  C12_16 
ROOT
HETATM    1  C4  UNL     1      24.003   5.117  50.957  1.00  0.00     0.080 A 
HETATM    2  C5  UNL     1      23.187   5.616  49.941  1.00  0.00     0.073 A 
HETATM    3  C6  UNL     1      23.711   6.198  48.732  1.00  0.00     0.102 C 
HETATM    4  N2  UNL     1      24.146   6.650  47.749  1.00  0.00    -0.191 NA
HETATM    5  C7  UNL     1      21.817   5.520  50.146  1.00  0.00     0.025 A 
HETATM    6  C8  UNL     1      21.240   4.971  51.271  1.00  0.00     0.004 A 
HETATM    7  C9  UNL     1      22.060   4.482  52.264  1.00  0.00     0.032 A 
HETATM    8  C10 UNL     1      23.423   4.569  52.081  1.00  0.00     0.063 A 
ENDROOT
BRANCH   1   9
HETATM    9  N1  UNL     1      25.394   5.259  50.664  1.00  0.00    -0.363 N 
HETATM   10  H6  UNL     1      25.783   6.145  51.024  1.00  0.00     0.165 HD
BRANCH   9  11
HETATM   11  C3  UNL     1      26.101   4.244  49.957  1.00  0.00     0.084 C 
HETATM   12  C2  UNL     1      27.039   4.343  49.046  1.00  0.00    -0.014 C 
HETATM   13  C1  UNL     1      27.630   5.573  48.495  1.00  0.00     0.037 C 
ENDBRANCH   9  11
ENDBRANCH   1   9
BRANCH   8  14
HETATM   14  N3  UNL     1      24.365   4.090  53.051  1.00  0.00    -0.325 N 
HETATM   15  C11 UNL     1      24.513   2.718  52.750  1.00  0.00     0.226 C 
HETATM   16  O1  UNL     1      23.762   2.437  51.738  1.00  0.00    -0.273 OA
HETATM   17  H10 UNL     1      24.983   4.310  53.877  1.00  0.00     0.169 HD
BRANCH  15  18
HETATM   18  C12 UNL     1      25.280   1.564  53.278  1.00  0.00     0.078 C 
HETATM   19  C13 UNL     1      24.501   0.305  53.418  1.00  0.00     0.014 C 
HETATM   20  C14 UNL     1      25.427  -0.769  53.971  1.00  0.00     0.001 C 
HETATM   21  C15 UNL     1      26.389  -1.159  52.857  1.00  0.00     0.000 C 
HETATM   22  C16 UNL     1      26.673  -0.038  51.903  1.00  0.00     0.001 C 
HETATM   23  C17 UNL     1      26.529   1.332  52.502  1.00  0.00     0.014 C 
ENDBRANCH  15  18
ENDBRANCH   8  14
TORSDOF 4
ENDMDL
MODEL 6
REMARK VINA RESULT:      -7.3      2.669      4.495
REMARK  4 active torsions:
REMARK  status: ('A' for Active; 'I' for Inactive)
REMARK    1  A    between atoms: C3_3  and  N1_4 
REMARK    2  A    between atoms: N1_4  and  C4_5 
REMARK    3  A    between atoms: C10_12  and  N3_13 
REMARK       I    between atoms: N3_13  and  C11_14 
REMARK    4  A    between atoms: C11_14  and  C12_16 
ROOT
HETATM    1  C4  UNL     1      24.991   0.250  52.859  1.00  0.00     0.080 A 
HETATM    2  C5  UNL     1      26.306  -0.072  52.524  1.00  0.00     0.073 A 
HETATM    3  C6  UNL     1      26.842  -1.403  52.649  1.00  0.00     0.102 C 
HETATM    4  N2  UNL     1      27.259  -2.488  52.737  1.00  0.00    -0.191 NA
HETATM    5  C7  UNL     1      27.095   0.968  52.047  1.00  0.00     0.025 A 
HETATM    6  C8  UNL     1      26.654   2.265  51.893  1.00  0.00     0.004 A 
HETATM    7  C9  UNL     1      25.352   2.566  52.227  1.00  0.00     0.032 A 
HETATM    8  C10 UNL     1      24.554   1.549  52.703  1.00  0.00     0.063 A 
ENDROOT
BRANCH   1   9
HETATM    9  N1  UNL     1      24.256  -0.875  53.341  1.00  0.00    -0.363 N 
HETATM   10  H6  UNL     1      24.083  -1.577  52.604  1.00  0.00     0.165 HD
BRANCH   9  11
HETATM   11  C3  UNL     1      23.847  -0.953  54.703  1.00  0.00     0.084 C 
HETATM   12  C2  UNL     1      22.681  -1.255  55.221  1.00  0.00    -0.014 C 
HETATM   13  C1  UNL     1      21.443  -1.605  54.506  1.00  0.00     0.037 C 
ENDBRANCH   9  11
ENDBRANCH   1   9
BRANCH   8  14
HETATM   14  N3  UNL     1      23.184   1.753  53.079  1.00  0.00    -0.325 N 
HETATM   15  C11 UNL     1      22.462   1.597  51.876  1.00  0.00     0.226 C 
HETATM   16  O1  UNL     1      23.297   1.332  50.928  1.00  0.00    -0.273 OA
HETATM   17  H10 UNL     1      22.494   1.967  53.848  1.00  0.00     0.169 HD
BRANCH  15  18
HETATM   18  C12 UNL     1      21.045   1.657  51.440  1.00  0.00     0.078 C 
HETATM   19  C13 UNL     1      20.733   0.877  50.213  1.00  0.00     0.014 C 
HETATM   20  C14 UNL     1      19.253   1.046  49.904  1.00  0.00     0.001 C 
HETATM   21  C15 UNL     1      18.477   0.251  50.945  1.00  0.00     0.000 C 
HETATM   22  C16 UNL     1      19.182   0.158  52.264  1.00  0.00     0.001 C 
HETATM   23  C17 UNL     1      20.114   1.301  52.546  1.00  0.00     0.014 C 
ENDBRANCH  15  18
ENDBRANCH   8  14
TORSDOF 4
ENDMDL
MODEL 7
REMARK VINA RESULT:      -7.2      2.534      6.371
REMARK  4 active torsions:
REMARK  status: ('A' for Active; 'I' for Inactive)
REMARK    1  A    between atoms: C3_3  and  N1_4 
REMARK    2  A    between atoms: N1_4  and  C4_5 
REMARK    3  A    between atoms: C10_12  and  N3_13 
REMARK       I    between atoms: N3_13  and  C11_14 
REMARK    4  A    between atoms: C11_14  and  C12_16 
ROOT
HETATM    1  C4  UNL     1      22.358   0.890  52.585  1.00  0.00     0.080 A 
HETATM    2  C5  UNL     1      21.123   1.180  53.166  1.00  0.00     0.073 A 
HETATM    3  C6  UNL     1      20.267   2.238  52.694  1.00  0.00     0.102 C 
HETATM    4  N2  UNL     1      19.573   3.085  52.293  1.00  0.00    -0.191 NA
HETATM    5  C7  UNL     1      20.742   0.384  54.238  1.00  0.00     0.025 A 
HETATM    6  C8  UNL     1      21.502  -0.650  54.742  1.00  0.00     0.004 A 
HETATM    7  C9  UNL     1      22.718  -0.924  54.157  1.00  0.00     0.032 A 
HETATM    8  C10 UNL     1      23.115  -0.144  53.092  1.00  0.00     0.063 A 
ENDROOT
BRANCH   1   9
HETATM    9  N1  UNL     1      22.670   1.758  51.495  1.00  0.00    -0.363 N 
HETATM   10  H6  UNL     1      23.187   2.600  51.797  1.00  0.00     0.165 HD
BRANCH   9  11
HETATM   11  C3  UNL     1      22.286   1.428  50.164  1.00  0.00     0.084 C 
HETATM   12  C2  UNL     1      22.485   2.072  49.040  1.00  0.00    -0.014 C 
HETATM   13  C1  UNL     1      23.184   3.354  48.851  1.00  0.00     0.037 C 
ENDBRANCH   9  11
ENDBRANCH   1   9
BRANCH   8  14
HETATM   14  N3  UNL     1      24.362  -0.345  52.410  1.00  0.00    -0.325 N 
HETATM   15  C11 UNL     1      25.270   0.503  53.082  1.00  0.00     0.226 C 
HETATM   16  O1  UNL     1      24.639   1.111  54.030  1.00  0.00    -0.273 OA
HETATM   17  H10 UNL     1      24.886  -0.838  51.639  1.00  0.00     0.169 HD
BRANCH  15  18
HETATM   18  C12 UNL     1      26.706   0.859  52.980  1.00  0.00     0.078 C 
HETATM   19  C13 UNL     1      27.093   2.113  53.679  1.00  0.00     0.014 C 
HETATM   20  C14 UNL     1      28.585   2.333  53.476  1.00  0.00     0.001 C 
HETATM   21  C15 UNL     1      29.317   1.303  54.325  1.00  0.00     0.000 C 
HETATM   22  C16 UNL     1      28.545   0.031  54.507  1.00  0.00     0.001 C 
HETATM   23  C17 UNL     1      27.584  -0.270  53.393  1.00  0.00     0.014 C 
ENDBRANCH  15  18
ENDBRANCH   8  14
TORSDOF 4
ENDMDL
MODEL 8
REMARK VINA RESULT:      -7.2      2.361      4.752
REMARK  4 active torsions:
REMARK  status: ('A' for Active; 'I' for Inactive)
REMARK    1  A    between atoms: C3_3  and  N1_4 
REMARK    2  A    between atoms: N1_4  and  C4_5 
REMARK    3  A    between atoms: C10_12  and  N3_13 
REMARK       I    between atoms: N3_13  and  C11_14 
REMARK    4  A    between atoms: C11_14  and  C12_16 
ROOT
HETATM    1  C4  UNL     1      22.724   0.494  52.694  1.00  0.00     0.080 A 
HETATM    2  C5  UNL     1      21.806   0.161  53.690  1.00  0.00     0.073 A 
HETATM    3  C6  UNL     1      22.071  -0.836  54.696  1.00  0.00     0.102 C 
HETATM    4  N2  UNL     1      22.302  -1.631  55.517  1.00  0.00    -0.191 NA
HETATM    5  C7  UNL     1      20.600   0.851  53.675  1.00  0.00     0.025 A 
HETATM    6  C8  UNL     1      20.277   1.821  52.751  1.00  0.00     0.004 A 
HETATM    7  C9  UNL     1      21.194   2.139  51.775  1.00  0.00     0.032 A 
HETATM    8  C10 UNL     1      22.396   1.465  51.771  1.00  0.00     0.063 A 
ENDROOT
BRANCH   1   9
HETATM    9  N1  UNL     1      23.931  -0.264  52.783  1.00  0.00    -0.363 N 
HETATM   10  H6  UNL     1      23.894  -1.131  52.222  1.00  0.00     0.165 HD
BRANCH   9  11
HETATM   11  C3  UNL     1      25.025   0.191  53.572  1.00  0.00     0.084 C 
HETATM   12  C2  UNL     1      26.238   0.541  53.217  1.00  0.00    -0.014 C 
HETATM   13  C1  UNL     1      26.807   0.556  51.860  1.00  0.00     0.037 C 
ENDBRANCH   9  11
ENDBRANCH   1   9
BRANCH   8  14
HETATM   14  N3  UNL     1      23.421   1.718  50.800  1.00  0.00    -0.325 N 
HETATM   15  C11 UNL     1      24.031   2.914  51.237  1.00  0.00     0.226 C 
HETATM   16  O1  UNL     1      23.445   3.302  52.320  1.00  0.00    -0.273 OA
HETATM   17  H10 UNL     1      23.908   1.408  49.917  1.00  0.00     0.169 HD
BRANCH  15  18
HETATM   18  C12 UNL     1      25.131   3.803  50.789  1.00  0.00     0.078 C 
HETATM   19  C13 UNL     1      25.840   3.353  49.561  1.00  0.00     0.014 C 
HETATM   20  C14 UNL     1      26.930   4.365  49.242  1.00  0.00     0.001 C 
HETATM   21  C15 UNL     1      26.247   5.623  48.723  1.00  0.00     0.000 C 
HETATM   22  C16 UNL     1      24.877   5.829  49.295  1.00  0.00     0.001 C 
HETATM   23  C17 UNL     1      24.677   5.214  50.651  1.00  0.00     0.014 C 
ENDBRANCH  15  18
ENDBRANCH   8  14
TORSDOF 4
ENDMDL
MODEL 9
REMARK VINA RESULT:      -7.2      2.357      3.262
REMARK  4 active torsions:
REMARK  status: ('A' for Active; 'I' for Inactive)
REMARK    1  A    between atoms: C3_3  and  N1_4 
REMARK    2  A    between atoms: N1_4  and  C4_5 
REMARK    3  A    between atoms: C10_12  and  N3_13 
REMARK       I    between atoms: N3_13  and  C11_14 
REMARK    4  A    between atoms: C11_14  and  C12_16 
ROOT
HETATM    1  C4  UNL     1      23.987   1.463  52.973  1.00  0.00     0.080 A 
HETATM    2  C5  UNL     1      24.079   0.209  53.577  1.00  0.00     0.073 A 
HETATM    3  C6  UNL     1      23.004  -0.750  53.555  1.00  0.00     0.102 C 
HETATM    4  N2  UNL     1      22.134  -1.526  53.515  1.00  0.00    -0.191 NA
HETATM    5  C7  UNL     1      25.279  -0.087  54.210  1.00  0.00     0.025 A 
HETATM    6  C8  UNL     1      26.354   0.774  54.267  1.00  0.00     0.004 A 
HETATM    7  C9  UNL     1      26.248   2.008  53.665  1.00  0.00     0.032 A 
HETATM    8  C10 UNL     1      25.065   2.321  53.033  1.00  0.00     0.063 A 
ENDROOT
BRANCH   1   9
HETATM    9  N1  UNL     1      22.721   1.682  52.350  1.00  0.00    -0.363 N 
HETATM   10  H6  UNL     1      22.052   2.158  52.976  1.00  0.00     0.165 HD
BRANCH   9  11
HETATM   11  C3  UNL     1      22.483   1.268  51.008  1.00  0.00     0.084 C 
HETATM   12  C2  UNL     1      22.129   1.966  49.956  1.00  0.00    -0.014 C 
HETATM   13  C1  UNL     1      21.875   3.414  49.884  1.00  0.00     0.037 C 
ENDBRANCH   9  11
ENDBRANCH   1   9
BRANCH   8  14
HETATM   14  N3  UNL     1      24.849   3.577  52.374  1.00  0.00    -0.325 N 
HETATM   15  C11 UNL     1      25.390   3.393  51.082  1.00  0.00     0.226 C 
HETATM   16  O1  UNL     1      25.853   2.191  50.998  1.00  0.00    -0.273 OA
HETATM   17  H10 UNL     1      24.472   4.561  52.432  1.00  0.00     0.169 HD
BRANCH  15  18
HETATM   18  C12 UNL     1      25.554   4.197  49.846  1.00  0.00     0.078 C 
HETATM   19  C13 UNL     1      25.455   5.669  50.038  1.00  0.00     0.014 C 
HETATM   20  C14 UNL     1      25.641   6.339  48.684  1.00  0.00     0.001 C 
HETATM   21  C15 UNL     1      27.111   6.206  48.309  1.00  0.00     0.000 C 
HETATM   22  C16 UNL     1      27.755   4.976  48.873  1.00  0.00     0.001 C 
HETATM   23  C17 UNL     1      26.804   3.841  49.120  1.00  0.00     0.014 C 
ENDBRANCH  15  18
ENDBRANCH   8  14
TORSDOF 4
ENDMDL
