MODEL 1
REMARK VINA RESULT:      -8.2      0.000      0.000
REMARK  8 active torsions:
REMARK  status: ('A' for Active; 'I' for Inactive)
REMARK    1  A    between atoms: C2_2  and  C3_4 
REMARK    2  A    between atoms: C5_6  and  C6_7 
REMARK    3  A    between atoms: C7_8  and  N1_9 
REMARK    4  A    between atoms: N1_9  and  C8_10 
REMARK    5  A    between atoms: C13_18  and  C14_19 
REMARK    6  A    between atoms: C14_19  and  O1_20 
REMARK    7  A    between atoms: C14_19  and  C16_22 
REMARK    8  A    between atoms: C16_22  and  O2_24 
ROOT
HETATM    1  C8  UNL     1      23.074   4.385  52.491  1.00  0.00     0.159 A 
HETATM    2  N2  UNL     1      21.759   4.430  52.228  1.00  0.00    -0.222 NA
HETATM    3  C9  UNL     1      21.004   3.295  52.109  1.00  0.00     0.238 A 
HETATM    4  N3  UNL     1      21.641   2.113  52.269  1.00  0.00    -0.215 NA
HETATM    5  C10 UNL     1      22.976   2.070  52.535  1.00  0.00     0.201 A 
HETATM    6  C11 UNL     1      23.774   3.190  52.662  1.00  0.00     0.129 A 
HETATM    7  N4  UNL     1      25.153   3.303  52.898  1.00  0.00    -0.379 N 
HETATM    8  C12 UNL     1      26.136   2.424  52.388  1.00  0.00     0.159 C 
HETATM    9  C13 UNL     1      25.781   1.001  52.420  1.00  0.00    -0.005 C 
HETATM   10  C19 UNL     1      24.662   0.248  52.525  1.00  0.00     0.152 C 
HETATM   11  O3  UNL     1      23.358   0.738  52.646  1.00  0.00    -0.302 OA
HETATM   12  H11 UNL     1      25.339   4.165  53.504  1.00  0.00     0.160 HD
ENDROOT
BRANCH   1  13
HETATM   13  N1  UNL     1      23.871   5.586  52.621  1.00  0.00    -0.349 N 
HETATM   14  H9  UNL     1      24.556   5.751  53.416  1.00  0.00     0.167 HD
BRANCH  13  15
HETATM   15  C7  UNL     1      23.360   6.210  51.429  1.00  0.00     0.090 C 
HETATM   16  C6  UNL     1      24.086   6.148  50.295  1.00  0.00     0.018 C 
BRANCH  16  17
HETATM   17  C5  UNL     1      25.326   5.633  49.775  1.00  0.00     0.011 C 
HETATM   18  C3  UNL     1      25.767   4.463  49.288  1.00  0.00    -0.029 C 
HETATM   19  C4  UNL     1      24.835   3.325  49.239  1.00  0.00     0.051 C 
BRANCH  18  20
HETATM   20  C2  UNL     1      27.153   4.555  48.909  1.00  0.00     0.084 A 
HETATM   21  C1  UNL     1      27.378   5.799  48.509  1.00  0.00     0.250 A 
HETATM   22  F1  UNL     1      28.423   4.757  48.529  1.00  0.00    -0.366 F 
ENDBRANCH  18  20
ENDBRANCH  16  17
ENDBRANCH  13  15
ENDBRANCH   1  13
BRANCH   9  23
HETATM   23  C14 UNL     1      27.122  -0.055  52.213  1.00  0.00     0.209 C 
BRANCH  23  24
HETATM   24  O1  UNL     1      26.474  -1.081  52.637  1.00  0.00    -0.380 OA
HETATM   25  C15 UNL     1      26.784  -2.367  52.294  1.00  0.00     0.202 C 
ENDBRANCH  23  24
BRANCH  23  26
HETATM   26  C16 UNL     1      27.748   0.244  53.773  1.00  0.00     0.069 C 
HETATM   27  C17 UNL     1      29.085   0.163  53.542  1.00  0.00     0.049 C 
BRANCH  26  28
HETATM   28  O2  UNL     1      27.503   0.512  55.099  1.00  0.00    -0.358 OA
HETATM   29  C18 UNL     1      26.386  -0.065  55.760  1.00  0.00     0.209 C 
ENDBRANCH  26  28
ENDBRANCH  23  26
ENDBRANCH   9  23
TORSDOF 8
ENDMDL
MODEL 2
REMARK VINA RESULT:      -8.0      2.547      3.936
REMARK  8 active torsions:
REMARK  status: ('A' for Active; 'I' for Inactive)
REMARK    1  A    between atoms: C2_2  and  C3_4 
REMARK    2  A    between atoms: C5_6  and  C6_7 
REMARK    3  A    between atoms: C7_8  and  N1_9 
REMARK    4  A    between atoms: N1_9  and  C8_10 
REMARK    5  A    between atoms: C13_18  and  C14_19 
REMARK    6  A    between atoms: C14_19  and  O1_20 
REMARK    7  A    between atoms: C14_19  and  C16_22 
REMARK    8  A    between atoms: C16_22  and  O2_24 
ROOT
HETATM    1  C8  UNL     1      25.730   4.173  49.571  1.00  0.00     0.159 A 
HETATM    2  N2  UNL     1      24.643   4.667  48.961  1.00  0.00    -0.222 NA
HETATM    3  C9  UNL     1      23.430   4.742  49.590  1.00  0.00     0.238 A 
HETATM    4  N3  UNL     1      23.370   4.295  50.865  1.00  0.00    -0.215 NA
HETATM    5  C10 UNL     1      24.475   3.793  51.481  1.00  0.00     0.201 A 
HETATM    6  C11 UNL     1      25.716   3.698  50.884  1.00  0.00     0.129 A 
HETATM    7  N4  UNL     1      26.926   3.180  51.373  1.00  0.00    -0.379 N 
HETATM    8  C12 UNL     1      27.038   2.059  52.228  1.00  0.00     0.159 C 
HETATM    9  C13 UNL     1      26.041   1.987  53.301  1.00  0.00    -0.005 C 
HETATM   10  C19 UNL     1      24.829   2.518  53.581  1.00  0.00     0.152 C 
HETATM   11  O3  UNL     1      24.122   3.412  52.770  1.00  0.00    -0.302 OA
HETATM   12  H11 UNL     1      27.740   3.753  50.983  1.00  0.00     0.160 HD
ENDROOT
BRANCH   1  13
HETATM   13  N1  UNL     1      27.015   4.097  48.907  1.00  0.00    -0.349 N 
HETATM   14  H9  UNL     1      27.562   3.194  48.789  1.00  0.00     0.167 HD
BRANCH  13  15
HETATM   15  C7  UNL     1      27.083   5.501  48.598  1.00  0.00     0.090 C 
HETATM   16  C6  UNL     1      28.279   6.053  48.314  1.00  0.00     0.018 C 
BRANCH  16  17
HETATM   17  C5  UNL     1      29.675   5.720  48.193  1.00  0.00     0.011 C 
HETATM   18  C3  UNL     1      30.846   6.326  48.440  1.00  0.00    -0.029 C 
HETATM   19  C4  UNL     1      30.830   7.704  48.956  1.00  0.00     0.051 C 
BRANCH  18  20
HETATM   20  C2  UNL     1      31.950   5.462  48.110  1.00  0.00     0.084 A 
HETATM   21  C1  UNL     1      31.471   4.453  47.395  1.00  0.00     0.250 A 
HETATM   22  F1  UNL     1      32.898   4.588  47.746  1.00  0.00    -0.366 F 
ENDBRANCH  18  20
ENDBRANCH  16  17
ENDBRANCH  13  15
ENDBRANCH   1  13
BRANCH   9  23
HETATM   23  C14 UNL     1      26.451   0.888  54.559  1.00  0.00     0.209 C 
BRANCH  23  24
HETATM   24  O1  UNL     1      27.643   0.708  54.113  1.00  0.00    -0.380 OA
HETATM   25  C15 UNL     1      28.691   0.313  54.895  1.00  0.00     0.202 C 
ENDBRANCH  23  24
BRANCH  23  26
HETATM   26  C16 UNL     1      25.883  -0.479  53.708  1.00  0.00     0.069 C 
HETATM   27  C17 UNL     1      24.923  -0.937  54.553  1.00  0.00     0.049 C 
BRANCH  26  28
HETATM   28  O2  UNL     1      25.972  -1.285  52.598  1.00  0.00    -0.358 OA
HETATM   29  C18 UNL     1      27.028  -2.227  52.470  1.00  0.00     0.209 C 
ENDBRANCH  26  28
ENDBRANCH  23  26
ENDBRANCH   9  23
TORSDOF 8
ENDMDL
MODEL 3
REMARK VINA RESULT:      -7.9      2.850      4.601
REMARK  8 active torsions:
REMARK  status: ('A' for Active; 'I' for Inactive)
REMARK    1  A    between atoms: C2_2  and  C3_4 
REMARK    2  A    between atoms: C5_6  and  C6_7 
REMARK    3  A    between atoms: C7_8  and  N1_9 
REMARK    4  A    between atoms: N1_9  and  C8_10 
REMARK    5  A    between atoms: C13_18  and  C14_19 
REMARK    6  A    between atoms: C14_19  and  O1_20 
REMARK    7  A    between atoms: C14_19  and  C16_22 
REMARK    8  A    between atoms: C16_22  and  O2_24 
ROOT
HETATM    1  C8  UNL     1      23.849   4.743  51.740  1.00  0.00     0.159 A 
HETATM    2  N2  UNL     1      24.252   5.705  50.896  1.00  0.00    -0.222 NA
HETATM    3  C9  UNL     1      25.275   5.509  50.009  1.00  0.00     0.238 A 
HETATM    4  N3  UNL     1      25.869   4.293  50.014  1.00  0.00    -0.215 NA
HETATM    5  C10 UNL     1      25.458   3.319  50.872  1.00  0.00     0.201 A 
HETATM    6  C11 UNL     1      24.432   3.475  51.783  1.00  0.00     0.129 A 
HETATM    7  N4  UNL     1      23.923   2.587  52.743  1.00  0.00    -0.379 N 
HETATM    8  C12 UNL     1      24.699   1.665  53.484  1.00  0.00     0.159 C 
HETATM    9  C13 UNL     1      25.742   0.969  52.722  1.00  0.00    -0.005 C 
HETATM   10  C19 UNL     1      26.414   1.134  51.559  1.00  0.00     0.152 C 
HETATM   11  O3  UNL     1      26.240   2.190  50.659  1.00  0.00    -0.302 OA
HETATM   12  H11 UNL     1      22.868   2.732  52.835  1.00  0.00     0.160 HD
ENDROOT
BRANCH   1  13
HETATM   13  N1  UNL     1      22.763   4.949  52.676  1.00  0.00    -0.349 N 
HETATM   14  H9  UNL     1      22.898   4.992  53.729  1.00  0.00     0.167 HD
BRANCH  13  15
HETATM   15  C7  UNL     1      21.740   5.039  51.668  1.00  0.00     0.090 C 
HETATM   16  C6  UNL     1      20.842   4.040  51.554  1.00  0.00     0.018 C 
BRANCH  16  17
HETATM   17  C5  UNL     1      20.489   2.769  52.132  1.00  0.00     0.011 C 
HETATM   18  C3  UNL     1      20.684   1.476  51.834  1.00  0.00    -0.029 C 
HETATM   19  C4  UNL     1      21.425   1.140  50.608  1.00  0.00     0.051 C 
BRANCH  18  20
HETATM   20  C2  UNL     1      20.073   0.624  52.822  1.00  0.00     0.084 A 
HETATM   21  C1  UNL     1      20.950   0.455  53.803  1.00  0.00     0.250 A 
HETATM   22  F1  UNL     1      19.608  -0.159  53.805  1.00  0.00    -0.366 F 
ENDBRANCH  18  20
ENDBRANCH  16  17
ENDBRANCH  13  15
ENDBRANCH   1  13
BRANCH   9  23
HETATM   23  C14 UNL     1      26.364  -0.427  53.510  1.00  0.00     0.209 C 
BRANCH  23  24
HETATM   24  O1  UNL     1      25.748  -0.171  54.608  1.00  0.00    -0.380 OA
HETATM   25  C15 UNL     1      25.060  -1.110  55.324  1.00  0.00     0.202 C 
ENDBRANCH  23  24
BRANCH  23  26
HETATM   26  C16 UNL     1      27.768   0.370  54.065  1.00  0.00     0.069 C 
HETATM   27  C17 UNL     1      28.715  -0.580  53.850  1.00  0.00     0.049 C 
BRANCH  26  28
HETATM   28  O2  UNL     1      28.332   1.497  54.615  1.00  0.00    -0.358 OA
HETATM   29  C18 UNL     1      28.960   2.470  53.791  1.00  0.00     0.209 C 
ENDBRANCH  26  28
ENDBRANCH  23  26
ENDBRANCH   9  23
TORSDOF 8
ENDMDL
MODEL 4
REMARK VINA RESULT:      -7.9      1.452      1.956
REMARK  8 active torsions:
REMARK  status: ('A' for Active; 'I' for Inactive)
REMARK    1  A    between atoms: C2_2  and  C3_4 
REMARK    2  A    between atoms: C5_6  and  C6_7 
REMARK    3  A    between atoms: C7_8  and  N1_9 
REMARK    4  A    between atoms: N1_9  and  C8_10 
REMARK    5  A    between atoms: C13_18  and  C14_19 
REMARK    6  A    between atoms: C14_19  and  O1_20 
REMARK    7  A    between atoms: C14_19  and  C16_22 
REMARK    8  A    between atoms: C16_22  and  O2_24 
ROOT
HETATM    1  C8  UNL     1      23.422   5.265  51.278  1.00  0.00     0.159 A 
HETATM    2  N2  UNL     1      22.236   5.713  50.839  1.00  0.00    -0.222 NA
HETATM    3  C9  UNL     1      21.079   5.012  51.038  1.00  0.00     0.238 A 
HETATM    4  N3  UNL     1      21.177   3.837  51.701  1.00  0.00    -0.215 NA
HETATM    5  C10 UNL     1      22.382   3.384  52.143  1.00  0.00     0.201 A 
HETATM    6  C11 UNL     1      23.573   4.059  51.964  1.00  0.00     0.129 A 
HETATM    7  N4  UNL     1      24.883   3.709  52.329  1.00  0.00    -0.379 N 
HETATM    8  C12 UNL     1      25.403   2.393  52.311  1.00  0.00     0.159 C 
HETATM    9  C13 UNL     1      24.495   1.354  52.808  1.00  0.00    -0.005 C 
HETATM   10  C19 UNL     1      23.168   1.200  53.024  1.00  0.00     0.152 C 
HETATM   11  O3  UNL     1      22.184   2.165  52.780  1.00  0.00    -0.302 OA
HETATM   12  H11 UNL     1      25.422   4.591  52.601  1.00  0.00     0.160 HD
ENDROOT
BRANCH   1  13
HETATM   13  N1  UNL     1      24.647   6.010  51.072  1.00  0.00    -0.349 N 
HETATM   14  H9  UNL     1      25.423   6.073  51.795  1.00  0.00     0.167 HD
BRANCH  13  15
HETATM   15  C7  UNL     1      24.305   6.456  49.747  1.00  0.00     0.090 C 
HETATM   16  C6  UNL     1      25.251   6.447  48.788  1.00  0.00     0.018 C 
BRANCH  16  17
HETATM   17  C5  UNL     1      26.638   6.121  48.573  1.00  0.00     0.011 C 
HETATM   18  C3  UNL     1      27.419   5.040  48.722  1.00  0.00    -0.029 C 
HETATM   19  C4  UNL     1      26.819   3.806  49.253  1.00  0.00     0.051 C 
BRANCH  18  20
HETATM   20  C2  UNL     1      28.773   5.328  48.327  1.00  0.00     0.084 A 
HETATM   21  C1  UNL     1      28.797   6.562  47.843  1.00  0.00     0.250 A 
HETATM   22  F1  UNL     1      29.995   5.705  47.925  1.00  0.00    -0.366 F 
ENDBRANCH  18  20
ENDBRANCH  16  17
ENDBRANCH  13  15
ENDBRANCH   1  13
BRANCH   9  23
HETATM   23  C14 UNL     1      25.276  -0.132  53.182  1.00  0.00     0.209 C 
BRANCH  23  24
HETATM   24  O1  UNL     1      24.897  -0.106  54.410  1.00  0.00    -0.380 OA
HETATM   25  C15 UNL     1      24.615  -1.228  55.137  1.00  0.00     0.202 C 
ENDBRANCH  23  24
BRANCH  23  26
HETATM   26  C16 UNL     1      26.758   0.615  53.581  1.00  0.00     0.069 C 
HETATM   27  C17 UNL     1      27.641  -0.177  52.918  1.00  0.00     0.049 C 
BRANCH  26  28
HETATM   28  O2  UNL     1      27.419   1.615  54.255  1.00  0.00    -0.358 OA
HETATM   29  C18 UNL     1      28.709   2.040  53.837  1.00  0.00     0.209 C 
ENDBRANCH  26  28
ENDBRANCH  23  26
ENDBRANCH   9  23
TORSDOF 8
ENDMDL
MODEL 5
REMARK VINA RESULT:      -7.8      1.499      2.383
REMARK  8 active torsions:
REMARK  status: ('A' for Active; 'I' for Inactive)
REMARK    1  A    between atoms: C2_2  and  C3_4 
REMARK    2  A    between atoms: C5_6  and  C6_7 
REMARK    3  A    between atoms: C7_8  and  N1_9 
REMARK    4  A    between atoms: N1_9  and  C8_10 
REMARK    5  A    between atoms: C13_18  and  C14_19 
REMARK    6  A    between atoms: C14_19  and  O1_20 
REMARK    7  A    between atoms: C14_19  and  C16_22 
REMARK    8  A    between atoms: C16_22  and  O2_24 
ROOT
HETATM    1  C8  UNL     1      23.137   2.580  52.163  1.00  0.00     0.159 A 
HETATM    2  N2  UNL     1      22.001   2.012  51.732  1.00  0.00    -0.222 NA
HETATM    3  C9  UNL     1      21.642   0.743  52.094  1.00  0.00     0.238 A 
HETATM    4  N3  UNL     1      22.487   0.074  52.913  1.00  0.00    -0.215 NA
HETATM    5  C10 UNL     1      23.640   0.653  53.347  1.00  0.00     0.201 A 
HETATM    6  C11 UNL     1      24.040   1.930  53.006  1.00  0.00     0.129 A 
HETATM    7  N4  UNL     1      25.202   2.642  53.343  1.00  0.00    -0.379 N 
HETATM    8  C12 UNL     1      26.488   2.070  53.485  1.00  0.00     0.159 C 
HETATM    9  C13 UNL     1      26.525   0.777  54.177  1.00  0.00    -0.005 C 
HETATM   10  C19 UNL     1      25.665  -0.220  54.487  1.00  0.00     0.152 C 
HETATM   11  O3  UNL     1      24.305  -0.255  54.163  1.00  0.00    -0.302 OA
HETATM   12  H11 UNL     1      24.962   3.678  53.454  1.00  0.00     0.160 HD
ENDROOT
BRANCH   1  13
HETATM   13  N1  UNL     1      23.514   3.925  51.783  1.00  0.00    -0.349 N 
HETATM   14  H9  UNL     1      24.054   4.584  52.418  1.00  0.00     0.167 HD
BRANCH  13  15
HETATM   15  C7  UNL     1      22.925   3.858  50.471  1.00  0.00     0.090 C 
HETATM   16  C6  UNL     1      23.623   4.322  49.415  1.00  0.00     0.018 C 
BRANCH  16  17
HETATM   17  C5  UNL     1      24.883   4.931  49.075  1.00  0.00     0.011 C 
HETATM   18  C3  UNL     1      26.182   4.622  49.205  1.00  0.00    -0.029 C 
HETATM   19  C4  UNL     1      26.541   3.360  49.870  1.00  0.00     0.051 C 
BRANCH  18  20
HETATM   20  C2  UNL     1      27.014   5.658  48.652  1.00  0.00     0.084 A 
HETATM   21  C1  UNL     1      28.221   5.145  48.459  1.00  0.00     0.250 A 
HETATM   22  F1  UNL     1      27.879   6.543  48.136  1.00  0.00    -0.366 F 
ENDBRANCH  18  20
ENDBRANCH  16  17
ENDBRANCH  13  15
ENDBRANCH   1  13
BRANCH   9  23
HETATM   23  C14 UNL     1      28.093   0.322  54.717  1.00  0.00     0.209 C 
BRANCH  23  24
HETATM   24  O1  UNL     1      28.672   1.266  54.064  1.00  0.00    -0.380 OA
HETATM   25  C15 UNL     1      29.601   2.104  54.612  1.00  0.00     0.202 C 
ENDBRANCH  23  24
BRANCH  23  26
HETATM   26  C16 UNL     1      28.344  -0.775  53.432  1.00  0.00     0.069 C 
HETATM   27  C17 UNL     1      29.568  -1.275  53.746  1.00  0.00     0.049 C 
BRANCH  26  28
HETATM   28  O2  UNL     1      27.875  -1.341  52.270  1.00  0.00    -0.358 OA
HETATM   29  C18 UNL     1      26.968  -2.434  52.311  1.00  0.00     0.209 C 
ENDBRANCH  26  28
ENDBRANCH  23  26
ENDBRANCH   9  23
TORSDOF 8
ENDMDL
MODEL 6
REMARK VINA RESULT:      -7.8      4.256      7.599
REMARK  8 active torsions:
REMARK  status: ('A' for Active; 'I' for Inactive)
REMARK    1  A    between atoms: C2_2  and  C3_4 
REMARK    2  A    between atoms: C5_6  and  C6_7 
REMARK    3  A    between atoms: C7_8  and  N1_9 
REMARK    4  A    between atoms: N1_9  and  C8_10 
REMARK    5  A    between atoms: C13_18  and  C14_19 
REMARK    6  A    between atoms: C14_19  and  O1_20 
REMARK    7  A    between atoms: C14_19  and  C16_22 
REMARK    8  A    between atoms: C16_22  and  O2_24 
ROOT
HETATM    1  C8  UNL     1      25.750   4.070  50.484  1.00  0.00     0.159 A 
HETATM    2  N2  UNL     1      24.550   4.106  51.081  1.00  0.00    -0.222 NA
HETATM    3  C9  UNL     1      23.585   5.004  50.715  1.00  0.00     0.238 A 
HETATM    4  N3  UNL     1      23.891   5.864  49.716  1.00  0.00    -0.215 NA
HETATM    5  C10 UNL     1      25.111   5.825  49.113  1.00  0.00     0.201 A 
HETATM    6  C11 UNL     1      26.112   4.937  49.451  1.00  0.00     0.129 A 
HETATM    7  N4  UNL     1      27.416   4.799  48.950  1.00  0.00    -0.379 N 
HETATM    8  C12 UNL     1      28.242   5.872  48.539  1.00  0.00     0.159 C 
HETATM    9  C13 UNL     1      27.566   6.926  47.775  1.00  0.00    -0.005 C 
HETATM   10  C19 UNL     1      26.302   7.361  47.569  1.00  0.00     0.152 C 
HETATM   11  O3  UNL     1      25.147   6.812  48.135  1.00  0.00    -0.302 OA
HETATM   12  H11 UNL     1      27.687   3.765  48.947  1.00  0.00     0.160 HD
ENDROOT
BRANCH   1  13
HETATM   13  N1  UNL     1      26.769   3.117  50.869  1.00  0.00    -0.349 N 
HETATM   14  H9  UNL     1      27.804   3.253  50.671  1.00  0.00     0.167 HD
BRANCH  13  15
HETATM   15  C7  UNL     1      25.854   2.189  51.479  1.00  0.00     0.090 C 
HETATM   16  C6  UNL     1      26.344   1.184  52.232  1.00  0.00     0.018 C 
BRANCH  16  17
HETATM   17  C5  UNL     1      27.586   0.630  52.704  1.00  0.00     0.011 C 
HETATM   18  C3  UNL     1      28.663   1.076  53.368  1.00  0.00    -0.029 C 
HETATM   19  C4  UNL     1      28.711   2.495  53.756  1.00  0.00     0.051 C 
BRANCH  18  20
HETATM   20  C2  UNL     1      29.622   0.020  53.561  1.00  0.00     0.084 A 
HETATM   21  C1  UNL     1      28.987  -1.133  53.396  1.00  0.00     0.250 A 
HETATM   22  F1  UNL     1      30.424  -1.042  53.720  1.00  0.00    -0.366 F 
ENDBRANCH  18  20
ENDBRANCH  16  17
ENDBRANCH  13  15
ENDBRANCH   1  13
BRANCH   9  23
HETATM   23  C14 UNL     1      28.639   7.970  46.930  1.00  0.00     0.209 C 
BRANCH  23  24
HETATM   24  O1  UNL     1      29.688   7.383  47.388  1.00  0.00    -0.380 OA
HETATM   25  C15 UNL     1      30.857   7.270  46.689  1.00  0.00     0.202 C 
ENDBRANCH  23  24
BRANCH  23  26
HETATM   26  C16 UNL     1      28.690   9.126  48.185  1.00  0.00     0.069 C 
HETATM   27  C17 UNL     1      28.693  10.285  47.478  1.00  0.00     0.049 C 
BRANCH  26  28
HETATM   28  O2  UNL     1      28.733   9.384  49.535  1.00  0.00    -0.358 OA
HETATM   29  C18 UNL     1      27.539   9.419  50.305  1.00  0.00     0.209 C 
ENDBRANCH  26  28
ENDBRANCH  23  26
ENDBRANCH   9  23
TORSDOF 8
ENDMDL
MODEL 7
REMARK VINA RESULT:      -7.7      2.575      3.626
REMARK  8 active torsions:
REMARK  status: ('A' for Active; 'I' for Inactive)
REMARK    1  A    between atoms: C2_2  and  C3_4 
REMARK    2  A    between atoms: C5_6  and  C6_7 
REMARK    3  A    between atoms: C7_8  and  N1_9 
REMARK    4  A    between atoms: N1_9  and  C8_10 
REMARK    5  A    between atoms: C13_18  and  C14_19 
REMARK    6  A    between atoms: C14_19  and  O1_20 
REMARK    7  A    between atoms: C14_19  and  C16_22 
REMARK    8  A    between atoms: C16_22  and  O2_24 
ROOT
HETATM    1  C8  UNL     1      25.858   4.487  49.706  1.00  0.00     0.159 A 
HETATM    2  N2  UNL     1      24.884   5.034  48.963  1.00  0.00    -0.222 NA
HETATM    3  C9  UNL     1      23.573   4.671  49.107  1.00  0.00     0.238 A 
HETATM    4  N3  UNL     1      23.293   3.729  50.037  1.00  0.00    -0.215 NA
HETATM    5  C10 UNL     1      24.284   3.174  50.787  1.00  0.00     0.201 A 
HETATM    6  C11 UNL     1      25.619   3.511  50.675  1.00  0.00     0.129 A 
HETATM    7  N4  UNL     1      26.745   3.009  51.346  1.00  0.00    -0.379 N 
HETATM    8  C12 UNL     1      26.920   1.661  51.737  1.00  0.00     0.159 C 
HETATM    9  C13 UNL     1      25.728   1.010  52.291  1.00  0.00    -0.005 C 
HETATM   10  C19 UNL     1      24.388   1.202  52.291  1.00  0.00     0.152 C 
HETATM   11  O3  UNL     1      23.713   2.245  51.649  1.00  0.00    -0.302 OA
HETATM   12  H11 UNL     1      27.449   3.800  51.495  1.00  0.00     0.160 HD
ENDROOT
BRANCH   1  13
HETATM   13  N1  UNL     1      27.245   4.875  49.557  1.00  0.00    -0.349 N 
HETATM   14  H9  UNL     1      28.035   4.458  50.132  1.00  0.00     0.167 HD
BRANCH  13  15
HETATM   15  C7  UNL     1      27.000   5.833  48.512  1.00  0.00     0.090 C 
HETATM   16  C6  UNL     1      27.973   6.704  48.179  1.00  0.00     0.018 C 
BRANCH  16  17
HETATM   17  C5  UNL     1      29.321   7.075  48.523  1.00  0.00     0.011 C 
HETATM   18  C3  UNL     1      30.546   6.550  48.367  1.00  0.00    -0.029 C 
HETATM   19  C4  UNL     1      30.672   5.245  47.699  1.00  0.00     0.051 C 
BRANCH  18  20
HETATM   20  C2  UNL     1      31.549   7.411  48.938  1.00  0.00     0.084 A 
HETATM   21  C1  UNL     1      31.213   8.662  48.656  1.00  0.00     0.250 A 
HETATM   22  F1  UNL     1      32.421   8.305  49.425  1.00  0.00    -0.366 F 
ENDBRANCH  18  20
ENDBRANCH  16  17
ENDBRANCH  13  15
ENDBRANCH   1  13
BRANCH   9  23
HETATM   23  C14 UNL     1      26.063  -0.444  53.145  1.00  0.00     0.209 C 
BRANCH  23  24
HETATM   24  O1  UNL     1      25.324  -0.115  54.144  1.00  0.00    -0.380 OA
HETATM   25  C15 UNL     1      24.638  -1.017  54.906  1.00  0.00     0.202 C 
ENDBRANCH  23  24
BRANCH  23  26
HETATM   26  C16 UNL     1      27.451   0.188  53.910  1.00  0.00     0.069 C 
HETATM   27  C17 UNL     1      28.387  -0.735  53.568  1.00  0.00     0.049 C 
BRANCH  26  28
HETATM   28  O2  UNL     1      28.009   1.172  54.692  1.00  0.00    -0.358 OA
HETATM   29  C18 UNL     1      29.295   1.697  54.388  1.00  0.00     0.209 C 
ENDBRANCH  26  28
ENDBRANCH  23  26
ENDBRANCH   9  23
TORSDOF 8
ENDMDL
MODEL 8
REMARK VINA RESULT:      -7.6      3.073      6.433
REMARK  8 active torsions:
REMARK  status: ('A' for Active; 'I' for Inactive)
REMARK    1  A    between atoms: C2_2  and  C3_4 
REMARK    2  A    between atoms: C5_6  and  C6_7 
REMARK    3  A    between atoms: C7_8  and  N1_9 
REMARK    4  A    between atoms: N1_9  and  C8_10 
REMARK    5  A    between atoms: C13_18  and  C14_19 
REMARK    6  A    between atoms: C14_19  and  O1_20 
REMARK    7  A    between atoms: C14_19  and  C16_22 
REMARK    8  A    between atoms: C16_22  and  O2_24 
ROOT
HETATM    1  C8  UNL     1      23.265  -0.162  53.491  1.00  0.00     0.159 A 
HETATM    2  N2  UNL     1      22.356  -0.789  54.253  1.00  0.00    -0.222 NA
HETATM    3  C9  UNL     1      21.066  -0.347  54.354  1.00  0.00     0.238 A 
HETATM    4  N3  UNL     1      20.737   0.759  53.646  1.00  0.00    -0.215 NA
HETATM    5  C10 UNL     1      21.662   1.393  52.874  1.00  0.00     0.201 A 
HETATM    6  C11 UNL     1      22.974   0.981  52.745  1.00  0.00     0.129 A 
HETATM    7  N4  UNL     1      24.038   1.543  52.023  1.00  0.00    -0.379 N 
HETATM    8  C12 UNL     1      24.255   2.930  51.850  1.00  0.00     0.159 C 
HETATM    9  C13 UNL     1      23.050   3.723  51.583  1.00  0.00    -0.005 C 
HETATM   10  C19 UNL     1      21.712   3.597  51.732  1.00  0.00     0.152 C 
HETATM   11  O3  UNL     1      21.052   2.487  52.271  1.00  0.00    -0.302 OA
HETATM   12  H11 UNL     1      24.662   0.761  51.646  1.00  0.00     0.160 HD
ENDROOT
BRANCH   1  13
HETATM   13  N1  UNL     1      24.629  -0.634  53.381  1.00  0.00    -0.349 N 
HETATM   14  H9  UNL     1      25.070  -0.946  52.466  1.00  0.00     0.167 HD
BRANCH  13  15
HETATM   15  C7  UNL     1      24.934  -0.474  54.778  1.00  0.00     0.090 C 
HETATM   16  C6  UNL     1      26.211  -0.258  55.151  1.00  0.00     0.018 C 
BRANCH  16  17
HETATM   17  C5  UNL     1      27.536  -0.114  54.605  1.00  0.00     0.011 C 
HETATM   18  C3  UNL     1      28.200   0.803  53.886  1.00  0.00    -0.029 C 
HETATM   19  C4  UNL     1      27.487   2.021  53.469  1.00  0.00     0.051 C 
BRANCH  18  20
HETATM   20  C2  UNL     1      29.553   0.378  53.634  1.00  0.00     0.084 A 
HETATM   21  C1  UNL     1      29.534  -0.937  53.460  1.00  0.00     0.250 A 
HETATM   22  F1  UNL     1      30.769  -0.131  53.392  1.00  0.00    -0.366 F 
ENDBRANCH  18  20
ENDBRANCH  16  17
ENDBRANCH  13  15
ENDBRANCH   1  13
BRANCH   9  23
HETATM   23  C14 UNL     1      23.375   5.291  50.954  1.00  0.00     0.209 C 
BRANCH  23  24
HETATM   24  O1  UNL     1      22.129   5.598  50.878  1.00  0.00    -0.380 OA
HETATM   25  C15 UNL     1      21.665   6.884  50.894  1.00  0.00     0.202 C 
ENDBRANCH  23  24
BRANCH  23  26
HETATM   26  C16 UNL     1      23.386   4.765  49.330  1.00  0.00     0.069 C 
HETATM   27  C17 UNL     1      24.595   5.220  48.912  1.00  0.00     0.049 C 
BRANCH  26  28
HETATM   28  O2  UNL     1      22.734   4.118  48.307  1.00  0.00    -0.358 OA
HETATM   29  C18 UNL     1      22.772   2.701  48.204  1.00  0.00     0.209 C 
ENDBRANCH  26  28
ENDBRANCH  23  26
ENDBRANCH   9  23
TORSDOF 8
ENDMDL
MODEL 9
REMARK VINA RESULT:      -7.5      3.412      6.420
REMARK  8 active torsions:
REMARK  status: ('A' for Active; 'I' for Inactive)
REMARK    1  A    between atoms: C2_2  and  C3_4 
REMARK    2  A    between atoms: C5_6  and  C6_7 
REMARK    3  A    between atoms: C7_8  and  N1_9 
REMARK    4  A    between atoms: N1_9  and  C8_10 
REMARK    5  A    between atoms: C13_18  and  C14_19 
REMARK    6  A    between atoms: C14_19  and  O1_20 
REMARK    7  A    between atoms: C14_19  and  C16_22 
REMARK    8  A    between atoms: C16_22  and  O2_24 
ROOT
HETATM    1  C8  UNL     1      23.263  -0.302  53.411  1.00  0.00     0.159 A 
HETATM    2  N2  UNL     1      22.639  -0.977  54.387  1.00  0.00    -0.222 NA
HETATM    3  C9  UNL     1      21.280  -0.939  54.541  1.00  0.00     0.238 A 
HETATM    4  N3  UNL     1      20.582  -0.185  53.661  1.00  0.00    -0.215 NA
HETATM    5  C10 UNL     1      21.218   0.500  52.672  1.00  0.00     0.201 A 
HETATM    6  C11 UNL     1      22.586   0.490  52.481  1.00  0.00     0.129 A 
HETATM    7  N4  UNL     1      23.380   1.163  51.539  1.00  0.00    -0.379 N 
HETATM    8  C12 UNL     1      23.129   2.468  51.055  1.00  0.00     0.159 C 
HETATM    9  C13 UNL     1      21.722   2.770  50.769  1.00  0.00    -0.005 C 
HETATM   10  C19 UNL     1      20.504   2.280  51.095  1.00  0.00     0.152 C 
HETATM   11  O3  UNL     1      20.262   1.182  51.928  1.00  0.00    -0.302 OA
HETATM   12  H11 UNL     1      24.206   0.542  51.265  1.00  0.00     0.160 HD
ENDROOT
BRANCH   1  13
HETATM   13  N1  UNL     1      24.700  -0.346  53.244  1.00  0.00    -0.349 N 
HETATM   14  H9  UNL     1      25.178  -0.463  52.303  1.00  0.00     0.167 HD
BRANCH  13  15
HETATM   15  C7  UNL     1      24.997  -0.186  54.644  1.00  0.00     0.090 C 
HETATM   16  C6  UNL     1      26.280  -0.049  55.030  1.00  0.00     0.018 C 
BRANCH  16  17
HETATM   17  C5  UNL     1      27.619  -0.001  54.502  1.00  0.00     0.011 C 
HETATM   18  C3  UNL     1      28.366   0.880  53.820  1.00  0.00    -0.029 C 
HETATM   19  C4  UNL     1      27.763   2.167  53.438  1.00  0.00     0.051 C 
BRANCH  18  20
HETATM   20  C2  UNL     1      29.681   0.350  53.565  1.00  0.00     0.084 A 
HETATM   21  C1  UNL     1      29.599  -0.972  53.625  1.00  0.00     0.250 A 
HETATM   22  F1  UNL     1      30.856  -0.254  53.342  1.00  0.00    -0.366 F 
ENDBRANCH  18  20
ENDBRANCH  16  17
ENDBRANCH  13  15
ENDBRANCH   1  13
BRANCH   9  23
HETATM   23  C14 UNL     1      21.496   4.168  49.793  1.00  0.00     0.209 C 
BRANCH  23  24
HETATM   24  O1  UNL     1      22.531   3.922  49.072  1.00  0.00    -0.380 OA
HETATM   25  C15 UNL     1      22.552   4.047  47.711  1.00  0.00     0.202 C 
ENDBRANCH  23  24
BRANCH  23  26
HETATM   26  C16 UNL     1      22.405   5.179  50.825  1.00  0.00     0.069 C 
HETATM   27  C17 UNL     1      21.493   6.140  51.125  1.00  0.00     0.049 C 
BRANCH  26  28
HETATM   28  O2  UNL     1      23.602   5.437  51.451  1.00  0.00    -0.358 OA
HETATM   29  C18 UNL     1      24.267   6.678  51.259  1.00  0.00     0.209 C 
ENDBRANCH  26  28
ENDBRANCH  23  26
ENDBRANCH   9  23
TORSDOF 8
ENDMDL
