MODEL 1
REMARK VINA RESULT:      -9.3      0.000      0.000
REMARK  7 active torsions:
REMARK  status: ('A' for Active; 'I' for Inactive)
REMARK    1  A    between atoms: O1_1  and  C1_2 
REMARK    2  A    between atoms: C3_5  and  C4_6 
REMARK    3  A    between atoms: C4_6  and  N2_7 
REMARK    4  A    between atoms: N2_7  and  C5_8 
REMARK    5  A    between atoms: C9_12  and  C10_13 
REMARK    6  A    between atoms: C10_13  and  O2_14 
REMARK    7  A    between atoms: C10_13  and  C11_15 
ROOT
HETATM    1  C5  UNL     1      23.572  -0.404  54.007  1.00  0.00     0.028 A 
HETATM    2  C6  UNL     1      22.494  -1.124  54.478  1.00  0.00     0.029 A 
HETATM    3  C7  UNL     1      21.160  -0.748  54.287  1.00  0.00     0.003 A 
HETATM    4  C8  UNL     1      20.927   0.415  53.582  1.00  0.00     0.010 A 
HETATM    5  C9  UNL     1      21.995   1.156  53.098  1.00  0.00    -0.023 A 
HETATM    6  C17 UNL     1      23.300   0.757  53.305  1.00  0.00     0.039 A 
ENDROOT
BRANCH   1   7
HETATM    7  N2  UNL     1      24.907  -0.827  54.231  1.00  0.00    -0.386 N 
HETATM    8  H6  UNL     1      25.214  -1.042  55.195  1.00  0.00     0.160 HD
BRANCH   7   9
HETATM    9  C4  UNL     1      25.716  -0.915  53.045  1.00  0.00     0.160 C 
BRANCH   9  10
HETATM   10  C3  UNL     1      27.132  -0.590  53.245  1.00  0.00    -0.013 A 
HETATM   11  C2  UNL     1      27.650   0.653  53.527  1.00  0.00     0.049 A 
HETATM   12  N1  UNL     1      27.415   2.023  53.759  1.00  0.00    -0.359 N 
HETATM   13  C21 UNL     1      29.010   0.822  53.693  1.00  0.00     0.017 A 
HETATM   14  C1  UNL     1      28.834   2.255  53.941  1.00  0.00     0.255 A 
HETATM   15  H3  UNL     1      26.586   2.629  53.792  1.00  0.00     0.162 HD
HETATM   16  C20 UNL     1      29.910  -0.231  53.583  1.00  0.00     0.014 A 
HETATM   17  C19 UNL     1      29.416  -1.484  53.302  1.00  0.00     0.001 A 
HETATM   18  C18 UNL     1      28.052  -1.621  53.142  1.00  0.00     0.011 A 
BRANCH  14  19
HETATM   19  O1  UNL     1      29.378   3.118  52.999  1.00  0.00    -0.372 OA
HETATM   20  H1  UNL     1      28.677   3.328  52.328  1.00  0.00     0.212 HD
ENDBRANCH  14  19
ENDBRANCH   9  10
ENDBRANCH   7   9
ENDBRANCH   1   7
BRANCH   5  21
HETATM   21  C10 UNL     1      21.580   2.381  52.362  1.00  0.00     0.184 C 
BRANCH  21  22
HETATM   22  O2  UNL     1      20.241   2.673  52.618  1.00  0.00    -0.386 OA
HETATM   23  H11 UNL     1      20.017   2.386  53.539  1.00  0.00     0.210 HD
ENDBRANCH  21  22
BRANCH  21  24
HETATM   24  C11 UNL     1      21.728   2.072  50.897  1.00  0.00    -0.025 A 
HETATM   25  C12 UNL     1      22.610   2.928  50.247  1.00  0.00     0.010 A 
HETATM   26  C13 UNL     1      22.905   2.838  48.898  1.00  0.00     0.001 A 
HETATM   27  C14 UNL     1      22.264   1.825  48.188  1.00  0.00     0.000 A 
HETATM   28  C15 UNL     1      21.391   0.975  48.826  1.00  0.00     0.001 A 
HETATM   29  C16 UNL     1      21.113   1.084  50.172  1.00  0.00     0.010 A 
ENDBRANCH  21  24
ENDBRANCH   5  21
TORSDOF 7
ENDMDL
MODEL 2
REMARK VINA RESULT:      -9.3      2.267      7.315
REMARK  7 active torsions:
REMARK  status: ('A' for Active; 'I' for Inactive)
REMARK    1  A    between atoms: O1_1  and  C1_2 
REMARK    2  A    between atoms: C3_5  and  C4_6 
REMARK    3  A    between atoms: C4_6  and  N2_7 
REMARK    4  A    between atoms: N2_7  and  C5_8 
REMARK    5  A    between atoms: C9_12  and  C10_13 
REMARK    6  A    between atoms: C10_13  and  O2_14 
REMARK    7  A    between atoms: C10_13  and  C11_15 
ROOT
HETATM    1  C5  UNL     1      24.143   2.505  51.327  1.00  0.00     0.028 A 
HETATM    2  C6  UNL     1      24.958   2.849  50.269  1.00  0.00     0.029 A 
HETATM    3  C7  UNL     1      26.356   2.872  50.335  1.00  0.00     0.003 A 
HETATM    4  C8  UNL     1      26.936   2.527  51.537  1.00  0.00     0.010 A 
HETATM    5  C9  UNL     1      26.138   2.176  52.615  1.00  0.00    -0.023 A 
HETATM    6  C17 UNL     1      24.761   2.165  52.517  1.00  0.00     0.039 A 
ENDROOT
BRANCH   1   7
HETATM    7  N2  UNL     1      22.730   2.500  51.209  1.00  0.00    -0.386 N 
HETATM    8  H6  UNL     1      22.198   3.347  51.475  1.00  0.00     0.160 HD
BRANCH   7   9
HETATM    9  C4  UNL     1      22.173   1.271  50.713  1.00  0.00     0.160 C 
BRANCH   9  10
HETATM   10  C3  UNL     1      21.219   0.623  51.618  1.00  0.00    -0.013 A 
HETATM   11  C2  UNL     1      21.486   0.154  52.884  1.00  0.00     0.049 A 
HETATM   12  N1  UNL     1      22.425  -0.031  53.917  1.00  0.00    -0.359 N 
HETATM   13  C21 UNL     1      20.490  -0.439  53.634  1.00  0.00     0.017 A 
HETATM   14  C1  UNL     1      21.417  -0.663  54.746  1.00  0.00     0.255 A 
HETATM   15  H3  UNL     1      23.420   0.185  54.050  1.00  0.00     0.162 HD
HETATM   16  C20 UNL     1      19.193  -0.593  53.161  1.00  0.00     0.014 A 
HETATM   17  C19 UNL     1      18.900  -0.132  51.898  1.00  0.00     0.001 A 
HETATM   18  C18 UNL     1      19.917   0.456  51.173  1.00  0.00     0.011 A 
BRANCH  14  19
HETATM   19  O1  UNL     1      21.706  -1.986  55.055  1.00  0.00    -0.372 OA
HETATM   20  H1  UNL     1      22.395  -1.996  55.770  1.00  0.00     0.212 HD
ENDBRANCH  14  19
ENDBRANCH   9  10
ENDBRANCH   7   9
ENDBRANCH   1   7
BRANCH   5  21
HETATM   21  C10 UNL     1      26.912   1.833  53.839  1.00  0.00     0.184 C 
BRANCH  21  22
HETATM   22  O2  UNL     1      27.896   2.790  54.078  1.00  0.00    -0.386 OA
HETATM   23  H11 UNL     1      28.788   2.376  53.960  1.00  0.00     0.210 HD
ENDBRANCH  21  22
BRANCH  21  24
HETATM   24  C11 UNL     1      27.586   0.516  53.563  1.00  0.00    -0.025 A 
HETATM   25  C12 UNL     1      28.954   0.542  53.812  1.00  0.00     0.010 A 
HETATM   26  C13 UNL     1      29.782  -0.551  53.629  1.00  0.00     0.001 A 
HETATM   27  C14 UNL     1      29.178  -1.719  53.170  1.00  0.00     0.000 A 
HETATM   28  C15 UNL     1      27.826  -1.751  52.922  1.00  0.00     0.001 A 
HETATM   29  C16 UNL     1      27.019  -0.649  53.111  1.00  0.00     0.010 A 
ENDBRANCH  21  24
ENDBRANCH   5  21
TORSDOF 7
ENDMDL
MODEL 3
REMARK VINA RESULT:      -9.1      3.931      7.269
REMARK  7 active torsions:
REMARK  status: ('A' for Active; 'I' for Inactive)
REMARK    1  A    between atoms: O1_1  and  C1_2 
REMARK    2  A    between atoms: C3_5  and  C4_6 
REMARK    3  A    between atoms: C4_6  and  N2_7 
REMARK    4  A    between atoms: N2_7  and  C5_8 
REMARK    5  A    between atoms: C9_12  and  C10_13 
REMARK    6  A    between atoms: C10_13  and  O2_14 
REMARK    7  A    between atoms: C10_13  and  C11_15 
ROOT
HETATM    1  C5  UNL     1      25.869   2.937  51.037  1.00  0.00     0.028 A 
HETATM    2  C6  UNL     1      24.600   2.607  50.608  1.00  0.00     0.029 A 
HETATM    3  C7  UNL     1      23.778   1.672  51.248  1.00  0.00     0.003 A 
HETATM    4  C8  UNL     1      24.283   1.054  52.373  1.00  0.00     0.010 A 
HETATM    5  C9  UNL     1      25.556   1.370  52.824  1.00  0.00    -0.023 A 
HETATM    6  C17 UNL     1      26.342   2.297  52.169  1.00  0.00     0.039 A 
ENDROOT
BRANCH   1   7
HETATM    7  N2  UNL     1      26.663   3.890  50.351  1.00  0.00    -0.386 N 
HETATM    8  H6  UNL     1      27.649   4.026  50.636  1.00  0.00     0.160 HD
BRANCH   7   9
HETATM    9  C4  UNL     1      25.984   4.589  49.294  1.00  0.00     0.160 C 
BRANCH   9  10
HETATM   10  C3  UNL     1      25.520   5.934  49.648  1.00  0.00    -0.013 A 
HETATM   11  C2  UNL     1      26.297   7.067  49.732  1.00  0.00     0.049 A 
HETATM   12  N1  UNL     1      27.571   7.655  49.614  1.00  0.00    -0.359 N 
HETATM   13  C21 UNL     1      25.731   8.278  50.079  1.00  0.00     0.017 A 
HETATM   14  C1  UNL     1      27.028   8.950  49.975  1.00  0.00     0.255 A 
HETATM   15  H3  UNL     1      28.512   7.322  49.374  1.00  0.00     0.162 HD
HETATM   16  C20 UNL     1      24.377   8.414  50.357  1.00  0.00     0.014 A 
HETATM   17  C19 UNL     1      23.579   7.296  50.281  1.00  0.00     0.001 A 
HETATM   18  C18 UNL     1      24.174   6.100  49.932  1.00  0.00     0.011 A 
BRANCH  14  19
HETATM   19  O1  UNL     1      27.556   9.462  51.153  1.00  0.00    -0.372 OA
HETATM   20  H1  UNL     1      28.063  10.288  50.935  1.00  0.00     0.212 HD
ENDBRANCH  14  19
ENDBRANCH   9  10
ENDBRANCH   7   9
ENDBRANCH   1   7
BRANCH   5  21
HETATM   21  C10 UNL     1      25.954   0.619  54.045  1.00  0.00     0.184 C 
BRANCH  21  22
HETATM   22  O2  UNL     1      26.613   1.458  54.941  1.00  0.00    -0.386 OA
HETATM   23  H11 UNL     1      25.969   1.773  55.624  1.00  0.00     0.210 HD
ENDBRANCH  21  22
BRANCH  21  24
HETATM   24  C11 UNL     1      26.916  -0.448  53.596  1.00  0.00    -0.025 A 
HETATM   25  C12 UNL     1      28.226  -0.201  53.991  1.00  0.00     0.010 A 
HETATM   26  C13 UNL     1      29.283  -1.042  53.692  1.00  0.00     0.001 A 
HETATM   27  C14 UNL     1      28.980  -2.185  52.956  1.00  0.00     0.000 A 
HETATM   28  C15 UNL     1      27.686  -2.435  52.563  1.00  0.00     0.001 A 
HETATM   29  C16 UNL     1      26.647  -1.582  52.872  1.00  0.00     0.010 A 
ENDBRANCH  21  24
ENDBRANCH   5  21
TORSDOF 7
ENDMDL
MODEL 4
REMARK VINA RESULT:      -9.0      2.386      7.483
REMARK  7 active torsions:
REMARK  status: ('A' for Active; 'I' for Inactive)
REMARK    1  A    between atoms: O1_1  and  C1_2 
REMARK    2  A    between atoms: C3_5  and  C4_6 
REMARK    3  A    between atoms: C4_6  and  N2_7 
REMARK    4  A    between atoms: N2_7  and  C5_8 
REMARK    5  A    between atoms: C9_12  and  C10_13 
REMARK    6  A    between atoms: C10_13  and  O2_14 
REMARK    7  A    between atoms: C10_13  and  C11_15 
ROOT
HETATM    1  C5  UNL     1      24.051   1.978  51.364  1.00  0.00     0.028 A 
HETATM    2  C6  UNL     1      24.734   2.596  50.337  1.00  0.00     0.029 A 
HETATM    3  C7  UNL     1      26.083   2.960  50.405  1.00  0.00     0.003 A 
HETATM    4  C8  UNL     1      26.755   2.678  51.576  1.00  0.00     0.010 A 
HETATM    5  C9  UNL     1      26.089   2.057  52.623  1.00  0.00    -0.023 A 
HETATM    6  C17 UNL     1      24.757   1.711  52.524  1.00  0.00     0.039 A 
ENDROOT
BRANCH   1   7
HETATM    7  N2  UNL     1      22.681   1.632  51.247  1.00  0.00    -0.386 N 
HETATM    8  H6  UNL     1      22.325   1.277  50.342  1.00  0.00     0.160 HD
BRANCH   7   9
HETATM    9  C4  UNL     1      21.909   1.819  52.445  1.00  0.00     0.160 C 
BRANCH   9  10
HETATM   10  C3  UNL     1      21.454   0.578  53.080  1.00  0.00    -0.013 A 
HETATM   11  C2  UNL     1      20.208   0.007  52.954  1.00  0.00     0.049 A 
HETATM   12  N1  UNL     1      18.918   0.065  52.393  1.00  0.00    -0.359 N 
HETATM   13  C21 UNL     1      19.910  -1.170  53.610  1.00  0.00     0.017 A 
HETATM   14  C1  UNL     1      18.552  -1.169  53.061  1.00  0.00     0.255 A 
HETATM   15  H3  UNL     1      18.419   0.708  51.767  1.00  0.00     0.162 HD
HETATM   16  C20 UNL     1      20.830  -1.827  54.417  1.00  0.00     0.014 A 
HETATM   17  C19 UNL     1      22.083  -1.276  54.560  1.00  0.00     0.001 A 
HETATM   18  C18 UNL     1      22.351  -0.099  53.892  1.00  0.00     0.011 A 
BRANCH  14  19
HETATM   19  O1  UNL     1      17.516  -1.017  53.973  1.00  0.00    -0.372 OA
HETATM   20  H1  UNL     1      16.873  -1.763  53.842  1.00  0.00     0.212 HD
ENDBRANCH  14  19
ENDBRANCH   9  10
ENDBRANCH   7   9
ENDBRANCH   1   7
BRANCH   5  21
HETATM   21  C10 UNL     1      26.949   1.823  53.815  1.00  0.00     0.184 C 
BRANCH  21  22
HETATM   22  O2  UNL     1      27.900   2.835  53.936  1.00  0.00    -0.386 OA
HETATM   23  H11 UNL     1      28.067   3.232  53.044  1.00  0.00     0.210 HD
ENDBRANCH  21  22
BRANCH  21  24
HETATM   24  C11 UNL     1      27.666   0.522  53.577  1.00  0.00    -0.025 A 
HETATM   25  C12 UNL     1      29.027   0.592  53.850  1.00  0.00     0.010 A 
HETATM   26  C13 UNL     1      29.890  -0.480  53.704  1.00  0.00     0.001 A 
HETATM   27  C14 UNL     1      29.328  -1.674  53.257  1.00  0.00     0.000 A 
HETATM   28  C15 UNL     1      27.982  -1.750  52.985  1.00  0.00     0.001 A 
HETATM   29  C16 UNL     1      27.141  -0.667  53.139  1.00  0.00     0.010 A 
ENDBRANCH  21  24
ENDBRANCH   5  21
TORSDOF 7
ENDMDL
MODEL 5
REMARK VINA RESULT:      -8.9      1.691      2.200
REMARK  7 active torsions:
REMARK  status: ('A' for Active; 'I' for Inactive)
REMARK    1  A    between atoms: O1_1  and  C1_2 
REMARK    2  A    between atoms: C3_5  and  C4_6 
REMARK    3  A    between atoms: C4_6  and  N2_7 
REMARK    4  A    between atoms: N2_7  and  C5_8 
REMARK    5  A    between atoms: C9_12  and  C10_13 
REMARK    6  A    between atoms: C10_13  and  O2_14 
REMARK    7  A    between atoms: C10_13  and  C11_15 
ROOT
HETATM    1  C5  UNL     1      23.217  -0.373  53.817  1.00  0.00     0.028 A 
HETATM    2  C6  UNL     1      22.252  -1.213  54.332  1.00  0.00     0.029 A 
HETATM    3  C7  UNL     1      20.876  -1.013  54.172  1.00  0.00     0.003 A 
HETATM    4  C8  UNL     1      20.479   0.095  53.454  1.00  0.00     0.010 A 
HETATM    5  C9  UNL     1      21.431   0.954  52.926  1.00  0.00    -0.023 A 
HETATM    6  C17 UNL     1      22.781   0.729  53.102  1.00  0.00     0.039 A 
ENDROOT
BRANCH   1   7
HETATM    7  N2  UNL     1      24.600  -0.620  54.010  1.00  0.00    -0.386 N 
HETATM    8  H6  UNL     1      24.901  -1.526  54.408  1.00  0.00     0.160 HD
BRANCH   7   9
HETATM    9  C4  UNL     1      25.462   0.460  53.615  1.00  0.00     0.160 C 
BRANCH   9  10
HETATM   10  C3  UNL     1      26.893   0.137  53.626  1.00  0.00    -0.013 A 
HETATM   11  C2  UNL     1      27.461  -1.055  53.238  1.00  0.00     0.049 A 
HETATM   12  N1  UNL     1      27.281  -2.359  52.738  1.00  0.00    -0.359 N 
HETATM   13  C21 UNL     1      28.829  -1.228  53.299  1.00  0.00     0.017 A 
HETATM   14  C1  UNL     1      28.711  -2.594  52.783  1.00  0.00     0.255 A 
HETATM   15  H3  UNL     1      26.476  -2.929  52.452  1.00  0.00     0.162 HD
HETATM   16  C20 UNL     1      29.687  -0.233  53.748  1.00  0.00     0.014 A 
HETATM   17  C19 UNL     1      29.143   0.968  54.143  1.00  0.00     0.001 A 
HETATM   18  C18 UNL     1      27.773   1.112  54.070  1.00  0.00     0.011 A 
BRANCH  14  19
HETATM   19  O1  UNL     1      29.075  -3.617  53.649  1.00  0.00    -0.372 OA
HETATM   20  H1  UNL     1      29.055  -3.262  54.577  1.00  0.00     0.212 HD
ENDBRANCH  14  19
ENDBRANCH   9  10
ENDBRANCH   7   9
ENDBRANCH   1   7
BRANCH   5  21
HETATM   21  C10 UNL     1      20.844   2.101  52.181  1.00  0.00     0.184 C 
BRANCH  21  22
HETATM   22  O2  UNL     1      19.452   2.028  52.191  1.00  0.00    -0.386 OA
HETATM   23  H11 UNL     1      19.159   1.535  52.998  1.00  0.00     0.210 HD
ENDBRANCH  21  22
BRANCH  21  24
HETATM   24  C11 UNL     1      21.318   1.975  50.758  1.00  0.00    -0.025 A 
HETATM   25  C12 UNL     1      22.226   2.964  50.397  1.00  0.00     0.010 A 
HETATM   26  C13 UNL     1      22.797   3.052  49.140  1.00  0.00     0.001 A 
HETATM   27  C14 UNL     1      22.416   2.083  48.215  1.00  0.00     0.000 A 
HETATM   28  C15 UNL     1      21.518   1.102  48.566  1.00  0.00     0.001 A 
HETATM   29  C16 UNL     1      20.961   1.034  49.826  1.00  0.00     0.010 A 
ENDBRANCH  21  24
ENDBRANCH   5  21
TORSDOF 7
ENDMDL
MODEL 6
REMARK VINA RESULT:      -8.7      3.216      6.743
REMARK  7 active torsions:
REMARK  status: ('A' for Active; 'I' for Inactive)
REMARK    1  A    between atoms: O1_1  and  C1_2 
REMARK    2  A    between atoms: C3_5  and  C4_6 
REMARK    3  A    between atoms: C4_6  and  N2_7 
REMARK    4  A    between atoms: N2_7  and  C5_8 
REMARK    5  A    between atoms: C9_12  and  C10_13 
REMARK    6  A    between atoms: C10_13  and  O2_14 
REMARK    7  A    between atoms: C10_13  and  C11_15 
ROOT
HETATM    1  C5  UNL     1      24.061   2.226  51.169  1.00  0.00     0.028 A 
HETATM    2  C6  UNL     1      23.023   1.385  51.509  1.00  0.00     0.029 A 
HETATM    3  C7  UNL     1      23.019   0.569  52.646  1.00  0.00     0.003 A 
HETATM    4  C8  UNL     1      24.128   0.623  53.465  1.00  0.00     0.010 A 
HETATM    5  C9  UNL     1      25.185   1.462  53.144  1.00  0.00    -0.023 A 
HETATM    6  C17 UNL     1      25.157   2.254  52.014  1.00  0.00     0.039 A 
ENDROOT
BRANCH   1   7
HETATM    7  N2  UNL     1      24.017   3.032  50.003  1.00  0.00    -0.386 N 
HETATM    8  H6  UNL     1      24.086   2.581  49.074  1.00  0.00     0.160 HD
BRANCH   7   9
HETATM    9  C4  UNL     1      23.874   4.440  50.251  1.00  0.00     0.160 C 
BRANCH   9  10
HETATM   10  C3  UNL     1      24.784   5.293  49.479  1.00  0.00    -0.013 A 
HETATM   11  C2  UNL     1      26.100   5.021  49.183  1.00  0.00     0.049 A 
HETATM   12  N1  UNL     1      27.193   4.140  49.293  1.00  0.00    -0.359 N 
HETATM   13  C21 UNL     1      26.849   5.915  48.443  1.00  0.00     0.017 A 
HETATM   14  C1  UNL     1      28.024   5.044  48.521  1.00  0.00     0.255 A 
HETATM   15  H3  UNL     1      27.357   3.227  49.734  1.00  0.00     0.162 HD
HETATM   16  C20 UNL     1      26.326   7.112  47.970  1.00  0.00     0.014 A 
HETATM   17  C19 UNL     1      25.012   7.407  48.253  1.00  0.00     0.001 A 
HETATM   18  C18 UNL     1      24.289   6.494  48.994  1.00  0.00     0.011 A 
BRANCH  14  19
HETATM   19  O1  UNL     1      29.112   5.535  49.231  1.00  0.00    -0.372 OA
HETATM   20  H1  UNL     1      28.856   5.601  50.188  1.00  0.00     0.212 HD
ENDBRANCH  14  19
ENDBRANCH   9  10
ENDBRANCH   7   9
ENDBRANCH   1   7
BRANCH   5  21
HETATM   21  C10 UNL     1      26.304   1.405  54.123  1.00  0.00     0.184 C 
BRANCH  21  22
HETATM   22  O2  UNL     1      27.071   2.567  54.055  1.00  0.00    -0.386 OA
HETATM   23  H11 UNL     1      26.527   3.333  54.370  1.00  0.00     0.210 HD
ENDBRANCH  21  22
BRANCH  21  24
HETATM   24  C11 UNL     1      27.167   0.241  53.719  1.00  0.00    -0.025 A 
HETATM   25  C12 UNL     1      28.503   0.408  54.064  1.00  0.00     0.010 A 
HETATM   26  C13 UNL     1      29.483  -0.530  53.793  1.00  0.00     0.001 A 
HETATM   27  C14 UNL     1      29.071  -1.689  53.139  1.00  0.00     0.000 A 
HETATM   28  C15 UNL     1      27.750  -1.861  52.796  1.00  0.00     0.001 A 
HETATM   29  C16 UNL     1      26.790  -0.911  53.076  1.00  0.00     0.010 A 
ENDBRANCH  21  24
ENDBRANCH   5  21
TORSDOF 7
ENDMDL
MODEL 7
REMARK VINA RESULT:      -8.7      3.942      7.080
REMARK  7 active torsions:
REMARK  status: ('A' for Active; 'I' for Inactive)
REMARK    1  A    between atoms: O1_1  and  C1_2 
REMARK    2  A    between atoms: C3_5  and  C4_6 
REMARK    3  A    between atoms: C4_6  and  N2_7 
REMARK    4  A    between atoms: N2_7  and  C5_8 
REMARK    5  A    between atoms: C9_12  and  C10_13 
REMARK    6  A    between atoms: C10_13  and  O2_14 
REMARK    7  A    between atoms: C10_13  and  C11_15 
ROOT
HETATM    1  C5  UNL     1      25.574   2.724  51.557  1.00  0.00     0.028 A 
HETATM    2  C6  UNL     1      24.260   3.080  51.780  1.00  0.00     0.029 A 
HETATM    3  C7  UNL     1      23.339   2.279  52.465  1.00  0.00     0.003 A 
HETATM    4  C8  UNL     1      23.789   1.064  52.938  1.00  0.00     0.010 A 
HETATM    5  C9  UNL     1      25.106   0.684  52.726  1.00  0.00    -0.023 A 
HETATM    6  C17 UNL     1      25.990   1.498  52.046  1.00  0.00     0.039 A 
ENDROOT
BRANCH   1   7
HETATM    7  N2  UNL     1      26.467   3.571  50.854  1.00  0.00    -0.386 N 
HETATM    8  H6  UNL     1      27.246   4.021  51.366  1.00  0.00     0.160 HD
BRANCH   7   9
HETATM    9  C4  UNL     1      26.179   3.718  49.453  1.00  0.00     0.160 C 
BRANCH   9  10
HETATM   10  C3  UNL     1      26.363   5.075  48.929  1.00  0.00    -0.013 A 
HETATM   11  C2  UNL     1      27.565   5.701  48.692  1.00  0.00     0.049 A 
HETATM   12  N1  UNL     1      28.972   5.639  48.720  1.00  0.00    -0.359 N 
HETATM   13  C21 UNL     1      27.595   6.989  48.194  1.00  0.00     0.017 A 
HETATM   14  C1  UNL     1      29.060   6.989  48.199  1.00  0.00     0.255 A 
HETATM   15  H3  UNL     1      29.668   4.936  48.993  1.00  0.00     0.162 HD
HETATM   16  C20 UNL     1      26.440   7.707  47.915  1.00  0.00     0.014 A 
HETATM   17  C19 UNL     1      25.225   7.103  48.145  1.00  0.00     0.001 A 
HETATM   18  C18 UNL     1      25.226   5.816  48.642  1.00  0.00     0.011 A 
BRANCH  14  19
HETATM   19  O1  UNL     1      29.676   7.878  49.071  1.00  0.00    -0.372 OA
HETATM   20  H1  UNL     1      28.972   8.428  49.505  1.00  0.00     0.212 HD
ENDBRANCH  14  19
ENDBRANCH   9  10
ENDBRANCH   7   9
ENDBRANCH   1   7
BRANCH   5  21
HETATM   21  C10 UNL     1      25.435  -0.651  53.295  1.00  0.00     0.184 C 
BRANCH  21  22
HETATM   22  O2  UNL     1      24.726  -0.867  54.474  1.00  0.00    -0.386 OA
HETATM   23  H11 UNL     1      23.844  -0.420  54.410  1.00  0.00     0.210 HD
ENDBRANCH  21  22
BRANCH  21  24
HETATM   24  C11 UNL     1      26.904  -0.629  53.619  1.00  0.00    -0.025 A 
HETATM   25  C12 UNL     1      27.633  -1.575  52.908  1.00  0.00     0.010 A 
HETATM   26  C13 UNL     1      29.000  -1.741  53.041  1.00  0.00     0.001 A 
HETATM   27  C14 UNL     1      29.644  -0.899  53.945  1.00  0.00     0.000 A 
HETATM   28  C15 UNL     1      28.928   0.039  54.652  1.00  0.00     0.001 A 
HETATM   29  C16 UNL     1      27.565   0.187  54.502  1.00  0.00     0.010 A 
ENDBRANCH  21  24
ENDBRANCH   5  21
TORSDOF 7
ENDMDL
MODEL 8
REMARK VINA RESULT:      -8.7      1.652      3.971
REMARK  7 active torsions:
REMARK  status: ('A' for Active; 'I' for Inactive)
REMARK    1  A    between atoms: O1_1  and  C1_2 
REMARK    2  A    between atoms: C3_5  and  C4_6 
REMARK    3  A    between atoms: C4_6  and  N2_7 
REMARK    4  A    between atoms: N2_7  and  C5_8 
REMARK    5  A    between atoms: C9_12  and  C10_13 
REMARK    6  A    between atoms: C10_13  and  O2_14 
REMARK    7  A    between atoms: C10_13  and  C11_15 
ROOT
HETATM    1  C5  UNL     1      24.024   3.155  51.005  1.00  0.00     0.028 A 
HETATM    2  C6  UNL     1      23.830   3.127  49.640  1.00  0.00     0.029 A 
HETATM    3  C7  UNL     1      22.646   2.700  49.028  1.00  0.00     0.003 A 
HETATM    4  C8  UNL     1      21.623   2.284  49.855  1.00  0.00     0.010 A 
HETATM    5  C9  UNL     1      21.795   2.303  51.231  1.00  0.00    -0.023 A 
HETATM    6  C17 UNL     1      22.976   2.730  51.803  1.00  0.00     0.039 A 
ENDROOT
BRANCH   1   7
HETATM    7  N2  UNL     1      25.246   3.595  51.576  1.00  0.00    -0.386 N 
HETATM    8  H6  UNL     1      25.234   4.372  52.259  1.00  0.00     0.160 HD
BRANCH   7   9
HETATM    9  C4  UNL     1      26.410   2.884  51.123  1.00  0.00     0.160 C 
BRANCH   9  10
HETATM   10  C3  UNL     1      26.784   1.732  51.949  1.00  0.00    -0.013 A 
HETATM   11  C2  UNL     1      27.856   1.659  52.809  1.00  0.00     0.049 A 
HETATM   12  N1  UNL     1      28.977   2.293  53.378  1.00  0.00    -0.359 N 
HETATM   13  C21 UNL     1      28.095   0.507  53.532  1.00  0.00     0.017 A 
HETATM   14  C1  UNL     1      29.274   1.108  54.159  1.00  0.00     0.255 A 
HETATM   15  H3  UNL     1      29.421   3.215  53.291  1.00  0.00     0.162 HD
HETATM   16  C20 UNL     1      27.286  -0.617  53.430  1.00  0.00     0.014 A 
HETATM   17  C19 UNL     1      26.207  -0.570  52.576  1.00  0.00     0.001 A 
HETATM   18  C18 UNL     1      25.994   0.595  51.868  1.00  0.00     0.011 A 
BRANCH  14  19
HETATM   19  O1  UNL     1      30.500   0.535  53.849  1.00  0.00    -0.372 OA
HETATM   20  H1  UNL     1      30.969   0.321  54.698  1.00  0.00     0.212 HD
ENDBRANCH  14  19
ENDBRANCH   9  10
ENDBRANCH   7   9
ENDBRANCH   1   7
BRANCH   5  21
HETATM   21  C10 UNL     1      20.603   1.825  51.983  1.00  0.00     0.184 C 
BRANCH  21  22
HETATM   22  O2  UNL     1      20.037   2.867  52.715  1.00  0.00    -0.386 OA
HETATM   23  H11 UNL     1      20.640   3.652  52.680  1.00  0.00     0.210 HD
ENDBRANCH  21  22
BRANCH  21  24
HETATM   24  C11 UNL     1      21.095   0.779  52.945  1.00  0.00    -0.025 A 
HETATM   25  C12 UNL     1      21.956  -0.141  52.356  1.00  0.00     0.010 A 
HETATM   26  C13 UNL     1      22.534  -1.193  53.045  1.00  0.00     0.001 A 
HETATM   27  C14 UNL     1      22.211  -1.305  54.395  1.00  0.00     0.000 A 
HETATM   28  C15 UNL     1      21.360  -0.399  54.983  1.00  0.00     0.001 A 
HETATM   29  C16 UNL     1      20.796   0.643  54.277  1.00  0.00     0.010 A 
ENDBRANCH  21  24
ENDBRANCH   5  21
TORSDOF 7
ENDMDL
MODEL 9
REMARK VINA RESULT:      -8.5      2.852      5.473
REMARK  7 active torsions:
REMARK  status: ('A' for Active; 'I' for Inactive)
REMARK    1  A    between atoms: O1_1  and  C1_2 
REMARK    2  A    between atoms: C3_5  and  C4_6 
REMARK    3  A    between atoms: C4_6  and  N2_7 
REMARK    4  A    between atoms: N2_7  and  C5_8 
REMARK    5  A    between atoms: C9_12  and  C10_13 
REMARK    6  A    between atoms: C10_13  and  O2_14 
REMARK    7  A    between atoms: C10_13  and  C11_15 
ROOT
HETATM    1  C5  UNL     1      26.145   1.866  51.975  1.00  0.00     0.028 A 
HETATM    2  C6  UNL     1      26.823   0.673  52.116  1.00  0.00     0.029 A 
HETATM    3  C7  UNL     1      26.251  -0.493  52.639  1.00  0.00     0.003 A 
HETATM    4  C8  UNL     1      24.931  -0.427  53.031  1.00  0.00     0.010 A 
HETATM    5  C9  UNL     1      24.228   0.762  52.899  1.00  0.00    -0.023 A 
HETATM    6  C17 UNL     1      24.822   1.895  52.380  1.00  0.00     0.039 A 
ENDROOT
BRANCH   1   7
HETATM    7  N2  UNL     1      26.772   3.021  51.442  1.00  0.00    -0.386 N 
HETATM    8  H6  UNL     1      27.366   3.603  52.057  1.00  0.00     0.160 HD
BRANCH   7   9
HETATM    9  C4  UNL     1      26.500   3.263  50.051  1.00  0.00     0.160 C 
BRANCH   9  10
HETATM   10  C3  UNL     1      25.309   4.080  49.794  1.00  0.00    -0.013 A 
HETATM   11  C2  UNL     1      25.167   5.421  50.067  1.00  0.00     0.049 A 
HETATM   12  N1  UNL     1      25.736   6.605  50.574  1.00  0.00    -0.359 N 
HETATM   13  C21 UNL     1      23.986   6.072  49.772  1.00  0.00     0.017 A 
HETATM   14  C1  UNL     1      24.518   7.337  50.285  1.00  0.00     0.255 A 
HETATM   15  H3  UNL     1      26.641   6.866  50.983  1.00  0.00     0.162 HD
HETATM   16  C20 UNL     1      22.900   5.422  49.199  1.00  0.00     0.014 A 
HETATM   17  C19 UNL     1      23.017   4.080  48.917  1.00  0.00     0.001 A 
HETATM   18  C18 UNL     1      24.210   3.457  49.222  1.00  0.00     0.011 A 
BRANCH  14  19
HETATM   19  O1  UNL     1      23.902   7.852  51.419  1.00  0.00    -0.372 OA
HETATM   20  H1  UNL     1      23.593   7.093  51.979  1.00  0.00     0.212 HD
ENDBRANCH  14  19
ENDBRANCH   9  10
ENDBRANCH   7   9
ENDBRANCH   1   7
BRANCH   5  21
HETATM   21  C10 UNL     1      22.819   0.671  53.367  1.00  0.00     0.184 C 
BRANCH  21  22
HETATM   22  O2  UNL     1      22.497  -0.645  53.692  1.00  0.00    -0.386 OA
HETATM   23  H11 UNL     1      22.252  -1.133  52.865  1.00  0.00     0.210 HD
ENDBRANCH  21  22
BRANCH  21  24
HETATM   24  C11 UNL     1      21.955   1.103  52.213  1.00  0.00    -0.025 A 
HETATM   25  C12 UNL     1      21.340   2.332  52.424  1.00  0.00     0.010 A 
HETATM   26  C13 UNL     1      20.499   2.930  51.503  1.00  0.00     0.001 A 
HETATM   27  C14 UNL     1      20.281   2.234  50.316  1.00  0.00     0.000 A 
HETATM   28  C15 UNL     1      20.887   1.019  50.101  1.00  0.00     0.001 A 
HETATM   29  C16 UNL     1      21.722   0.441  51.035  1.00  0.00     0.010 A 
ENDBRANCH  21  24
ENDBRANCH   5  21
TORSDOF 7
ENDMDL
