MODEL 1
REMARK VINA RESULT:      -7.2      0.000      0.000
REMARK  11 active torsions:
REMARK  status: ('A' for Active; 'I' for Inactive)
REMARK    1  A    between atoms: N1_1  and  S1_2 
REMARK    2  A    between atoms: S1_2  and  C1_3 
REMARK    3  A    between atoms: C1_3  and  C2_4 
REMARK    4  A    between atoms: C2_4  and  C3_5 
REMARK    5  A    between atoms: C4_6  and  C5_7 
REMARK    6  A    between atoms: C6_8  and  C7_9 
REMARK    7  A    between atoms: C7_9  and  C8_10 
REMARK    8  A    between atoms: C7_9  and  N2_19 
REMARK    9  A    between atoms: C9_11  and  C10_12 
REMARK   10  A    between atoms: N2_19  and  C16_20 
REMARK   11  A    between atoms: C16_20  and  N3_21 
ROOT
HETATM    1  C7  UNL     1      26.755  -0.266  52.701  1.00  0.00     0.130 C 
ENDROOT
BRANCH   1   2
HETATM    2  C6  UNL     1      27.095   1.137  52.876  1.00  0.00     0.002 C 
HETATM    3  C5  UNL     1      27.023   2.240  52.156  1.00  0.00    -0.002 C 
BRANCH   3   4
HETATM    4  C4  UNL     1      26.505   2.306  50.813  1.00  0.00     0.000 C 
HETATM    5  C3  UNL     1      25.292   2.781  50.573  1.00  0.00     0.009 C 
BRANCH   5   6
HETATM    6  C2  UNL     1      24.527   3.226  51.757  1.00  0.00     0.065 C 
BRANCH   6   7
HETATM    7  C1  UNL     1      23.937   4.408  51.661  1.00  0.00    -0.061 C 
BRANCH   7   8
HETATM    8  S1  UNL     1      23.455   5.943  51.383  1.00  0.00     0.046 SA
BRANCH   8   9
HETATM    9  N1  UNL     1      24.456   7.117  51.851  1.00  0.00    -0.256 NA
HETATM   10  H1  UNL     1      24.917   7.734  51.172  1.00  0.00     0.197 HD
ENDBRANCH   8   9
ENDBRANCH   7   8
ENDBRANCH   6   7
ENDBRANCH   5   6
ENDBRANCH   3   4
ENDBRANCH   1   2
BRANCH   1  11
HETATM   11  C8  UNL     1      25.321  -0.602  52.743  1.00  0.00     0.003 C 
HETATM   12  C9  UNL     1      24.436   0.074  53.496  1.00  0.00     0.010 C 
BRANCH  12  13
HETATM   13  C10 UNL     1      23.034  -0.252  53.540  1.00  0.00    -0.036 A 
HETATM   14  C11 UNL     1      22.476  -1.125  54.432  1.00  0.00     0.014 A 
HETATM   15  C12 UNL     1      21.138  -1.453  54.495  1.00  0.00     0.043 A 
HETATM   16  C13 UNL     1      20.268  -0.857  53.585  1.00  0.00     0.116 A 
HETATM   17  F1  UNL     1      18.954  -1.162  53.627  1.00  0.00    -0.206 F 
HETATM   18  C14 UNL     1      20.816   0.034  52.669  1.00  0.00     0.043 A 
HETATM   19  C15 UNL     1      22.167   0.322  52.657  1.00  0.00     0.014 A 
ENDBRANCH  12  13
ENDBRANCH   1  11
BRANCH   1  20
HETATM   20  N2  UNL     1      27.385  -1.045  53.777  1.00  0.00    -0.356 N 
HETATM   21  H14 UNL     1      26.981  -1.123  54.736  1.00  0.00     0.162 HD
BRANCH  20  22
HETATM   22  C16 UNL     1      28.614  -1.722  53.468  1.00  0.00     0.166 C 
HETATM   23  S2  UNL     1      30.026  -0.919  53.565  1.00  0.00    -0.041 SA
BRANCH  22  24
HETATM   24  N3  UNL     1      28.535  -3.086  53.086  1.00  0.00    -0.376 N 
HETATM   25  H15 UNL     1      29.516  -3.446  52.967  1.00  0.00     0.158 HD
HETATM   26  H16 UNL     1      28.460  -4.084  52.806  1.00  0.00     0.158 HD
ENDBRANCH  22  24
ENDBRANCH  20  22
ENDBRANCH   1  20
TORSDOF 11
ENDMDL
MODEL 2
REMARK VINA RESULT:      -6.9      4.768      6.381
REMARK  11 active torsions:
REMARK  status: ('A' for Active; 'I' for Inactive)
REMARK    1  A    between atoms: N1_1  and  S1_2 
REMARK    2  A    between atoms: S1_2  and  C1_3 
REMARK    3  A    between atoms: C1_3  and  C2_4 
REMARK    4  A    between atoms: C2_4  and  C3_5 
REMARK    5  A    between atoms: C4_6  and  C5_7 
REMARK    6  A    between atoms: C6_8  and  C7_9 
REMARK    7  A    between atoms: C7_9  and  C8_10 
REMARK    8  A    between atoms: C7_9  and  N2_19 
REMARK    9  A    between atoms: C9_11  and  C10_12 
REMARK   10  A    between atoms: N2_19  and  C16_20 
REMARK   11  A    between atoms: C16_20  and  N3_21 
ROOT
HETATM    1  C7  UNL     1      25.233   3.519  51.383  1.00  0.00     0.130 C 
ENDROOT
BRANCH   1   2
HETATM    2  C6  UNL     1      25.006   3.927  50.006  1.00  0.00     0.002 C 
HETATM    3  C5  UNL     1      25.748   4.305  48.982  1.00  0.00    -0.002 C 
BRANCH   3   4
HETATM    4  C4  UNL     1      27.184   4.415  49.010  1.00  0.00     0.000 C 
HETATM    5  C3  UNL     1      27.786   5.548  48.681  1.00  0.00     0.009 C 
BRANCH   5   6
HETATM    6  C2  UNL     1      26.897   6.663  48.293  1.00  0.00     0.065 C 
BRANCH   6   7
HETATM    7  C1  UNL     1      27.239   7.864  48.736  1.00  0.00    -0.061 C 
BRANCH   7   8
HETATM    8  S1  UNL     1      27.842   9.191  49.472  1.00  0.00     0.046 SA
BRANCH   8   9
HETATM    9  N1  UNL     1      27.514   9.366  51.041  1.00  0.00    -0.256 NA
HETATM   10  H1  UNL     1      26.900  10.115  51.382  1.00  0.00     0.197 HD
ENDBRANCH   8   9
ENDBRANCH   7   8
ENDBRANCH   6   7
ENDBRANCH   5   6
ENDBRANCH   3   4
ENDBRANCH   1   2
BRANCH   1  11
HETATM   11  C8  UNL     1      25.909   2.225  51.580  1.00  0.00     0.003 C 
HETATM   12  C9  UNL     1      26.696   1.969  52.639  1.00  0.00     0.010 C 
BRANCH  12  13
HETATM   13  C10 UNL     1      27.359   0.706  52.836  1.00  0.00    -0.036 A 
HETATM   14  C11 UNL     1      26.814  -0.506  52.516  1.00  0.00     0.014 A 
HETATM   15  C12 UNL     1      27.428  -1.729  52.695  1.00  0.00     0.043 A 
HETATM   16  C13 UNL     1      28.708  -1.750  53.244  1.00  0.00     0.116 A 
HETATM   17  F1  UNL     1      29.330  -2.934  53.428  1.00  0.00    -0.206 F 
HETATM   18  C14 UNL     1      29.280  -0.528  53.577  1.00  0.00     0.043 A 
HETATM   19  C15 UNL     1      28.613   0.664  53.372  1.00  0.00     0.014 A 
ENDBRANCH  12  13
ENDBRANCH   1  11
BRANCH   1  20
HETATM   20  N2  UNL     1      23.934   3.405  52.064  1.00  0.00    -0.356 N 
HETATM   21  H14 UNL     1      23.474   2.490  52.264  1.00  0.00     0.162 HD
BRANCH  20  22
HETATM   22  C16 UNL     1      23.289   4.626  52.462  1.00  0.00     0.166 C 
HETATM   23  S2  UNL     1      21.907   5.084  51.736  1.00  0.00    -0.041 SA
BRANCH  22  24
HETATM   24  N3  UNL     1      23.902   5.387  53.490  1.00  0.00    -0.376 N 
HETATM   25  H15 UNL     1      23.618   4.971  54.413  1.00  0.00     0.158 HD
HETATM   26  H16 UNL     1      24.357   5.955  54.232  1.00  0.00     0.158 HD
ENDBRANCH  22  24
ENDBRANCH  20  22
ENDBRANCH   1  20
TORSDOF 11
ENDMDL
MODEL 3
REMARK VINA RESULT:      -6.9      1.166      5.765
REMARK  11 active torsions:
REMARK  status: ('A' for Active; 'I' for Inactive)
REMARK    1  A    between atoms: N1_1  and  S1_2 
REMARK    2  A    between atoms: S1_2  and  C1_3 
REMARK    3  A    between atoms: C1_3  and  C2_4 
REMARK    4  A    between atoms: C2_4  and  C3_5 
REMARK    5  A    between atoms: C4_6  and  C5_7 
REMARK    6  A    between atoms: C6_8  and  C7_9 
REMARK    7  A    between atoms: C7_9  and  C8_10 
REMARK    8  A    between atoms: C7_9  and  N2_19 
REMARK    9  A    between atoms: C9_11  and  C10_12 
REMARK   10  A    between atoms: N2_19  and  C16_20 
REMARK   11  A    between atoms: C16_20  and  N3_21 
ROOT
HETATM    1  C7  UNL     1      24.458   3.407  51.793  1.00  0.00     0.130 C 
ENDROOT
BRANCH   1   2
HETATM    2  C6  UNL     1      25.680   2.842  51.244  1.00  0.00     0.002 C 
HETATM    3  C5  UNL     1      26.828   2.396  51.717  1.00  0.00    -0.002 C 
BRANCH   3   4
HETATM    4  C4  UNL     1      27.182   2.368  53.113  1.00  0.00     0.000 C 
HETATM    5  C3  UNL     1      27.209   1.228  53.786  1.00  0.00     0.009 C 
BRANCH   5   6
HETATM    6  C2  UNL     1      26.857   0.015  53.017  1.00  0.00     0.065 C 
BRANCH   6   7
HETATM    7  C1  UNL     1      27.743  -0.970  53.041  1.00  0.00    -0.061 C 
BRANCH   7   8
HETATM    8  S1  UNL     1      29.022  -1.973  53.187  1.00  0.00     0.046 SA
BRANCH   8   9
HETATM    9  N1  UNL     1      28.700  -3.545  53.349  1.00  0.00    -0.256 NA
HETATM   10  H1  UNL     1      28.922  -4.053  54.213  1.00  0.00     0.197 HD
ENDBRANCH   8   9
ENDBRANCH   7   8
ENDBRANCH   6   7
ENDBRANCH   5   6
ENDBRANCH   3   4
ENDBRANCH   1   2
BRANCH   1  11
HETATM   11  C8  UNL     1      23.368   2.459  52.080  1.00  0.00     0.003 C 
HETATM   12  C9  UNL     1      23.474   1.483  52.998  1.00  0.00     0.010 C 
BRANCH  12  13
HETATM   13  C10 UNL     1      22.411   0.553  53.281  1.00  0.00    -0.036 A 
HETATM   14  C11 UNL     1      22.550  -0.555  54.069  1.00  0.00     0.014 A 
HETATM   15  C12 UNL     1      21.549  -1.460  54.355  1.00  0.00     0.043 A 
HETATM   16  C13 UNL     1      20.287  -1.244  53.806  1.00  0.00     0.116 A 
HETATM   17  F1  UNL     1      19.291  -2.116  54.071  1.00  0.00    -0.206 F 
HETATM   18  C14 UNL     1      20.125  -0.122  53.000  1.00  0.00     0.043 A 
HETATM   19  C15 UNL     1      21.169   0.748  52.752  1.00  0.00     0.014 A 
ENDBRANCH  12  13
ENDBRANCH   1  11
BRANCH   1  20
HETATM   20  N2  UNL     1      23.909   4.376  50.831  1.00  0.00    -0.356 N 
HETATM   21  H14 UNL     1      23.880   4.203  49.803  1.00  0.00     0.162 HD
BRANCH  20  22
HETATM   22  C16 UNL     1      23.397   5.610  51.359  1.00  0.00     0.166 C 
HETATM   23  S2  UNL     1      21.849   6.027  51.081  1.00  0.00    -0.041 SA
BRANCH  22  24
HETATM   24  N3  UNL     1      24.284   6.421  52.113  1.00  0.00    -0.376 N 
HETATM   25  H15 UNL     1      25.247   6.312  51.705  1.00  0.00     0.158 HD
HETATM   26  H16 UNL     1      24.920   7.019  52.676  1.00  0.00     0.158 HD
ENDBRANCH  22  24
ENDBRANCH  20  22
ENDBRANCH   1  20
TORSDOF 11
ENDMDL
MODEL 4
REMARK VINA RESULT:      -6.8      3.607      6.779
REMARK  11 active torsions:
REMARK  status: ('A' for Active; 'I' for Inactive)
REMARK    1  A    between atoms: N1_1  and  S1_2 
REMARK    2  A    between atoms: S1_2  and  C1_3 
REMARK    3  A    between atoms: C1_3  and  C2_4 
REMARK    4  A    between atoms: C2_4  and  C3_5 
REMARK    5  A    between atoms: C4_6  and  C5_7 
REMARK    6  A    between atoms: C6_8  and  C7_9 
REMARK    7  A    between atoms: C7_9  and  C8_10 
REMARK    8  A    between atoms: C7_9  and  N2_19 
REMARK    9  A    between atoms: C9_11  and  C10_12 
REMARK   10  A    between atoms: N2_19  and  C16_20 
REMARK   11  A    between atoms: C16_20  and  N3_21 
ROOT
HETATM    1  C7  UNL     1      25.019   3.889  50.386  1.00  0.00     0.130 C 
ENDROOT
BRANCH   1   2
HETATM    2  C6  UNL     1      23.755   3.986  51.097  1.00  0.00     0.002 C 
HETATM    3  C5  UNL     1      22.700   3.218  51.289  1.00  0.00    -0.002 C 
BRANCH   3   4
HETATM    4  C4  UNL     1      22.543   1.894  50.743  1.00  0.00     0.000 C 
HETATM    5  C3  UNL     1      22.486   0.833  51.535  1.00  0.00     0.009 C 
BRANCH   5   6
HETATM    6  C2  UNL     1      22.594   1.102  52.985  1.00  0.00     0.065 C 
BRANCH   6   7
HETATM    7  C1  UNL     1      22.433   0.060  53.786  1.00  0.00    -0.061 C 
BRANCH   7   8
HETATM    8  S1  UNL     1      22.031  -1.316  54.567  1.00  0.00     0.046 SA
BRANCH   8   9
HETATM    9  N1  UNL     1      23.011  -1.792  55.756  1.00  0.00    -0.256 NA
HETATM   10  H1  UNL     1      22.990  -2.752  56.118  1.00  0.00     0.197 HD
ENDBRANCH   8   9
ENDBRANCH   7   8
ENDBRANCH   6   7
ENDBRANCH   5   6
ENDBRANCH   3   4
ENDBRANCH   1   2
BRANCH   1  11
HETATM   11  C8  UNL     1      25.939   2.825  50.827  1.00  0.00     0.003 C 
HETATM   12  C9  UNL     1      25.937   2.332  52.077  1.00  0.00     0.010 C 
BRANCH  12  13
HETATM   13  C10 UNL     1      26.834   1.293  52.512  1.00  0.00    -0.036 A 
HETATM   14  C11 UNL     1      28.049   1.521  53.095  1.00  0.00     0.014 A 
HETATM   15  C12 UNL     1      28.925   0.545  53.520  1.00  0.00     0.043 A 
HETATM   16  C13 UNL     1      28.560  -0.789  53.350  1.00  0.00     0.116 A 
HETATM   17  F1  UNL     1      29.401  -1.763  53.757  1.00  0.00    -0.206 F 
HETATM   18  C14 UNL     1      27.328  -1.043  52.757  1.00  0.00     0.043 A 
HETATM   19  C15 UNL     1      26.494  -0.018  52.354  1.00  0.00     0.014 A 
ENDBRANCH  12  13
ENDBRANCH   1  11
BRANCH   1  20
HETATM   20  N2  UNL     1      25.755   5.152  50.550  1.00  0.00    -0.356 N 
HETATM   21  H14 UNL     1      25.905   5.607  51.477  1.00  0.00     0.162 HD
BRANCH  20  22
HETATM   22  C16 UNL     1      26.280   5.768  49.363  1.00  0.00     0.166 C 
HETATM   23  S2  UNL     1      25.322   6.719  48.454  1.00  0.00    -0.041 SA
BRANCH  22  24
HETATM   24  N3  UNL     1      27.636   5.512  49.035  1.00  0.00    -0.376 N 
HETATM   25  H15 UNL     1      27.654   4.964  48.138  1.00  0.00     0.158 HD
HETATM   26  H16 UNL     1      28.634   5.333  48.810  1.00  0.00     0.158 HD
ENDBRANCH  22  24
ENDBRANCH  20  22
ENDBRANCH   1  20
TORSDOF 11
ENDMDL
MODEL 5
REMARK VINA RESULT:      -6.7      3.650      6.094
REMARK  11 active torsions:
REMARK  status: ('A' for Active; 'I' for Inactive)
REMARK    1  A    between atoms: N1_1  and  S1_2 
REMARK    2  A    between atoms: S1_2  and  C1_3 
REMARK    3  A    between atoms: C1_3  and  C2_4 
REMARK    4  A    between atoms: C2_4  and  C3_5 
REMARK    5  A    between atoms: C4_6  and  C5_7 
REMARK    6  A    between atoms: C6_8  and  C7_9 
REMARK    7  A    between atoms: C7_9  and  C8_10 
REMARK    8  A    between atoms: C7_9  and  N2_19 
REMARK    9  A    between atoms: C9_11  and  C10_12 
REMARK   10  A    between atoms: N2_19  and  C16_20 
REMARK   11  A    between atoms: C16_20  and  N3_21 
ROOT
HETATM    1  C7  UNL     1      25.016   4.440  50.836  1.00  0.00     0.130 C 
ENDROOT
BRANCH   1   2
HETATM    2  C6  UNL     1      25.990   3.975  49.861  1.00  0.00     0.002 C 
HETATM    3  C5  UNL     1      26.786   4.524  48.964  1.00  0.00    -0.002 C 
BRANCH   3   4
HETATM    4  C4  UNL     1      26.879   5.939  48.709  1.00  0.00     0.000 C 
HETATM    5  C3  UNL     1      28.004   6.478  48.266  1.00  0.00     0.009 C 
BRANCH   5   6
HETATM    6  C2  UNL     1      29.131   5.544  48.056  1.00  0.00     0.065 C 
BRANCH   6   7
HETATM    7  C1  UNL     1      30.269   5.855  48.658  1.00  0.00    -0.061 C 
BRANCH   7   8
HETATM    8  S1  UNL     1      31.676   5.945  49.481  1.00  0.00     0.046 SA
BRANCH   8   9
HETATM    9  N1  UNL     1      31.646   5.490  51.027  1.00  0.00    -0.256 NA
HETATM   10  H1  UNL     1      30.878   4.924  51.407  1.00  0.00     0.197 HD
ENDBRANCH   8   9
ENDBRANCH   7   8
ENDBRANCH   6   7
ENDBRANCH   5   6
ENDBRANCH   3   4
ENDBRANCH   1   2
BRANCH   1  11
HETATM   11  C8  UNL     1      24.214   3.402  51.507  1.00  0.00     0.003 C 
HETATM   12  C9  UNL     1      24.549   2.101  51.494  1.00  0.00     0.010 C 
BRANCH  12  13
HETATM   13  C10 UNL     1      23.769   1.083  52.149  1.00  0.00    -0.036 A 
HETATM   14  C11 UNL     1      22.476   0.781  51.827  1.00  0.00     0.014 A 
HETATM   15  C12 UNL     1      21.707  -0.188  52.438  1.00  0.00     0.043 A 
HETATM   16  C13 UNL     1      22.279  -0.930  53.470  1.00  0.00     0.116 A 
HETATM   17  F1  UNL     1      21.547  -1.884  54.083  1.00  0.00    -0.206 F 
HETATM   18  C14 UNL     1      23.594  -0.637  53.814  1.00  0.00     0.043 A 
HETATM   19  C15 UNL     1      24.311   0.346  53.161  1.00  0.00     0.014 A 
ENDBRANCH  12  13
ENDBRANCH   1  11
BRANCH   1  20
HETATM   20  N2  UNL     1      24.051   5.321  50.159  1.00  0.00    -0.356 N 
HETATM   21  H14 UNL     1      23.744   5.178  49.172  1.00  0.00     0.162 HD
BRANCH  20  22
HETATM   22  C16 UNL     1      23.522   6.422  50.914  1.00  0.00     0.166 C 
HETATM   23  S2  UNL     1      21.989   6.908  50.671  1.00  0.00    -0.041 SA
BRANCH  22  24
HETATM   24  N3  UNL     1      24.381   7.045  51.857  1.00  0.00    -0.376 N 
HETATM   25  H15 UNL     1      25.238   7.374  51.345  1.00  0.00     0.158 HD
HETATM   26  H16 UNL     1      24.999   7.497  52.559  1.00  0.00     0.158 HD
ENDBRANCH  22  24
ENDBRANCH  20  22
ENDBRANCH   1  20
TORSDOF 11
ENDMDL
MODEL 6
REMARK VINA RESULT:      -6.7      1.662      2.080
REMARK  11 active torsions:
REMARK  status: ('A' for Active; 'I' for Inactive)
REMARK    1  A    between atoms: N1_1  and  S1_2 
REMARK    2  A    between atoms: S1_2  and  C1_3 
REMARK    3  A    between atoms: C1_3  and  C2_4 
REMARK    4  A    between atoms: C2_4  and  C3_5 
REMARK    5  A    between atoms: C4_6  and  C5_7 
REMARK    6  A    between atoms: C6_8  and  C7_9 
REMARK    7  A    between atoms: C7_9  and  C8_10 
REMARK    8  A    between atoms: C7_9  and  N2_19 
REMARK    9  A    between atoms: C9_11  and  C10_12 
REMARK   10  A    between atoms: N2_19  and  C16_20 
REMARK   11  A    between atoms: C16_20  and  N3_21 
ROOT
HETATM    1  C7  UNL     1      26.695  -0.006  52.358  1.00  0.00     0.130 C 
ENDROOT
BRANCH   1   2
HETATM    2  C6  UNL     1      27.087   1.393  52.308  1.00  0.00     0.002 C 
HETATM    3  C5  UNL     1      26.656   2.490  51.716  1.00  0.00    -0.002 C 
BRANCH   3   4
HETATM    4  C4  UNL     1      25.511   2.552  50.844  1.00  0.00     0.000 C 
HETATM    5  C3  UNL     1      25.555   3.234  49.709  1.00  0.00     0.009 C 
BRANCH   5   6
HETATM    6  C2  UNL     1      26.835   3.910  49.411  1.00  0.00     0.065 C 
BRANCH   6   7
HETATM    7  C1  UNL     1      26.753   5.177  49.033  1.00  0.00    -0.061 C 
BRANCH   7   8
HETATM    8  S1  UNL     1      26.946   6.707  48.497  1.00  0.00     0.046 SA
BRANCH   8   9
HETATM    9  N1  UNL     1      28.178   7.545  49.114  1.00  0.00    -0.256 NA
HETATM   10  H1  UNL     1      28.566   8.365  48.633  1.00  0.00     0.197 HD
ENDBRANCH   8   9
ENDBRANCH   7   8
ENDBRANCH   6   7
ENDBRANCH   5   6
ENDBRANCH   3   4
ENDBRANCH   1   2
BRANCH   1  11
HETATM   11  C8  UNL     1      25.248  -0.279  52.412  1.00  0.00     0.003 C 
HETATM   12  C9  UNL     1      24.471   0.109  53.437  1.00  0.00     0.010 C 
BRANCH  12  13
HETATM   13  C10 UNL     1      23.057  -0.157  53.494  1.00  0.00    -0.036 A 
HETATM   14  C11 UNL     1      22.118   0.522  52.769  1.00  0.00     0.014 A 
HETATM   15  C12 UNL     1      20.759   0.287  52.806  1.00  0.00     0.043 A 
HETATM   16  C13 UNL     1      20.286  -0.720  53.644  1.00  0.00     0.116 A 
HETATM   17  F1  UNL     1      18.960  -0.968  53.698  1.00  0.00    -0.206 F 
HETATM   18  C14 UNL     1      21.225  -1.422  54.392  1.00  0.00     0.043 A 
HETATM   19  C15 UNL     1      22.574  -1.138  54.309  1.00  0.00     0.014 A 
ENDBRANCH  12  13
ENDBRANCH   1  11
BRANCH   1  20
HETATM   20  N2  UNL     1      27.267  -0.616  53.569  1.00  0.00    -0.356 N 
HETATM   21  H14 UNL     1      26.896  -0.435  54.527  1.00  0.00     0.162 HD
BRANCH  20  22
HETATM   22  C16 UNL     1      28.388  -1.498  53.396  1.00  0.00     0.166 C 
HETATM   23  S2  UNL     1      29.900  -0.931  53.588  1.00  0.00    -0.041 SA
BRANCH  22  24
HETATM   24  N3  UNL     1      28.114  -2.849  53.059  1.00  0.00    -0.376 N 
HETATM   25  H15 UNL     1      28.539  -3.459  53.802  1.00  0.00     0.158 HD
HETATM   26  H16 UNL     1      27.906  -3.833  52.798  1.00  0.00     0.158 HD
ENDBRANCH  22  24
ENDBRANCH  20  22
ENDBRANCH   1  20
TORSDOF 11
ENDMDL
MODEL 7
REMARK VINA RESULT:      -6.7      2.858      3.626
REMARK  11 active torsions:
REMARK  status: ('A' for Active; 'I' for Inactive)
REMARK    1  A    between atoms: N1_1  and  S1_2 
REMARK    2  A    between atoms: S1_2  and  C1_3 
REMARK    3  A    between atoms: C1_3  and  C2_4 
REMARK    4  A    between atoms: C2_4  and  C3_5 
REMARK    5  A    between atoms: C4_6  and  C5_7 
REMARK    6  A    between atoms: C6_8  and  C7_9 
REMARK    7  A    between atoms: C7_9  and  C8_10 
REMARK    8  A    between atoms: C7_9  and  N2_19 
REMARK    9  A    between atoms: C9_11  and  C10_12 
REMARK   10  A    between atoms: N2_19  and  C16_20 
REMARK   11  A    between atoms: C16_20  and  N3_21 
ROOT
HETATM    1  C7  UNL     1      24.991   2.553  51.427  1.00  0.00     0.130 C 
ENDROOT
BRANCH   1   2
HETATM    2  C6  UNL     1      24.821   3.853  50.798  1.00  0.00     0.002 C 
HETATM    3  C5  UNL     1      25.506   4.614  49.966  1.00  0.00    -0.002 C 
BRANCH   3   4
HETATM    4  C4  UNL     1      26.786   4.265  49.405  1.00  0.00     0.000 C 
HETATM    5  C3  UNL     1      27.453   5.120  48.644  1.00  0.00     0.009 C 
BRANCH   5   6
HETATM    6  C2  UNL     1      26.802   6.428  48.420  1.00  0.00     0.065 C 
BRANCH   6   7
HETATM    7  C1  UNL     1      27.493   7.497  48.789  1.00  0.00    -0.061 C 
BRANCH   7   8
HETATM    8  S1  UNL     1      28.078   8.912  49.354  1.00  0.00     0.046 SA
BRANCH   8   9
HETATM    9  N1  UNL     1      27.581   9.374  50.817  1.00  0.00    -0.256 NA
HETATM   10  H1  UNL     1      26.597   9.600  51.004  1.00  0.00     0.197 HD
ENDBRANCH   8   9
ENDBRANCH   7   8
ENDBRANCH   6   7
ENDBRANCH   5   6
ENDBRANCH   3   4
ENDBRANCH   1   2
BRANCH   1  11
HETATM   11  C8  UNL     1      23.763   1.778  51.671  1.00  0.00     0.003 C 
HETATM   12  C9  UNL     1      23.481   1.214  52.858  1.00  0.00     0.010 C 
BRANCH  12  13
HETATM   13  C10 UNL     1      22.282   0.454  53.101  1.00  0.00    -0.036 A 
HETATM   14  C11 UNL     1      21.122   0.602  52.393  1.00  0.00     0.014 A 
HETATM   15  C12 UNL     1      19.962  -0.112  52.606  1.00  0.00     0.043 A 
HETATM   16  C13 UNL     1      19.951  -1.066  53.621  1.00  0.00     0.116 A 
HETATM   17  F1  UNL     1      18.827  -1.778  53.848  1.00  0.00    -0.206 F 
HETATM   18  C14 UNL     1      21.121  -1.231  54.354  1.00  0.00     0.043 A 
HETATM   19  C15 UNL     1      22.252  -0.484  54.090  1.00  0.00     0.014 A 
ENDBRANCH  12  13
ENDBRANCH   1  11
BRANCH   1  20
HETATM   20  N2  UNL     1      25.619   2.742  52.744  1.00  0.00    -0.356 N 
HETATM   21  H14 UNL     1      25.196   3.325  53.498  1.00  0.00     0.162 HD
BRANCH  20  22
HETATM   22  C16 UNL     1      26.874   2.081  52.976  1.00  0.00     0.166 C 
HETATM   23  S2  UNL     1      27.196   0.673  52.230  1.00  0.00    -0.041 SA
BRANCH  22  24
HETATM   24  N3  UNL     1      27.790   2.704  53.863  1.00  0.00    -0.376 N 
HETATM   25  H15 UNL     1      27.769   2.176  54.772  1.00  0.00     0.158 HD
HETATM   26  H16 UNL     1      28.463   3.172  54.501  1.00  0.00     0.158 HD
ENDBRANCH  22  24
ENDBRANCH  20  22
ENDBRANCH   1  20
TORSDOF 11
ENDMDL
MODEL 8
REMARK VINA RESULT:      -6.7      3.982      6.101
REMARK  11 active torsions:
REMARK  status: ('A' for Active; 'I' for Inactive)
REMARK    1  A    between atoms: N1_1  and  S1_2 
REMARK    2  A    between atoms: S1_2  and  C1_3 
REMARK    3  A    between atoms: C1_3  and  C2_4 
REMARK    4  A    between atoms: C2_4  and  C3_5 
REMARK    5  A    between atoms: C4_6  and  C5_7 
REMARK    6  A    between atoms: C6_8  and  C7_9 
REMARK    7  A    between atoms: C7_9  and  C8_10 
REMARK    8  A    between atoms: C7_9  and  N2_19 
REMARK    9  A    between atoms: C9_11  and  C10_12 
REMARK   10  A    between atoms: N2_19  and  C16_20 
REMARK   11  A    between atoms: C16_20  and  N3_21 
ROOT
HETATM    1  C7  UNL     1      22.917   0.577  52.984  1.00  0.00     0.130 C 
ENDROOT
BRANCH   1   2
HETATM    2  C6  UNL     1      22.763   0.992  51.600  1.00  0.00     0.002 C 
HETATM    3  C5  UNL     1      22.820   2.124  50.926  1.00  0.00    -0.002 C 
BRANCH   3   4
HETATM    4  C4  UNL     1      23.092   3.412  51.512  1.00  0.00     0.000 C 
HETATM    5  C3  UNL     1      24.254   4.018  51.316  1.00  0.00     0.009 C 
BRANCH   5   6
HETATM    6  C2  UNL     1      25.227   3.293  50.472  1.00  0.00     0.065 C 
BRANCH   6   7
HETATM    7  C1  UNL     1      26.056   4.042  49.760  1.00  0.00    -0.061 C 
BRANCH   7   8
HETATM    8  S1  UNL     1      26.867   5.181  48.919  1.00  0.00     0.046 SA
BRANCH   8   9
HETATM    9  N1  UNL     1      28.478   5.108  48.958  1.00  0.00    -0.256 NA
HETATM   10  H1  UNL     1      28.977   4.213  48.893  1.00  0.00     0.197 HD
ENDBRANCH   8   9
ENDBRANCH   7   8
ENDBRANCH   6   7
ENDBRANCH   5   6
ENDBRANCH   3   4
ENDBRANCH   1   2
BRANCH   1  11
HETATM   11  C8  UNL     1      24.263   0.138  53.391  1.00  0.00     0.003 C 
HETATM   12  C9  UNL     1      25.354   0.333  52.631  1.00  0.00     0.010 C 
BRANCH  12  13
HETATM   13  C10 UNL     1      26.672  -0.094  53.024  1.00  0.00    -0.036 A 
HETATM   14  C11 UNL     1      27.207  -1.314  52.718  1.00  0.00     0.014 A 
HETATM   15  C12 UNL     1      28.465  -1.747  53.083  1.00  0.00     0.043 A 
HETATM   16  C13 UNL     1      29.270  -0.885  53.823  1.00  0.00     0.116 A 
HETATM   17  F1  UNL     1      30.505  -1.286  54.191  1.00  0.00    -0.206 F 
HETATM   18  C14 UNL     1      28.744   0.361  54.145  1.00  0.00     0.043 A 
HETATM   19  C15 UNL     1      27.475   0.736  53.749  1.00  0.00     0.014 A 
ENDBRANCH  12  13
ENDBRANCH   1  11
BRANCH   1  20
HETATM   20  N2  UNL     1      22.025  -0.566  53.239  1.00  0.00    -0.356 N 
HETATM   21  H14 UNL     1      22.269  -1.547  52.982  1.00  0.00     0.162 HD
BRANCH  20  22
HETATM   22  C16 UNL     1      20.765  -0.290  53.872  1.00  0.00     0.166 C 
HETATM   23  S2  UNL     1      19.380  -0.519  53.052  1.00  0.00    -0.041 SA
BRANCH  22  24
HETATM   24  N3  UNL     1      20.792   0.179  55.212  1.00  0.00    -0.376 N 
HETATM   25  H15 UNL     1      19.990  -0.266  55.726  1.00  0.00     0.158 HD
HETATM   26  H16 UNL     1      20.826   0.532  56.188  1.00  0.00     0.158 HD
ENDBRANCH  22  24
ENDBRANCH  20  22
ENDBRANCH   1  20
TORSDOF 11
ENDMDL
MODEL 9
REMARK VINA RESULT:      -6.5      4.127      7.275
REMARK  11 active torsions:
REMARK  status: ('A' for Active; 'I' for Inactive)
REMARK    1  A    between atoms: N1_1  and  S1_2 
REMARK    2  A    between atoms: S1_2  and  C1_3 
REMARK    3  A    between atoms: C1_3  and  C2_4 
REMARK    4  A    between atoms: C2_4  and  C3_5 
REMARK    5  A    between atoms: C4_6  and  C5_7 
REMARK    6  A    between atoms: C6_8  and  C7_9 
REMARK    7  A    between atoms: C7_9  and  C8_10 
REMARK    8  A    between atoms: C7_9  and  N2_19 
REMARK    9  A    between atoms: C9_11  and  C10_12 
REMARK   10  A    between atoms: N2_19  and  C16_20 
REMARK   11  A    between atoms: C16_20  and  N3_21 
ROOT
HETATM    1  C7  UNL     1      24.522   2.527  51.775  1.00  0.00     0.130 C 
ENDROOT
BRANCH   1   2
HETATM    2  C6  UNL     1      23.348   2.378  52.620  1.00  0.00     0.002 C 
HETATM    3  C5  UNL     1      22.638   1.379  53.108  1.00  0.00    -0.002 C 
BRANCH   3   4
HETATM    4  C4  UNL     1      22.916  -0.015  52.870  1.00  0.00     0.000 C 
HETATM    5  C3  UNL     1      22.099  -0.958  53.314  1.00  0.00     0.009 C 
BRANCH   5   6
HETATM    6  C2  UNL     1      20.909  -0.486  54.054  1.00  0.00     0.065 C 
BRANCH   6   7
HETATM    7  C1  UNL     1      19.757  -0.537  53.402  1.00  0.00    -0.061 C 
BRANCH   7   8
HETATM    8  S1  UNL     1      18.268  -0.821  52.796  1.00  0.00     0.046 SA
BRANCH   8   9
HETATM    9  N1  UNL     1      17.132  -1.284  53.842  1.00  0.00    -0.256 NA
HETATM   10  H1  UNL     1      16.308  -0.703  54.034  1.00  0.00     0.197 HD
ENDBRANCH   8   9
ENDBRANCH   7   8
ENDBRANCH   6   7
ENDBRANCH   5   6
ENDBRANCH   3   4
ENDBRANCH   1   2
BRANCH   1  11
HETATM   11  C8  UNL     1      25.783   1.980  52.303  1.00  0.00     0.003 C 
HETATM   12  C9  UNL     1      26.112   0.681  52.202  1.00  0.00     0.010 C 
BRANCH  12  13
HETATM   13  C10 UNL     1      27.344   0.141  52.717  1.00  0.00    -0.036 A 
HETATM   14  C11 UNL     1      28.375   0.900  53.195  1.00  0.00     0.014 A 
HETATM   15  C12 UNL     1      29.563   0.408  53.693  1.00  0.00     0.043 A 
HETATM   16  C13 UNL     1      29.747  -0.972  53.720  1.00  0.00     0.116 A 
HETATM   17  F1  UNL     1      30.901  -1.478  54.202  1.00  0.00    -0.206 F 
HETATM   18  C14 UNL     1      28.710  -1.763  53.236  1.00  0.00     0.043 A 
HETATM   19  C15 UNL     1      27.542  -1.208  52.751  1.00  0.00     0.014 A 
ENDBRANCH  12  13
ENDBRANCH   1  11
BRANCH   1  20
HETATM   20  N2  UNL     1      24.765   3.961  51.551  1.00  0.00    -0.356 N 
HETATM   21  H14 UNL     1      25.648   4.331  51.135  1.00  0.00     0.162 HD
BRANCH  20  22
HETATM   22  C16 UNL     1      23.723   4.874  51.932  1.00  0.00     0.166 C 
HETATM   23  S2  UNL     1      22.519   5.207  50.891  1.00  0.00    -0.041 SA
BRANCH  22  24
HETATM   24  N3  UNL     1      23.796   5.450  53.227  1.00  0.00    -0.376 N 
HETATM   25  H15 UNL     1      23.969   4.676  53.916  1.00  0.00     0.158 HD
HETATM   26  H16 UNL     1      23.846   5.888  54.168  1.00  0.00     0.158 HD
ENDBRANCH  22  24
ENDBRANCH  20  22
ENDBRANCH   1  20
TORSDOF 11
ENDMDL
