MODEL 1
REMARK VINA RESULT:      -9.5      0.000      0.000
REMARK  4 active torsions:
REMARK  status: ('A' for Active; 'I' for Inactive)
REMARK    1  A    between atoms: C7_7  and  C8_8 
REMARK    2  A    between atoms: C17_21  and  C18_22 
REMARK    3  A    between atoms: C18_22  and  O3_23 
REMARK    4  A    between atoms: O3_23  and  C19_24 
ROOT
HETATM    1  C1  UNL     1      19.797   0.093  53.714  1.00  0.00     0.013 C 
HETATM    2  C2  UNL     1      19.314  -0.033  52.615  1.00  0.00    -0.071 C 
HETATM    3  C3  UNL     1      18.760  -0.165  51.303  1.00  0.00     0.049 A 
HETATM    4  C4  UNL     1      19.835   0.755  51.588  1.00  0.00     0.003 A 
HETATM    5  C5  UNL     1      20.723   1.628  51.149  1.00  0.00     0.036 A 
HETATM    6  C6  UNL     1      21.587   2.492  50.643  1.00  0.00     0.012 A 
HETATM    7  C7  UNL     1      20.560   1.703  49.944  1.00  0.00     0.009 A 
HETATM    8  C8  UNL     1      19.508   0.688  50.327  1.00  0.00     0.015 A 
HETATM    9  C9  UNL     1      22.045   2.652  52.101  1.00  0.00     0.189 C 
HETATM   10  O1  UNL     1      22.912   3.788  52.046  1.00  0.00    -0.376 OA
HETATM   11  C10 UNL     1      23.519   3.764  50.780  1.00  0.00     0.195 C 
HETATM   12  C11 UNL     1      24.070   2.345  50.700  1.00  0.00     0.201 C 
HETATM   13  O2  UNL     1      23.878   1.663  51.889  1.00  0.00    -0.350 OA
HETATM   14  C12 UNL     1      22.757   1.497  52.659  1.00  0.00     0.092 C 
HETATM   15  C13 UNL     1      22.592   0.533  53.545  1.00  0.00     0.071 A 
HETATM   16  C14 UNL     1      21.671   0.088  54.417  1.00  0.00     0.151 A 
HETATM   17  N1  UNL     1      21.861  -0.943  55.256  1.00  0.00    -0.223 NA
HETATM   18  C15 UNL     1      22.992  -1.668  55.336  1.00  0.00     0.236 A 
HETATM   19  N2  UNL     1      23.949  -1.289  54.503  1.00  0.00    -0.241 NA
HETATM   20  C16 UNL     1      23.748  -0.261  53.673  1.00  0.00     0.073 A 
HETATM   21  C17 UNL     1      24.901  -0.118  52.960  1.00  0.00     0.032 C 
HETATM   22  N3  UNL     1      20.342   0.245  54.906  1.00  0.00    -0.299 N 
HETATM   23  H23 UNL     1      19.382   0.338  55.132  1.00  0.00     0.178 HD
ENDROOT
BRANCH  21  24
HETATM   24  C18 UNL     1      26.126  -0.993  53.127  1.00  0.00     0.198 C 
BRANCH  24  25
HETATM   25  O3  UNL     1      27.069  -0.607  52.210  1.00  0.00    -0.382 OA
BRANCH  25  26
HETATM   26  C19 UNL     1      27.990   0.326  52.655  1.00  0.00     0.125 C 
HETATM   27  C20 UNL     1      28.267   0.138  54.159  1.00  0.00     0.058 C 
HETATM   28  C21 UNL     1      29.281   1.190  54.553  1.00  0.00     0.170 C 
HETATM   29  O4  UNL     1      28.912   2.484  54.240  1.00  0.00    -0.391 OA
HETATM   30  C22 UNL     1      27.637   2.568  53.725  1.00  0.00     0.170 C 
HETATM   31  C23 UNL     1      27.498   1.736  52.483  1.00  0.00     0.058 C 
ENDBRANCH  25  26
ENDBRANCH  24  25
ENDBRANCH  21  24
TORSDOF 4
ENDMDL
MODEL 2
REMARK VINA RESULT:      -9.0      1.934      3.030
REMARK  4 active torsions:
REMARK  status: ('A' for Active; 'I' for Inactive)
REMARK    1  A    between atoms: C7_7  and  C8_8 
REMARK    2  A    between atoms: C17_21  and  C18_22 
REMARK    3  A    between atoms: C18_22  and  O3_23 
REMARK    4  A    between atoms: O3_23  and  C19_24 
ROOT
HETATM    1  C1  UNL     1      21.079   0.775  50.283  1.00  0.00     0.013 C 
HETATM    2  C2  UNL     1      21.459   0.990  49.157  1.00  0.00    -0.071 C 
HETATM    3  C3  UNL     1      21.918   1.268  47.831  1.00  0.00     0.049 A 
HETATM    4  C4  UNL     1      21.988   2.252  48.885  1.00  0.00     0.003 A 
HETATM    5  C5  UNL     1      22.377   3.447  49.293  1.00  0.00     0.036 A 
HETATM    6  C6  UNL     1      22.792   4.654  49.636  1.00  0.00     0.012 A 
HETATM    7  C7  UNL     1      22.923   3.971  48.340  1.00  0.00     0.009 A 
HETATM    8  C8  UNL     1      22.533   2.631  47.762  1.00  0.00     0.015 A 
HETATM    9  C9  UNL     1      22.174   4.310  51.001  1.00  0.00     0.189 C 
HETATM   10  O1  UNL     1      22.196   5.562  51.692  1.00  0.00    -0.376 OA
HETATM   11  C10 UNL     1      23.326   6.252  51.227  1.00  0.00     0.195 C 
HETATM   12  C11 UNL     1      24.441   5.230  51.408  1.00  0.00     0.201 C 
HETATM   13  O2  UNL     1      23.979   4.087  52.036  1.00  0.00    -0.350 OA
HETATM   14  C12 UNL     1      22.895   3.291  51.772  1.00  0.00     0.092 C 
HETATM   15  C13 UNL     1      22.765   2.042  52.176  1.00  0.00     0.071 A 
HETATM   16  C14 UNL     1      21.893   1.024  52.095  1.00  0.00     0.151 A 
HETATM   17  N1  UNL     1      22.053  -0.160  52.709  1.00  0.00    -0.223 NA
HETATM   18  C15 UNL     1      23.105  -0.485  53.485  1.00  0.00     0.236 A 
HETATM   19  N2  UNL     1      24.011   0.472  53.612  1.00  0.00    -0.241 NA
HETATM   20  C16 UNL     1      23.840   1.645  52.996  1.00  0.00     0.073 A 
HETATM   21  C17 UNL     1      24.923   2.407  53.321  1.00  0.00     0.032 C 
HETATM   22  N3  UNL     1      20.673   0.563  51.520  1.00  0.00    -0.299 N 
HETATM   23  H23 UNL     1      19.875   0.266  51.014  1.00  0.00     0.178 HD
ENDROOT
BRANCH  21  24
HETATM   24  C18 UNL     1      26.061   1.943  54.208  1.00  0.00     0.198 C 
BRANCH  24  25
HETATM   25  O3  UNL     1      27.086   1.503  53.410  1.00  0.00    -0.382 OA
BRANCH  25  26
HETATM   26  C19 UNL     1      27.727   0.353  53.840  1.00  0.00     0.125 C 
HETATM   27  C20 UNL     1      29.174   0.310  53.312  1.00  0.00     0.058 C 
HETATM   28  C21 UNL     1      29.793  -0.969  53.832  1.00  0.00     0.170 C 
HETATM   29  O4  UNL     1      29.082  -2.113  53.524  1.00  0.00    -0.391 OA
HETATM   30  C22 UNL     1      28.001  -1.869  52.707  1.00  0.00     0.170 C 
HETATM   31  C23 UNL     1      27.051  -0.893  53.340  1.00  0.00     0.058 C 
ENDBRANCH  25  26
ENDBRANCH  24  25
ENDBRANCH  21  24
TORSDOF 4
ENDMDL
MODEL 3
REMARK VINA RESULT:      -9.0      4.065      5.965
REMARK  4 active torsions:
REMARK  status: ('A' for Active; 'I' for Inactive)
REMARK    1  A    between atoms: C7_7  and  C8_8 
REMARK    2  A    between atoms: C17_21  and  C18_22 
REMARK    3  A    between atoms: C18_22  and  O3_23 
REMARK    4  A    between atoms: O3_23  and  C19_24 
ROOT
HETATM    1  C1  UNL     1      21.870   6.776  50.075  1.00  0.00     0.013 C 
HETATM    2  C2  UNL     1      21.708   6.895  48.884  1.00  0.00    -0.071 C 
HETATM    3  C3  UNL     1      21.542   7.040  47.471  1.00  0.00     0.049 A 
HETATM    4  C4  UNL     1      22.825   7.210  48.111  1.00  0.00     0.003 A 
HETATM    5  C5  UNL     1      24.125   7.415  48.000  1.00  0.00     0.036 A 
HETATM    6  C6  UNL     1      25.418   7.622  47.819  1.00  0.00     0.012 A 
HETATM    7  C7  UNL     1      24.354   7.516  46.809  1.00  0.00     0.009 A 
HETATM    8  C8  UNL     1      22.861   7.283  46.809  1.00  0.00     0.015 A 
HETATM    9  C9  UNL     1      25.485   7.561  49.354  1.00  0.00     0.189 C 
HETATM   10  O1  UNL     1      26.812   8.012  49.638  1.00  0.00    -0.376 OA
HETATM   11  C10 UNL     1      27.612   7.597  48.563  1.00  0.00     0.195 C 
HETATM   12  C11 UNL     1      27.289   6.111  48.458  1.00  0.00     0.201 C 
HETATM   13  O2  UNL     1      26.448   5.706  49.480  1.00  0.00    -0.350 OA
HETATM   14  C12 UNL     1      25.265   6.231  49.933  1.00  0.00     0.092 C 
HETATM   15  C13 UNL     1      24.370   5.565  50.638  1.00  0.00     0.071 A 
HETATM   16  C14 UNL     1      23.167   5.752  51.205  1.00  0.00     0.151 A 
HETATM   17  N1  UNL     1      22.528   4.829  51.942  1.00  0.00    -0.223 NA
HETATM   18  C15 UNL     1      23.004   3.598  52.211  1.00  0.00     0.236 A 
HETATM   19  N2  UNL     1      24.189   3.339  51.682  1.00  0.00    -0.241 NA
HETATM   20  C16 UNL     1      24.815   4.265  50.951  1.00  0.00     0.073 A 
HETATM   21  C17 UNL     1      25.995   3.707  50.558  1.00  0.00     0.032 C 
HETATM   22  N3  UNL     1      22.072   6.648  51.373  1.00  0.00    -0.299 N 
HETATM   23  H23 UNL     1      21.303   7.273  51.369  1.00  0.00     0.178 HD
ENDROOT
BRANCH  21  24
HETATM   24  C18 UNL     1      26.438   2.303  50.916  1.00  0.00     0.198 C 
BRANCH  24  25
HETATM   25  O3  UNL     1      27.474   2.386  51.811  1.00  0.00    -0.382 OA
BRANCH  25  26
HETATM   26  C19 UNL     1      27.400   1.526  52.894  1.00  0.00     0.125 C 
HETATM   27  C20 UNL     1      28.798   1.292  53.497  1.00  0.00     0.058 C 
HETATM   28  C21 UNL     1      28.618   0.350  54.668  1.00  0.00     0.170 C 
HETATM   29  O4  UNL     1      27.970  -0.829  54.357  1.00  0.00    -0.391 OA
HETATM   30  C22 UNL     1      27.711  -0.960  53.011  1.00  0.00     0.170 C 
HETATM   31  C23 UNL     1      26.867   0.174  52.508  1.00  0.00     0.058 C 
ENDBRANCH  25  26
ENDBRANCH  24  25
ENDBRANCH  21  24
TORSDOF 4
ENDMDL
MODEL 4
REMARK VINA RESULT:      -9.0      1.527      2.399
REMARK  4 active torsions:
REMARK  status: ('A' for Active; 'I' for Inactive)
REMARK    1  A    between atoms: C7_7  and  C8_8 
REMARK    2  A    between atoms: C17_21  and  C18_22 
REMARK    3  A    between atoms: C18_22  and  O3_23 
REMARK    4  A    between atoms: O3_23  and  C19_24 
ROOT
HETATM    1  C1  UNL     1      19.755   2.407  51.012  1.00  0.00     0.013 C 
HETATM    2  C2  UNL     1      19.861   2.226  49.822  1.00  0.00    -0.071 C 
HETATM    3  C3  UNL     1      20.012   2.021  48.415  1.00  0.00     0.049 A 
HETATM    4  C4  UNL     1      21.037   2.657  49.207  1.00  0.00     0.003 A 
HETATM    5  C5  UNL     1      22.251   3.172  49.284  1.00  0.00     0.036 A 
HETATM    6  C6  UNL     1      23.474   3.673  49.290  1.00  0.00     0.012 A 
HETATM    7  C7  UNL     1      22.732   3.078  48.169  1.00  0.00     0.009 A 
HETATM    8  C8  UNL     1      21.368   2.461  47.961  1.00  0.00     0.015 A 
HETATM    9  C9  UNL     1      23.184   3.956  50.773  1.00  0.00     0.189 C 
HETATM   10  O1  UNL     1      24.275   4.793  51.164  1.00  0.00    -0.376 OA
HETATM   11  C10 UNL     1      25.380   4.389  50.398  1.00  0.00     0.195 C 
HETATM   12  C11 UNL     1      25.417   2.884  50.630  1.00  0.00     0.201 C 
HETATM   13  O2  UNL     1      24.462   2.494  51.554  1.00  0.00    -0.350 OA
HETATM   14  C12 UNL     1      23.122   2.768  51.632  1.00  0.00     0.092 C 
HETATM   15  C13 UNL     1      22.248   2.052  52.314  1.00  0.00     0.071 A 
HETATM   16  C14 UNL     1      20.933   2.027  52.585  1.00  0.00     0.151 A 
HETATM   17  N1  UNL     1      20.349   1.144  53.412  1.00  0.00    -0.223 NA
HETATM   18  C15 UNL     1      20.998   0.169  54.076  1.00  0.00     0.236 A 
HETATM   19  N2  UNL     1      22.303   0.130  53.856  1.00  0.00    -0.241 NA
HETATM   20  C16 UNL     1      22.873   1.013  53.032  1.00  0.00     0.073 A 
HETATM   21  C17 UNL     1      24.203   0.719  53.019  1.00  0.00     0.032 C 
HETATM   22  N3  UNL     1      19.663   2.614  52.311  1.00  0.00    -0.299 N 
HETATM   23  H23 UNL     1      18.802   2.996  52.006  1.00  0.00     0.178 HD
ENDROOT
BRANCH  21  24
HETATM   24  C18 UNL     1      24.839  -0.408  53.808  1.00  0.00     0.198 C 
BRANCH  24  25
HETATM   25  O3  UNL     1      25.820  -0.981  53.039  1.00  0.00    -0.382 OA
BRANCH  25  26
HETATM   26  C19 UNL     1      27.111  -0.550  53.299  1.00  0.00     0.125 C 
HETATM   27  C20 UNL     1      27.226  -0.025  54.742  1.00  0.00     0.058 C 
HETATM   28  C21 UNL     1      28.661   0.415  54.935  1.00  0.00     0.170 C 
HETATM   29  O4  UNL     1      29.107   1.330  54.000  1.00  0.00    -0.391 OA
HETATM   30  C22 UNL     1      28.116   1.742  53.138  1.00  0.00     0.170 C 
HETATM   31  C23 UNL     1      27.523   0.579  52.397  1.00  0.00     0.058 C 
ENDBRANCH  25  26
ENDBRANCH  24  25
ENDBRANCH  21  24
TORSDOF 4
ENDMDL
MODEL 5
REMARK VINA RESULT:      -8.9      2.579      6.019
REMARK  4 active torsions:
REMARK  status: ('A' for Active; 'I' for Inactive)
REMARK    1  A    between atoms: C7_7  and  C8_8 
REMARK    2  A    between atoms: C17_21  and  C18_22 
REMARK    3  A    between atoms: C18_22  and  O3_23 
REMARK    4  A    between atoms: O3_23  and  C19_24 
ROOT
HETATM    1  C1  UNL     1      21.501  -0.442  52.450  1.00  0.00     0.013 C 
HETATM    2  C2  UNL     1      21.711  -0.832  53.573  1.00  0.00    -0.071 C 
HETATM    3  C3  UNL     1      21.986  -1.286  54.901  1.00  0.00     0.049 A 
HETATM    4  C4  UNL     1      23.029  -0.795  54.031  1.00  0.00     0.003 A 
HETATM    5  C5  UNL     1      24.295  -0.463  53.860  1.00  0.00     0.036 A 
HETATM    6  C6  UNL     1      25.575  -0.150  53.756  1.00  0.00     0.012 A 
HETATM    7  C7  UNL     1      24.851  -0.676  54.923  1.00  0.00     0.009 A 
HETATM    8  C8  UNL     1      23.430  -1.081  55.239  1.00  0.00     0.015 A 
HETATM    9  C9  UNL     1      25.210   0.212  52.307  1.00  0.00     0.189 C 
HETATM   10  O1  UNL     1      26.485   0.406  51.690  1.00  0.00    -0.376 OA
HETATM   11  C10 UNL     1      27.336   0.910  52.685  1.00  0.00     0.195 C 
HETATM   12  C11 UNL     1      26.541   2.085  53.242  1.00  0.00     0.201 C 
HETATM   13  O2  UNL     1      25.374   2.287  52.526  1.00  0.00    -0.350 OA
HETATM   14  C12 UNL     1      24.384   1.414  52.156  1.00  0.00     0.092 C 
HETATM   15  C13 UNL     1      23.158   1.769  51.820  1.00  0.00     0.071 A 
HETATM   16  C14 UNL     1      21.998   1.211  51.436  1.00  0.00     0.151 A 
HETATM   17  N1  UNL     1      20.901   1.907  51.096  1.00  0.00    -0.223 NA
HETATM   18  C15 UNL     1      20.815   3.250  51.094  1.00  0.00     0.236 A 
HETATM   19  N2  UNL     1      21.923   3.873  51.464  1.00  0.00    -0.241 NA
HETATM   20  C16 UNL     1      23.008   3.170  51.800  1.00  0.00     0.073 A 
HETATM   21  C17 UNL     1      23.968   4.083  52.123  1.00  0.00     0.032 C 
HETATM   22  N3  UNL     1      21.294  -0.009  51.221  1.00  0.00    -0.299 N 
HETATM   23  H23 UNL     1      20.831  -0.884  51.185  1.00  0.00     0.178 HD
ENDROOT
BRANCH  21  24
HETATM   24  C18 UNL     1      23.767   5.584  52.089  1.00  0.00     0.198 C 
BRANCH  24  25
HETATM   25  O3  UNL     1      24.553   6.108  51.094  1.00  0.00    -0.382 OA
BRANCH  25  26
HETATM   26  C19 UNL     1      23.880   6.807  50.106  1.00  0.00     0.125 C 
HETATM   27  C20 UNL     1      22.565   7.392  50.656  1.00  0.00     0.058 C 
HETATM   28  C21 UNL     1      21.906   8.137  49.516  1.00  0.00     0.170 C 
HETATM   29  O4  UNL     1      21.714   7.381  48.376  1.00  0.00    -0.391 OA
HETATM   30  C22 UNL     1      22.066   6.060  48.543  1.00  0.00     0.170 C 
HETATM   31  C23 UNL     1      23.506   5.929  48.945  1.00  0.00     0.058 C 
ENDBRANCH  25  26
ENDBRANCH  24  25
ENDBRANCH  21  24
TORSDOF 4
ENDMDL
MODEL 6
REMARK VINA RESULT:      -8.8      3.578      7.617
REMARK  4 active torsions:
REMARK  status: ('A' for Active; 'I' for Inactive)
REMARK    1  A    between atoms: C7_7  and  C8_8 
REMARK    2  A    between atoms: C17_21  and  C18_22 
REMARK    3  A    between atoms: C18_22  and  O3_23 
REMARK    4  A    between atoms: O3_23  and  C19_24 
ROOT
HETATM    1  C1  UNL     1      25.082   6.698  50.465  1.00  0.00     0.013 C 
HETATM    2  C2  UNL     1      25.813   6.134  49.687  1.00  0.00    -0.071 C 
HETATM    3  C3  UNL     1      26.673   5.442  48.778  1.00  0.00     0.049 A 
HETATM    4  C4  UNL     1      26.061   4.778  49.904  1.00  0.00     0.003 A 
HETATM    5  C5  UNL     1      25.834   3.661  50.571  1.00  0.00     0.036 A 
HETATM    6  C6  UNL     1      25.648   2.509  51.192  1.00  0.00     0.012 A 
HETATM    7  C7  UNL     1      26.417   2.779  49.968  1.00  0.00     0.009 A 
HETATM    8  C8  UNL     1      26.741   3.987  49.120  1.00  0.00     0.015 A 
HETATM    9  C9  UNL     1      24.828   3.352  52.182  1.00  0.00     0.189 C 
HETATM   10  O1  UNL     1      24.599   2.447  53.266  1.00  0.00    -0.376 OA
HETATM   11  C10 UNL     1      24.515   1.165  52.702  1.00  0.00     0.195 C 
HETATM   12  C11 UNL     1      23.482   1.351  51.597  1.00  0.00     0.201 C 
HETATM   13  O2  UNL     1      22.947   2.627  51.619  1.00  0.00    -0.350 OA
HETATM   14  C12 UNL     1      23.552   3.856  51.662  1.00  0.00     0.092 C 
HETATM   15  C13 UNL     1      22.980   4.988  51.298  1.00  0.00     0.071 A 
HETATM   16  C14 UNL     1      23.265   6.297  51.205  1.00  0.00     0.151 A 
HETATM   17  N1  UNL     1      22.383   7.238  50.831  1.00  0.00    -0.223 NA
HETATM   18  C15 UNL     1      21.100   6.998  50.500  1.00  0.00     0.236 A 
HETATM   19  N2  UNL     1      20.744   5.724  50.566  1.00  0.00    -0.241 NA
HETATM   20  C16 UNL     1      21.631   4.798  50.940  1.00  0.00     0.073 A 
HETATM   21  C17 UNL     1      20.970   3.606  50.914  1.00  0.00     0.032 C 
HETATM   22  N3  UNL     1      24.278   7.292  51.326  1.00  0.00    -0.299 N 
HETATM   23  H23 UNL     1      25.045   7.920  51.331  1.00  0.00     0.178 HD
ENDROOT
BRANCH  21  24
HETATM   24  C18 UNL     1      19.515   3.442  50.522  1.00  0.00     0.198 C 
BRANCH  24  25
HETATM   25  O3  UNL     1      19.245   2.104  50.391  1.00  0.00    -0.382 OA
BRANCH  25  26
HETATM   26  C19 UNL     1      18.982   1.429  51.572  1.00  0.00     0.125 C 
HETATM   27  C20 UNL     1      19.965   0.257  51.756  1.00  0.00     0.058 C 
HETATM   28  C21 UNL     1      19.606  -0.414  53.065  1.00  0.00     0.170 C 
HETATM   29  O4  UNL     1      18.285  -0.809  53.159  1.00  0.00    -0.391 OA
HETATM   30  C22 UNL     1      17.580  -0.608  51.994  1.00  0.00     0.170 C 
HETATM   31  C23 UNL     1      17.600   0.837  51.589  1.00  0.00     0.058 C 
ENDBRANCH  25  26
ENDBRANCH  24  25
ENDBRANCH  21  24
TORSDOF 4
ENDMDL
MODEL 7
REMARK VINA RESULT:      -8.6      4.076      6.093
REMARK  4 active torsions:
REMARK  status: ('A' for Active; 'I' for Inactive)
REMARK    1  A    between atoms: C7_7  and  C8_8 
REMARK    2  A    between atoms: C17_21  and  C18_22 
REMARK    3  A    between atoms: C18_22  and  O3_23 
REMARK    4  A    between atoms: O3_23  and  C19_24 
ROOT
HETATM    1  C1  UNL     1      21.204   1.037  49.379  1.00  0.00     0.013 C 
HETATM    2  C2  UNL     1      20.535   0.782  50.352  1.00  0.00    -0.071 C 
HETATM    3  C3  UNL     1      19.765   0.484  51.519  1.00  0.00     0.049 A 
HETATM    4  C4  UNL     1      21.196   0.665  51.575  1.00  0.00     0.003 A 
HETATM    5  C5  UNL     1      22.297   0.754  52.299  1.00  0.00     0.036 A 
HETATM    6  C6  UNL     1      23.360   0.831  53.081  1.00  0.00     0.012 A 
HETATM    7  C7  UNL     1      21.956   0.606  53.458  1.00  0.00     0.009 A 
HETATM    8  C8  UNL     1      20.632   0.492  52.739  1.00  0.00     0.015 A 
HETATM    9  C9  UNL     1      24.123   1.037  51.763  1.00  0.00     0.189 C 
HETATM   10  O1  UNL     1      25.492   0.927  52.161  1.00  0.00    -0.376 OA
HETATM   11  C10 UNL     1      25.566   1.420  53.473  1.00  0.00     0.195 C 
HETATM   12  C11 UNL     1      24.885   2.778  53.359  1.00  0.00     0.201 C 
HETATM   13  O2  UNL     1      24.553   3.066  52.047  1.00  0.00    -0.350 OA
HETATM   14  C12 UNL     1      23.888   2.327  51.104  1.00  0.00     0.092 C 
HETATM   15  C13 UNL     1      23.300   2.829  50.035  1.00  0.00     0.071 A 
HETATM   16  C14 UNL     1      22.590   2.422  48.970  1.00  0.00     0.151 A 
HETATM   17  N1  UNL     1      22.172   3.235  47.985  1.00  0.00    -0.223 NA
HETATM   18  C15 UNL     1      22.405   4.559  47.934  1.00  0.00     0.236 A 
HETATM   19  N2  UNL     1      23.101   5.036  48.955  1.00  0.00    -0.241 NA
HETATM   20  C16 UNL     1      23.512   4.218  49.927  1.00  0.00     0.073 A 
HETATM   21  C17 UNL     1      24.194   4.995  50.815  1.00  0.00     0.032 C 
HETATM   22  N3  UNL     1      21.954   1.318  48.331  1.00  0.00    -0.299 N 
HETATM   23  H23 UNL     1      21.451   0.536  47.989  1.00  0.00     0.178 HD
ENDROOT
BRANCH  21  24
HETATM   24  C18 UNL     1      24.401   6.488  50.664  1.00  0.00     0.198 C 
BRANCH  24  25
HETATM   25  O3  UNL     1      25.737   6.727  50.463  1.00  0.00    -0.382 OA
BRANCH  25  26
HETATM   26  C19 UNL     1      26.037   7.676  49.500  1.00  0.00     0.125 C 
HETATM   27  C20 UNL     1      26.814   7.036  48.334  1.00  0.00     0.058 C 
HETATM   28  C21 UNL     1      27.093   8.139  47.336  1.00  0.00     0.170 C 
HETATM   29  O4  UNL     1      27.741   9.238  47.866  1.00  0.00    -0.391 OA
HETATM   30  C22 UNL     1      28.102   9.063  49.183  1.00  0.00     0.170 C 
HETATM   31  C23 UNL     1      26.905   8.777  50.042  1.00  0.00     0.058 C 
ENDBRANCH  25  26
ENDBRANCH  24  25
ENDBRANCH  21  24
TORSDOF 4
ENDMDL
MODEL 8
REMARK VINA RESULT:      -8.6      3.641      6.676
REMARK  4 active torsions:
REMARK  status: ('A' for Active; 'I' for Inactive)
REMARK    1  A    between atoms: C7_7  and  C8_8 
REMARK    2  A    between atoms: C17_21  and  C18_22 
REMARK    3  A    between atoms: C18_22  and  O3_23 
REMARK    4  A    between atoms: O3_23  and  C19_24 
ROOT
HETATM    1  C1  UNL     1      26.137   6.085  49.627  1.00  0.00     0.013 C 
HETATM    2  C2  UNL     1      25.523   7.070  49.960  1.00  0.00    -0.071 C 
HETATM    3  C3  UNL     1      24.774   8.226  50.343  1.00  0.00     0.049 A 
HETATM    4  C4  UNL     1      24.202   7.183  49.526  1.00  0.00     0.003 A 
HETATM    5  C5  UNL     1      23.148   6.677  48.912  1.00  0.00     0.036 A 
HETATM    6  C6  UNL     1      22.055   6.227  48.320  1.00  0.00     0.012 A 
HETATM    7  C7  UNL     1      22.229   7.450  49.119  1.00  0.00     0.009 A 
HETATM    8  C8  UNL     1      23.361   8.121  49.863  1.00  0.00     0.015 A 
HETATM    9  C9  UNL     1      22.963   5.076  47.861  1.00  0.00     0.189 C 
HETATM   10  O1  UNL     1      22.159   4.393  46.895  1.00  0.00    -0.376 OA
HETATM   11  C10 UNL     1      20.827   4.540  47.312  1.00  0.00     0.195 C 
HETATM   12  C11 UNL     1      20.878   4.081  48.764  1.00  0.00     0.201 C 
HETATM   13  O2  UNL     1      22.134   3.605  49.098  1.00  0.00    -0.350 OA
HETATM   14  C12 UNL     1      23.378   4.151  48.922  1.00  0.00     0.092 C 
HETATM   15  C13 UNL     1      24.453   3.805  49.604  1.00  0.00     0.071 A 
HETATM   16  C14 UNL     1      25.755   4.121  49.696  1.00  0.00     0.151 A 
HETATM   17  N1  UNL     1      26.630   3.495  50.500  1.00  0.00    -0.223 NA
HETATM   18  C15 UNL     1      26.322   2.474  51.321  1.00  0.00     0.236 A 
HETATM   19  N2  UNL     1      25.050   2.106  51.288  1.00  0.00    -0.241 NA
HETATM   20  C16 UNL     1      24.190   2.735  50.483  1.00  0.00     0.073 A 
HETATM   21  C17 UNL     1      22.983   2.132  50.671  1.00  0.00     0.032 C 
HETATM   22  N3  UNL     1      26.787   4.999  49.253  1.00  0.00    -0.299 N 
HETATM   23  H23 UNL     1      27.434   5.699  48.984  1.00  0.00     0.178 HD
ENDROOT
BRANCH  21  24
HETATM   24  C18 UNL     1      22.740   0.981  51.626  1.00  0.00     0.198 C 
BRANCH  24  25
HETATM   25  O3  UNL     1      21.983   1.437  52.676  1.00  0.00    -0.382 OA
BRANCH  25  26
HETATM   26  C19 UNL     1      21.978   0.632  53.803  1.00  0.00     0.125 C 
HETATM   27  C20 UNL     1      23.124  -0.395  53.741  1.00  0.00     0.058 C 
HETATM   28  C21 UNL     1      23.043  -1.220  55.007  1.00  0.00     0.170 C 
HETATM   29  O4  UNL     1      21.813  -1.811  55.224  1.00  0.00    -0.391 OA
HETATM   30  C22 UNL     1      20.933  -1.617  54.183  1.00  0.00     0.170 C 
HETATM   31  C23 UNL     1      20.703  -0.155  53.932  1.00  0.00     0.058 C 
ENDBRANCH  25  26
ENDBRANCH  24  25
ENDBRANCH  21  24
TORSDOF 4
ENDMDL
MODEL 9
REMARK VINA RESULT:      -8.5      3.496      7.278
REMARK  4 active torsions:
REMARK  status: ('A' for Active; 'I' for Inactive)
REMARK    1  A    between atoms: C7_7  and  C8_8 
REMARK    2  A    between atoms: C17_21  and  C18_22 
REMARK    3  A    between atoms: C18_22  and  O3_23 
REMARK    4  A    between atoms: O3_23  and  C19_24 
ROOT
HETATM    1  C1  UNL     1      24.324   1.160  53.111  1.00  0.00     0.013 C 
HETATM    2  C2  UNL     1      24.265   2.366  53.098  1.00  0.00    -0.071 C 
HETATM    3  C3  UNL     1      24.178   3.793  53.062  1.00  0.00     0.049 A 
HETATM    4  C4  UNL     1      23.493   2.962  52.100  1.00  0.00     0.003 A 
HETATM    5  C5  UNL     1      22.658   2.864  51.082  1.00  0.00     0.036 A 
HETATM    6  C6  UNL     1      21.816   2.837  50.064  1.00  0.00     0.012 A 
HETATM    7  C7  UNL     1      22.303   4.000  50.822  1.00  0.00     0.009 A 
HETATM    8  C8  UNL     1      23.236   4.236  51.987  1.00  0.00     0.015 A 
HETATM    9  C9  UNL     1      22.055   1.320  50.106  1.00  0.00     0.189 C 
HETATM   10  O1  UNL     1      21.446   0.862  48.896  1.00  0.00    -0.376 OA
HETATM   11  C10 UNL     1      20.363   1.719  48.647  1.00  0.00     0.195 C 
HETATM   12  C11 UNL     1      19.606   1.697  49.969  1.00  0.00     0.201 C 
HETATM   13  O2  UNL     1      20.172   0.798  50.857  1.00  0.00    -0.350 OA
HETATM   14  C12 UNL     1      21.470   0.630  51.262  1.00  0.00     0.092 C 
HETATM   15  C13 UNL     1      21.837   0.019  52.372  1.00  0.00     0.071 A 
HETATM   16  C14 UNL     1      22.954  -0.299  53.046  1.00  0.00     0.151 A 
HETATM   17  N1  UNL     1      22.974  -1.019  54.180  1.00  0.00    -0.223 NA
HETATM   18  C15 UNL     1      21.883  -1.517  54.791  1.00  0.00     0.236 A 
HETATM   19  N2  UNL     1      20.739  -1.242  54.184  1.00  0.00    -0.241 NA
HETATM   20  C16 UNL     1      20.732  -0.525  53.057  1.00  0.00     0.073 A 
HETATM   21  C17 UNL     1      19.426  -0.419  52.681  1.00  0.00     0.032 C 
HETATM   22  N3  UNL     1      24.371  -0.159  53.108  1.00  0.00    -0.299 N 
HETATM   23  H23 UNL     1      25.337   0.057  53.150  1.00  0.00     0.178 HD
ENDROOT
BRANCH  21  24
HETATM   24  C18 UNL     1      18.264  -1.019  53.446  1.00  0.00     0.198 C 
BRANCH  24  25
HETATM   25  O3  UNL     1      17.443  -1.666  52.558  1.00  0.00    -0.382 OA
BRANCH  25  26
HETATM   26  C19 UNL     1      16.562  -2.579  53.113  1.00  0.00     0.125 C 
HETATM   27  C20 UNL     1      17.277  -3.911  53.407  1.00  0.00     0.058 C 
HETATM   28  C21 UNL     1      16.245  -4.839  54.012  1.00  0.00     0.170 C 
HETATM   29  O4  UNL     1      15.109  -5.005  53.244  1.00  0.00    -0.391 OA
HETATM   30  C22 UNL     1      15.189  -4.373  52.023  1.00  0.00     0.170 C 
HETATM   31  C23 UNL     1      15.421  -2.900  52.188  1.00  0.00     0.058 C 
ENDBRANCH  25  26
ENDBRANCH  24  25
ENDBRANCH  21  24
TORSDOF 4
ENDMDL
