MODEL 1
REMARK VINA RESULT:      -7.0      0.000      0.000
REMARK  10 active torsions:
REMARK  status: ('A' for Active; 'I' for Inactive)
REMARK    1  A    between atoms: C6_6  and  N1_7 
REMARK    2  A    between atoms: N1_7  and  C7_8 
REMARK    3  A    between atoms: C11_14  and  O1_15 
REMARK    4  A    between atoms: O1_15  and  C12_16 
REMARK    5  A    between atoms: C12_16  and  C13_17 
REMARK    6  A    between atoms: C13_17  and  O2_18 
REMARK    7  A    between atoms: C15_20  and  O3_21 
REMARK    8  A    between atoms: O3_21  and  C16_22 
REMARK    9  A    between atoms: C16_22  and  C17_23 
REMARK   10  A    between atoms: C17_23  and  O4_24 
ROOT
HETATM    1  C1  UNL     1      27.575   4.878  48.609  1.00  0.00     0.013 C 
HETATM    2  C2  UNL     1      26.801   5.791  48.765  1.00  0.00    -0.105 C 
HETATM    3  C3  UNL     1      25.835   6.898  48.945  1.00  0.00     0.111 A 
HETATM    4  C4  UNL     1      24.595   6.639  48.156  1.00  0.00    -0.004 A 
HETATM    5  C5  UNL     1      23.572   6.402  48.963  1.00  0.00     0.027 A 
HETATM    6  C6  UNL     1      24.014   6.476  50.372  1.00  0.00     0.031 A 
HETATM    7  C21 UNL     1      25.306   6.760  50.330  1.00  0.00     0.023 A 
ENDROOT
BRANCH   6   8
HETATM    8  N1  UNL     1      23.249   6.289  51.557  1.00  0.00    -0.340 N 
HETATM    9  H5  UNL     1      23.443   7.031  52.242  1.00  0.00     0.167 HD
BRANCH   8  10
HETATM   10  C7  UNL     1      22.379   5.170  51.623  1.00  0.00     0.142 A 
HETATM   11  N2  UNL     1      21.114   5.347  51.203  1.00  0.00    -0.224 NA
HETATM   12  C8  UNL     1      20.214   4.320  51.234  1.00  0.00     0.236 A 
HETATM   13  N3  UNL     1      20.573   3.084  51.694  1.00  0.00    -0.241 NA
HETATM   14  C9  UNL     1      21.836   2.926  52.109  1.00  0.00     0.075 A 
HETATM   15  C10 UNL     1      22.242   1.715  52.576  1.00  0.00     0.072 A 
HETATM   16  C20 UNL     1      22.769   3.939  52.091  1.00  0.00     0.042 A 
HETATM   17  C11 UNL     1      23.494   1.393  53.034  1.00  0.00     0.104 A 
HETATM   18  C15 UNL     1      24.396   2.462  52.991  1.00  0.00     0.103 A 
HETATM   19  C19 UNL     1      24.051   3.733  52.526  1.00  0.00     0.057 A 
BRANCH  17  20
HETATM   20  O1  UNL     1      24.063   0.260  53.523  1.00  0.00    -0.346 OA
BRANCH  20  21
HETATM   21  C12 UNL     1      23.480  -0.951  53.769  1.00  0.00     0.201 C 
BRANCH  21  22
HETATM   22  C13 UNL     1      22.863  -1.182  55.105  1.00  0.00     0.193 C 
BRANCH  22  23
HETATM   23  O2  UNL     1      21.656  -1.865  55.077  1.00  0.00    -0.394 OA
HETATM   24  C14 UNL     1      20.746  -1.382  54.159  1.00  0.00     0.201 C 
ENDBRANCH  22  23
ENDBRANCH  21  22
ENDBRANCH  20  21
ENDBRANCH  17  20
BRANCH  18  25
HETATM   25  O3  UNL     1      25.712   2.347  53.410  1.00  0.00    -0.346 OA
BRANCH  25  26
HETATM   26  C16 UNL     1      26.780   2.264  52.492  1.00  0.00     0.201 C 
BRANCH  26  27
HETATM   27  C17 UNL     1      27.565   1.042  52.831  1.00  0.00     0.193 C 
BRANCH  27  28
HETATM   28  O4  UNL     1      28.177   1.069  54.075  1.00  0.00    -0.394 OA
HETATM   29  C18 UNL     1      27.728   0.084  54.921  1.00  0.00     0.201 C 
ENDBRANCH  27  28
ENDBRANCH  26  27
ENDBRANCH  25  26
ENDBRANCH  18  25
ENDBRANCH   8  10
ENDBRANCH   6   8
TORSDOF 10
ENDMDL
MODEL 2
REMARK VINA RESULT:      -6.9      2.634      5.808
REMARK  10 active torsions:
REMARK  status: ('A' for Active; 'I' for Inactive)
REMARK    1  A    between atoms: C6_6  and  N1_7 
REMARK    2  A    between atoms: N1_7  and  C7_8 
REMARK    3  A    between atoms: C11_14  and  O1_15 
REMARK    4  A    between atoms: O1_15  and  C12_16 
REMARK    5  A    between atoms: C12_16  and  C13_17 
REMARK    6  A    between atoms: C13_17  and  O2_18 
REMARK    7  A    between atoms: C15_20  and  O3_21 
REMARK    8  A    between atoms: O3_21  and  C16_22 
REMARK    9  A    between atoms: C16_22  and  C17_23 
REMARK   10  A    between atoms: C17_23  and  O4_24 
ROOT
HETATM    1  C1  UNL     1      29.886  -1.307  53.587  1.00  0.00     0.013 C 
HETATM    2  C2  UNL     1      29.051  -0.493  53.893  1.00  0.00    -0.105 C 
HETATM    3  C3  UNL     1      28.035   0.521  54.255  1.00  0.00     0.111 A 
HETATM    4  C4  UNL     1      28.430   1.862  53.732  1.00  0.00    -0.004 A 
HETATM    5  C5  UNL     1      27.609   2.244  52.765  1.00  0.00     0.027 A 
HETATM    6  C6  UNL     1      26.581   1.206  52.538  1.00  0.00     0.031 A 
HETATM    7  C21 UNL     1      26.849   0.238  53.401  1.00  0.00     0.023 A 
ENDROOT
BRANCH   6   8
HETATM    8  N1  UNL     1      25.509   1.202  51.603  1.00  0.00    -0.340 N 
HETATM    9  H5  UNL     1      25.360   0.261  51.216  1.00  0.00     0.167 HD
BRANCH   8  10
HETATM   10  C7  UNL     1      24.837   2.426  51.349  1.00  0.00     0.142 A 
HETATM   11  N2  UNL     1      25.562   3.431  50.827  1.00  0.00    -0.224 NA
HETATM   12  C8  UNL     1      24.991   4.641  50.553  1.00  0.00     0.236 A 
HETATM   13  N3  UNL     1      23.666   4.865  50.803  1.00  0.00    -0.241 NA
HETATM   14  C9  UNL     1      22.959   3.854  51.323  1.00  0.00     0.075 A 
HETATM   15  C10 UNL     1      21.637   4.028  51.590  1.00  0.00     0.072 A 
HETATM   16  C20 UNL     1      23.503   2.622  51.611  1.00  0.00     0.042 A 
HETATM   17  C11 UNL     1      20.781   3.096  52.120  1.00  0.00     0.104 A 
HETATM   18  C15 UNL     1      21.391   1.867  52.390  1.00  0.00     0.103 A 
HETATM   19  C19 UNL     1      22.743   1.615  52.143  1.00  0.00     0.057 A 
BRANCH  17  20
HETATM   20  O1  UNL     1      19.461   3.097  52.443  1.00  0.00    -0.346 OA
BRANCH  20  21
HETATM   21  C12 UNL     1      18.385   3.351  51.639  1.00  0.00     0.201 C 
BRANCH  21  22
HETATM   22  C13 UNL     1      17.751   2.210  50.922  1.00  0.00     0.193 C 
BRANCH  22  23
HETATM   23  O2  UNL     1      17.616   1.053  51.674  1.00  0.00    -0.394 OA
HETATM   24  C14 UNL     1      17.885  -0.112  50.986  1.00  0.00     0.201 C 
ENDBRANCH  22  23
ENDBRANCH  21  22
ENDBRANCH  20  21
ENDBRANCH  17  20
BRANCH  18  25
HETATM   25  O3  UNL     1      20.701   0.792  52.928  1.00  0.00    -0.346 OA
BRANCH  25  26
HETATM   26  C16 UNL     1      20.914   0.360  54.254  1.00  0.00     0.201 C 
BRANCH  26  27
HETATM   27  C17 UNL     1      21.245  -1.094  54.201  1.00  0.00     0.193 C 
BRANCH  27  28
HETATM   28  O4  UNL     1      21.865  -1.593  55.335  1.00  0.00    -0.394 OA
HETATM   29  C18 UNL     1      23.228  -1.415  55.331  1.00  0.00     0.201 C 
ENDBRANCH  27  28
ENDBRANCH  26  27
ENDBRANCH  25  26
ENDBRANCH  18  25
ENDBRANCH   8  10
ENDBRANCH   6   8
TORSDOF 10
ENDMDL
MODEL 3
REMARK VINA RESULT:      -6.7      2.890      4.747
REMARK  10 active torsions:
REMARK  status: ('A' for Active; 'I' for Inactive)
REMARK    1  A    between atoms: C6_6  and  N1_7 
REMARK    2  A    between atoms: N1_7  and  C7_8 
REMARK    3  A    between atoms: C11_14  and  O1_15 
REMARK    4  A    between atoms: O1_15  and  C12_16 
REMARK    5  A    between atoms: C12_16  and  C13_17 
REMARK    6  A    between atoms: C13_17  and  O2_18 
REMARK    7  A    between atoms: C15_20  and  O3_21 
REMARK    8  A    between atoms: O3_21  and  C16_22 
REMARK    9  A    between atoms: C16_22  and  C17_23 
REMARK   10  A    between atoms: C17_23  and  O4_24 
ROOT
HETATM    1  C1  UNL     1      26.287   8.102  46.493  1.00  0.00     0.013 C 
HETATM    2  C2  UNL     1      26.631   7.624  47.545  1.00  0.00    -0.105 C 
HETATM    3  C3  UNL     1      27.032   7.039  48.845  1.00  0.00     0.111 A 
HETATM    4  C4  UNL     1      25.934   7.192  49.844  1.00  0.00    -0.004 A 
HETATM    5  C5  UNL     1      25.411   6.013  50.145  1.00  0.00     0.027 A 
HETATM    6  C6  UNL     1      26.098   4.948  49.383  1.00  0.00     0.031 A 
HETATM    7  C21 UNL     1      27.016   5.562  48.652  1.00  0.00     0.023 A 
ENDROOT
BRANCH   6   8
HETATM    8  N1  UNL     1      25.861   3.545  49.398  1.00  0.00    -0.340 N 
HETATM    9  H5  UNL     1      25.676   3.192  48.450  1.00  0.00     0.167 HD
BRANCH   8  10
HETATM   10  C7  UNL     1      25.908   2.872  50.647  1.00  0.00     0.142 A 
HETATM   11  N2  UNL     1      27.109   2.762  51.243  1.00  0.00    -0.224 NA
HETATM   12  C8  UNL     1      27.240   2.129  52.446  1.00  0.00     0.236 A 
HETATM   13  N3  UNL     1      26.155   1.587  53.077  1.00  0.00    -0.241 NA
HETATM   14  C9  UNL     1      24.968   1.705  52.469  1.00  0.00     0.075 A 
HETATM   15  C10 UNL     1      23.859   1.182  53.057  1.00  0.00     0.072 A 
HETATM   16  C20 UNL     1      24.800   2.337  51.257  1.00  0.00     0.042 A 
HETATM   17  C11 UNL     1      22.579   1.220  52.565  1.00  0.00     0.104 A 
HETATM   18  C15 UNL     1      22.473   1.873  51.334  1.00  0.00     0.103 A 
HETATM   19  C19 UNL     1      23.567   2.434  50.670  1.00  0.00     0.057 A 
BRANCH  17  20
HETATM   20  O1  UNL     1      21.379   0.762  53.009  1.00  0.00    -0.346 OA
BRANCH  20  21
HETATM   21  C12 UNL     1      21.104   0.041  54.137  1.00  0.00     0.201 C 
BRANCH  21  22
HETATM   22  C13 UNL     1      21.335  -1.431  54.111  1.00  0.00     0.193 C 
BRANCH  22  23
HETATM   23  O2  UNL     1      21.945  -1.944  55.245  1.00  0.00    -0.394 OA
HETATM   24  C14 UNL     1      23.214  -1.456  55.484  1.00  0.00     0.201 C 
ENDBRANCH  22  23
ENDBRANCH  21  22
ENDBRANCH  20  21
ENDBRANCH  17  20
BRANCH  18  25
HETATM   25  O3  UNL     1      21.267   2.020  50.666  1.00  0.00    -0.346 OA
BRANCH  25  26
HETATM   26  C16 UNL     1      21.065   1.497  49.372  1.00  0.00     0.201 C 
BRANCH  26  27
HETATM   27  C17 UNL     1      20.179   2.449  48.640  1.00  0.00     0.193 C 
BRANCH  27  28
HETATM   28  O4  UNL     1      20.593   2.761  47.355  1.00  0.00    -0.394 OA
HETATM   29  C18 UNL     1      21.926   3.084  47.277  1.00  0.00     0.201 C 
ENDBRANCH  27  28
ENDBRANCH  26  27
ENDBRANCH  25  26
ENDBRANCH  18  25
ENDBRANCH   8  10
ENDBRANCH   6   8
TORSDOF 10
ENDMDL
MODEL 4
REMARK VINA RESULT:      -6.6      4.070      7.823
REMARK  10 active torsions:
REMARK  status: ('A' for Active; 'I' for Inactive)
REMARK    1  A    between atoms: C6_6  and  N1_7 
REMARK    2  A    between atoms: N1_7  and  C7_8 
REMARK    3  A    between atoms: C11_14  and  O1_15 
REMARK    4  A    between atoms: O1_15  and  C12_16 
REMARK    5  A    between atoms: C12_16  and  C13_17 
REMARK    6  A    between atoms: C13_17  and  O2_18 
REMARK    7  A    between atoms: C15_20  and  O3_21 
REMARK    8  A    between atoms: O3_21  and  C16_22 
REMARK    9  A    between atoms: C16_22  and  C17_23 
REMARK   10  A    between atoms: C17_23  and  O4_24 
ROOT
HETATM    1  C1  UNL     1      29.814  -1.460  53.471  1.00  0.00     0.013 C 
HETATM    2  C2  UNL     1      28.858  -0.745  53.644  1.00  0.00    -0.105 C 
HETATM    3  C3  UNL     1      27.699   0.152  53.853  1.00  0.00     0.111 A 
HETATM    4  C4  UNL     1      28.159   1.557  54.057  1.00  0.00    -0.004 A 
HETATM    5  C5  UNL     1      27.808   2.315  53.030  1.00  0.00     0.027 A 
HETATM    6  C6  UNL     1      27.080   1.505  52.031  1.00  0.00     0.031 A 
HETATM    7  C21 UNL     1      27.033   0.278  52.527  1.00  0.00     0.023 A 
ENDROOT
BRANCH   6   8
HETATM    8  N1  UNL     1      26.526   1.911  50.785  1.00  0.00    -0.340 N 
HETATM    9  H5  UNL     1      27.004   1.449  50.001  1.00  0.00     0.167 HD
BRANCH   8  10
HETATM   10  C7  UNL     1      25.455   2.843  50.800  1.00  0.00     0.142 A 
HETATM   11  N2  UNL     1      24.346   2.496  51.477  1.00  0.00    -0.224 NA
HETATM   12  C8  UNL     1      23.271   3.337  51.540  1.00  0.00     0.236 A 
HETATM   13  N3  UNL     1      23.292   4.553  50.917  1.00  0.00    -0.241 NA
HETATM   14  C9  UNL     1      24.404   4.882  50.248  1.00  0.00     0.075 A 
HETATM   15  C10 UNL     1      24.473   6.080  49.611  1.00  0.00     0.072 A 
HETATM   16  C20 UNL     1      25.505   4.059  50.164  1.00  0.00     0.042 A 
HETATM   17  C11 UNL     1      25.535   6.562  48.888  1.00  0.00     0.104 A 
HETATM   18  C15 UNL     1      26.621   5.683  48.839  1.00  0.00     0.103 A 
HETATM   19  C19 UNL     1      26.623   4.435  49.468  1.00  0.00     0.057 A 
BRANCH  17  20
HETATM   20  O1  UNL     1      25.773   7.711  48.202  1.00  0.00    -0.346 OA
BRANCH  20  21
HETATM   21  C12 UNL     1      26.247   8.903  48.673  1.00  0.00     0.201 C 
BRANCH  21  22
HETATM   22  C13 UNL     1      26.885   8.930  50.019  1.00  0.00     0.193 C 
BRANCH  22  23
HETATM   23  O2  UNL     1      28.108   9.581  50.069  1.00  0.00    -0.394 OA
HETATM   24  C14 UNL     1      28.313  10.493  49.054  1.00  0.00     0.201 C 
ENDBRANCH  22  23
ENDBRANCH  21  22
ENDBRANCH  20  21
ENDBRANCH  17  20
BRANCH  18  25
HETATM   25  O3  UNL     1      27.792   5.978  48.159  1.00  0.00    -0.346 OA
BRANCH  25  26
HETATM   26  C16 UNL     1      28.920   5.132  48.217  1.00  0.00     0.201 C 
BRANCH  26  27
HETATM   27  C17 UNL     1      30.113   5.996  48.447  1.00  0.00     0.193 C 
BRANCH  27  28
HETATM   28  O4  UNL     1      31.260   5.318  48.828  1.00  0.00    -0.394 OA
HETATM   29  C18 UNL     1      32.122   6.087  49.573  1.00  0.00     0.201 C 
ENDBRANCH  27  28
ENDBRANCH  26  27
ENDBRANCH  25  26
ENDBRANCH  18  25
ENDBRANCH   8  10
ENDBRANCH   6   8
TORSDOF 10
ENDMDL
MODEL 5
REMARK VINA RESULT:      -6.6      3.248      6.168
REMARK  10 active torsions:
REMARK  status: ('A' for Active; 'I' for Inactive)
REMARK    1  A    between atoms: C6_6  and  N1_7 
REMARK    2  A    between atoms: N1_7  and  C7_8 
REMARK    3  A    between atoms: C11_14  and  O1_15 
REMARK    4  A    between atoms: O1_15  and  C12_16 
REMARK    5  A    between atoms: C12_16  and  C13_17 
REMARK    6  A    between atoms: C13_17  and  O2_18 
REMARK    7  A    between atoms: C15_20  and  O3_21 
REMARK    8  A    between atoms: O3_21  and  C16_22 
REMARK    9  A    between atoms: C16_22  and  C17_23 
REMARK   10  A    between atoms: C17_23  and  O4_24 
ROOT
HETATM    1  C1  UNL     1      29.965  -0.608  53.583  1.00  0.00     0.013 C 
HETATM    2  C2  UNL     1      28.952  -0.125  54.026  1.00  0.00    -0.105 C 
HETATM    3  C3  UNL     1      27.708   0.481  54.552  1.00  0.00     0.111 A 
HETATM    4  C4  UNL     1      27.391   1.738  53.813  1.00  0.00    -0.004 A 
HETATM    5  C5  UNL     1      26.302   1.582  53.076  1.00  0.00     0.027 A 
HETATM    6  C6  UNL     1      25.775   0.210  53.240  1.00  0.00     0.031 A 
HETATM    7  C21 UNL     1      26.597  -0.392  54.086  1.00  0.00     0.023 A 
ENDROOT
BRANCH   6   8
HETATM    8  N1  UNL     1      24.632  -0.384  52.638  1.00  0.00    -0.340 N 
HETATM    9  H5  UNL     1      24.894  -0.932  51.808  1.00  0.00     0.167 HD
BRANCH   8  10
HETATM   10  C7  UNL     1      23.364  -0.149  53.232  1.00  0.00     0.142 A 
HETATM   11  N2  UNL     1      23.008  -0.943  54.258  1.00  0.00    -0.224 NA
HETATM   12  C8  UNL     1      21.805  -0.783  54.884  1.00  0.00     0.236 A 
HETATM   13  N3  UNL     1      20.929   0.187  54.486  1.00  0.00    -0.241 NA
HETATM   14  C9  UNL     1      21.299   0.968  53.464  1.00  0.00     0.075 A 
HETATM   15  C10 UNL     1      20.462   1.947  53.030  1.00  0.00     0.072 A 
HETATM   16  C20 UNL     1      22.504   0.834  52.810  1.00  0.00     0.042 A 
HETATM   17  C11 UNL     1      20.694   2.825  52.001  1.00  0.00     0.104 A 
HETATM   18  C15 UNL     1      21.931   2.640  51.378  1.00  0.00     0.103 A 
HETATM   19  C19 UNL     1      22.843   1.655  51.767  1.00  0.00     0.057 A 
BRANCH  17  20
HETATM   20  O1  UNL     1      19.986   3.844  51.447  1.00  0.00    -0.346 OA
BRANCH  20  21
HETATM   21  C12 UNL     1      18.827   3.786  50.726  1.00  0.00     0.201 C 
BRANCH  21  22
HETATM   22  C13 UNL     1      17.539   3.665  51.464  1.00  0.00     0.193 C 
BRANCH  22  23
HETATM   23  O2  UNL     1      16.827   2.505  51.204  1.00  0.00    -0.394 OA
HETATM   24  C14 UNL     1      17.511   1.570  50.453  1.00  0.00     0.201 C 
ENDBRANCH  22  23
ENDBRANCH  21  22
ENDBRANCH  20  21
ENDBRANCH  17  20
BRANCH  18  25
HETATM   25  O3  UNL     1      22.359   3.421  50.316  1.00  0.00    -0.346 OA
BRANCH  25  26
HETATM   26  C16 UNL     1      23.391   4.371  50.460  1.00  0.00     0.201 C 
BRANCH  26  27
HETATM   27  C17 UNL     1      24.297   4.225  49.283  1.00  0.00     0.193 C 
BRANCH  27  28
HETATM   28  O4  UNL     1      25.317   3.301  49.442  1.00  0.00    -0.394 OA
HETATM   29  C18 UNL     1      26.552   3.880  49.613  1.00  0.00     0.201 C 
ENDBRANCH  27  28
ENDBRANCH  26  27
ENDBRANCH  25  26
ENDBRANCH  18  25
ENDBRANCH   8  10
ENDBRANCH   6   8
TORSDOF 10
ENDMDL
MODEL 6
REMARK VINA RESULT:      -6.5      2.519      5.583
REMARK  10 active torsions:
REMARK  status: ('A' for Active; 'I' for Inactive)
REMARK    1  A    between atoms: C6_6  and  N1_7 
REMARK    2  A    between atoms: N1_7  and  C7_8 
REMARK    3  A    between atoms: C11_14  and  O1_15 
REMARK    4  A    between atoms: O1_15  and  C12_16 
REMARK    5  A    between atoms: C12_16  and  C13_17 
REMARK    6  A    between atoms: C13_17  and  O2_18 
REMARK    7  A    between atoms: C15_20  and  O3_21 
REMARK    8  A    between atoms: O3_21  and  C16_22 
REMARK    9  A    between atoms: C16_22  and  C17_23 
REMARK   10  A    between atoms: C17_23  and  O4_24 
ROOT
HETATM    1  C1  UNL     1      20.762   4.161  48.047  1.00  0.00     0.013 C 
HETATM    2  C2  UNL     1      20.005   3.519  48.733  1.00  0.00    -0.105 C 
HETATM    3  C3  UNL     1      19.090   2.712  49.572  1.00  0.00     0.111 A 
HETATM    4  C4  UNL     1      19.449   1.266  49.489  1.00  0.00    -0.004 A 
HETATM    5  C5  UNL     1      19.933   0.840  50.645  1.00  0.00     0.027 A 
HETATM    6  C6  UNL     1      19.952   1.949  51.623  1.00  0.00     0.031 A 
HETATM    7  C21 UNL     1      19.466   3.001  50.983  1.00  0.00     0.023 A 
ENDROOT
BRANCH   6   8
HETATM    8  N1  UNL     1      20.389   1.937  52.977  1.00  0.00    -0.340 N 
HETATM    9  H5  UNL     1      20.080   2.784  53.472  1.00  0.00     0.167 HD
BRANCH   8  10
HETATM   10  C7  UNL     1      21.146   0.824  53.426  1.00  0.00     0.142 A 
HETATM   11  N2  UNL     1      20.468  -0.209  53.957  1.00  0.00    -0.224 NA
HETATM   12  C8  UNL     1      21.122  -1.318  54.413  1.00  0.00     0.236 A 
HETATM   13  N3  UNL     1      22.484  -1.409  54.344  1.00  0.00    -0.241 NA
HETATM   14  C9  UNL     1      23.143  -0.372  53.813  1.00  0.00     0.075 A 
HETATM   15  C10 UNL     1      24.499  -0.414  53.722  1.00  0.00     0.072 A 
HETATM   16  C20 UNL     1      22.515   0.761  53.343  1.00  0.00     0.042 A 
HETATM   17  C11 UNL     1      25.315   0.561  53.207  1.00  0.00     0.104 A 
HETATM   18  C15 UNL     1      24.620   1.684  52.747  1.00  0.00     0.103 A 
HETATM   19  C19 UNL     1      23.229   1.800  52.808  1.00  0.00     0.057 A 
BRANCH  17  20
HETATM   20  O1  UNL     1      26.658   0.683  53.038  1.00  0.00    -0.346 OA
BRANCH  20  21
HETATM   21  C12 UNL     1      27.596   1.108  53.937  1.00  0.00     0.201 C 
BRANCH  21  22
HETATM   22  C13 UNL     1      28.423   0.085  54.636  1.00  0.00     0.193 C 
BRANCH  22  23
HETATM   23  O2  UNL     1      29.531  -0.351  53.926  1.00  0.00    -0.394 OA
HETATM   24  C14 UNL     1      29.417  -1.628  53.414  1.00  0.00     0.201 C 
ENDBRANCH  22  23
ENDBRANCH  21  22
ENDBRANCH  20  21
ENDBRANCH  17  20
BRANCH  18  25
HETATM   25  O3  UNL     1      25.258   2.782  52.190  1.00  0.00    -0.346 OA
BRANCH  25  26
HETATM   26  C16 UNL     1      25.126   3.105  50.824  1.00  0.00     0.201 C 
BRANCH  26  27
HETATM   27  C17 UNL     1      26.430   2.800  50.166  1.00  0.00     0.193 C 
BRANCH  27  28
HETATM   28  O4  UNL     1      27.199   3.910  49.854  1.00  0.00    -0.394 OA
HETATM   29  C18 UNL     1      26.513   4.862  49.141  1.00  0.00     0.201 C 
ENDBRANCH  27  28
ENDBRANCH  26  27
ENDBRANCH  25  26
ENDBRANCH  18  25
ENDBRANCH   8  10
ENDBRANCH   6   8
TORSDOF 10
ENDMDL
MODEL 7
REMARK VINA RESULT:      -6.5      2.081      5.871
REMARK  10 active torsions:
REMARK  status: ('A' for Active; 'I' for Inactive)
REMARK    1  A    between atoms: C6_6  and  N1_7 
REMARK    2  A    between atoms: N1_7  and  C7_8 
REMARK    3  A    between atoms: C11_14  and  O1_15 
REMARK    4  A    between atoms: O1_15  and  C12_16 
REMARK    5  A    between atoms: C12_16  and  C13_17 
REMARK    6  A    between atoms: C13_17  and  O2_18 
REMARK    7  A    between atoms: C15_20  and  O3_21 
REMARK    8  A    between atoms: O3_21  and  C16_22 
REMARK    9  A    between atoms: C16_22  and  C17_23 
REMARK   10  A    between atoms: C17_23  and  O4_24 
ROOT
HETATM    1  C1  UNL     1      16.852  -0.148  51.754  1.00  0.00     0.013 C 
HETATM    2  C2  UNL     1      17.799   0.246  51.119  1.00  0.00    -0.105 C 
HETATM    3  C3  UNL     1      18.950   0.749  50.337  1.00  0.00     0.111 A 
HETATM    4  C4  UNL     1      18.584   2.010  49.628  1.00  0.00    -0.004 A 
HETATM    5  C5  UNL     1      19.240   3.040  50.141  1.00  0.00     0.027 A 
HETATM    6  C6  UNL     1      20.110   2.583  51.245  1.00  0.00     0.031 A 
HETATM    7  C21 UNL     1      19.925   1.275  51.332  1.00  0.00     0.023 A 
ENDROOT
BRANCH   6   8
HETATM    8  N1  UNL     1      20.983   3.348  52.068  1.00  0.00    -0.340 N 
HETATM    9  H5  UNL     1      20.558   3.531  52.986  1.00  0.00     0.167 HD
BRANCH   8  10
HETATM   10  C7  UNL     1      22.242   3.730  51.536  1.00  0.00     0.142 A 
HETATM   11  N2  UNL     1      22.280   4.842  50.780  1.00  0.00    -0.224 NA
HETATM   12  C8  UNL     1      23.453   5.278  50.231  1.00  0.00     0.236 A 
HETATM   13  N3  UNL     1      24.619   4.595  50.432  1.00  0.00    -0.241 NA
HETATM   14  C9  UNL     1      24.563   3.490  51.186  1.00  0.00     0.075 A 
HETATM   15  C10 UNL     1      25.697   2.776  51.415  1.00  0.00     0.072 A 
HETATM   16  C20 UNL     1      23.399   3.023  51.755  1.00  0.00     0.042 A 
HETATM   17  C11 UNL     1      25.805   1.630  52.161  1.00  0.00     0.104 A 
HETATM   18  C15 UNL     1      24.591   1.206  52.712  1.00  0.00     0.103 A 
HETATM   19  C19 UNL     1      23.386   1.887  52.520  1.00  0.00     0.057 A 
BRANCH  17  20
HETATM   20  O1  UNL     1      26.834   0.806  52.490  1.00  0.00    -0.346 OA
BRANCH  20  21
HETATM   21  C12 UNL     1      27.977   1.101  53.180  1.00  0.00     0.201 C 
BRANCH  21  22
HETATM   22  C13 UNL     1      28.323   0.269  54.366  1.00  0.00     0.193 C 
BRANCH  22  23
HETATM   23  O2  UNL     1      28.276  -1.099  54.151  1.00  0.00    -0.394 OA
HETATM   24  C14 UNL     1      29.321  -1.596  53.397  1.00  0.00     0.201 C 
ENDBRANCH  22  23
ENDBRANCH  21  22
ENDBRANCH  20  21
ENDBRANCH  17  20
BRANCH  18  25
HETATM   25  O3  UNL     1      24.483   0.070  53.497  1.00  0.00    -0.346 OA
BRANCH  25  26
HETATM   26  C16 UNL     1      23.332  -0.746  53.471  1.00  0.00     0.201 C 
BRANCH  26  27
HETATM   27  C17 UNL     1      23.048  -1.160  54.876  1.00  0.00     0.193 C 
BRANCH  27  28
HETATM   28  O4  UNL     1      21.705  -1.322  55.176  1.00  0.00    -0.394 OA
HETATM   29  C18 UNL     1      20.872  -0.982  54.137  1.00  0.00     0.201 C 
ENDBRANCH  27  28
ENDBRANCH  26  27
ENDBRANCH  25  26
ENDBRANCH  18  25
ENDBRANCH   8  10
ENDBRANCH   6   8
TORSDOF 10
ENDMDL
MODEL 8
REMARK VINA RESULT:      -6.5      3.173      5.142
REMARK  10 active torsions:
REMARK  status: ('A' for Active; 'I' for Inactive)
REMARK    1  A    between atoms: C6_6  and  N1_7 
REMARK    2  A    between atoms: N1_7  and  C7_8 
REMARK    3  A    between atoms: C11_14  and  O1_15 
REMARK    4  A    between atoms: O1_15  and  C12_16 
REMARK    5  A    between atoms: C12_16  and  C13_17 
REMARK    6  A    between atoms: C13_17  and  O2_18 
REMARK    7  A    between atoms: C15_20  and  O3_21 
REMARK    8  A    between atoms: O3_21  and  C16_22 
REMARK    9  A    between atoms: C16_22  and  C17_23 
REMARK   10  A    between atoms: C17_23  and  O4_24 
ROOT
HETATM    1  C1  UNL     1      25.789   6.736  48.812  1.00  0.00     0.013 C 
HETATM    2  C2  UNL     1      25.500   5.577  48.979  1.00  0.00    -0.105 C 
HETATM    3  C3  UNL     1      25.167   4.151  49.190  1.00  0.00     0.111 A 
HETATM    4  C4  UNL     1      26.407   3.359  49.438  1.00  0.00    -0.004 A 
HETATM    5  C5  UNL     1      26.440   2.925  50.689  1.00  0.00     0.027 A 
HETATM    6  C6  UNL     1      25.232   3.378  51.411  1.00  0.00     0.031 A 
HETATM    7  C21 UNL     1      24.526   4.073  50.532  1.00  0.00     0.023 A 
ENDROOT
BRANCH   6   8
HETATM    8  N1  UNL     1      24.860   3.143  52.764  1.00  0.00    -0.340 N 
HETATM    9  H5  UNL     1      24.836   4.021  53.298  1.00  0.00     0.167 HD
BRANCH   8  10
HETATM   10  C7  UNL     1      24.593   1.808  53.162  1.00  0.00     0.142 A 
HETATM   11  N2  UNL     1      25.621   1.093  53.654  1.00  0.00    -0.224 NA
HETATM   12  C8  UNL     1      25.447  -0.199  54.060  1.00  0.00     0.236 A 
HETATM   13  N3  UNL     1      24.225  -0.804  53.977  1.00  0.00    -0.241 NA
HETATM   14  C9  UNL     1      23.212  -0.078  53.485  1.00  0.00     0.075 A 
HETATM   15  C10 UNL     1      21.977  -0.635  53.382  1.00  0.00     0.072 A 
HETATM   16  C20 UNL     1      23.353   1.227  53.067  1.00  0.00     0.042 A 
HETATM   17  C11 UNL     1      20.844  -0.028  52.902  1.00  0.00     0.104 A 
HETATM   18  C15 UNL     1      21.049   1.293  52.494  1.00  0.00     0.103 A 
HETATM   19  C19 UNL     1      22.289   1.932  52.569  1.00  0.00     0.057 A 
BRANCH  17  20
HETATM   20  O1  UNL     1      19.555  -0.424  52.734  1.00  0.00    -0.346 OA
BRANCH  20  21
HETATM   21  C12 UNL     1      18.817  -1.280  53.502  1.00  0.00     0.201 C 
BRANCH  21  22
HETATM   22  C13 UNL     1      17.409  -1.557  53.102  1.00  0.00     0.193 C 
BRANCH  22  23
HETATM   23  O2  UNL     1      16.588  -0.441  53.055  1.00  0.00    -0.394 OA
HETATM   24  C14 UNL     1      16.134  -0.118  51.792  1.00  0.00     0.201 C 
ENDBRANCH  22  23
ENDBRANCH  21  22
ENDBRANCH  20  21
ENDBRANCH  17  20
BRANCH  18  25
HETATM   25  O3  UNL     1      20.033   2.083  51.978  1.00  0.00    -0.346 OA
BRANCH  25  26
HETATM   26  C16 UNL     1      20.165   2.751  50.743  1.00  0.00     0.201 C 
BRANCH  26  27
HETATM   27  C17 UNL     1      19.795   1.781  49.671  1.00  0.00     0.193 C 
BRANCH  27  28
HETATM   28  O4  UNL     1      20.835   0.983  49.222  1.00  0.00    -0.394 OA
HETATM   29  C18 UNL     1      21.892   1.703  48.717  1.00  0.00     0.201 C 
ENDBRANCH  27  28
ENDBRANCH  26  27
ENDBRANCH  25  26
ENDBRANCH  18  25
ENDBRANCH   8  10
ENDBRANCH   6   8
TORSDOF 10
ENDMDL
MODEL 9
REMARK VINA RESULT:      -6.3      2.960      6.775
REMARK  10 active torsions:
REMARK  status: ('A' for Active; 'I' for Inactive)
REMARK    1  A    between atoms: C6_6  and  N1_7 
REMARK    2  A    between atoms: N1_7  and  C7_8 
REMARK    3  A    between atoms: C11_14  and  O1_15 
REMARK    4  A    between atoms: O1_15  and  C12_16 
REMARK    5  A    between atoms: C12_16  and  C13_17 
REMARK    6  A    between atoms: C13_17  and  O2_18 
REMARK    7  A    between atoms: C15_20  and  O3_21 
REMARK    8  A    between atoms: O3_21  and  C16_22 
REMARK    9  A    between atoms: C16_22  and  C17_23 
REMARK   10  A    between atoms: C17_23  and  O4_24 
ROOT
HETATM    1  C1  UNL     1      16.037  -1.230  51.865  1.00  0.00     0.013 C 
HETATM    2  C2  UNL     1      16.883  -0.580  51.302  1.00  0.00    -0.105 C 
HETATM    3  C3  UNL     1      17.910   0.238  50.618  1.00  0.00     0.111 A 
HETATM    4  C4  UNL     1      17.469   1.661  50.532  1.00  0.00    -0.004 A 
HETATM    5  C5  UNL     1      18.221   2.429  51.305  1.00  0.00     0.027 A 
HETATM    6  C6  UNL     1      19.242   1.608  51.991  1.00  0.00     0.031 A 
HETATM    7  C21 UNL     1      19.040   0.365  51.580  1.00  0.00     0.023 A 
ENDROOT
BRANCH   6   8
HETATM    8  N1  UNL     1      20.250   2.019  52.906  1.00  0.00    -0.340 N 
HETATM    9  H5  UNL     1      20.176   3.024  53.110  1.00  0.00     0.167 HD
BRANCH   8  10
HETATM   10  C7  UNL     1      21.162   1.041  53.381  1.00  0.00     0.142 A 
HETATM   11  N2  UNL     1      20.690   0.128  54.248  1.00  0.00    -0.224 NA
HETATM   12  C8  UNL     1      21.503  -0.847  54.752  1.00  0.00     0.236 A 
HETATM   13  N3  UNL     1      22.819  -0.921  54.391  1.00  0.00    -0.241 NA
HETATM   14  C9  UNL     1      23.272  -0.004  53.528  1.00  0.00     0.075 A 
HETATM   15  C10 UNL     1      24.574  -0.035  53.138  1.00  0.00     0.072 A 
HETATM   16  C20 UNL     1      22.480   0.992  53.000  1.00  0.00     0.042 A 
HETATM   17  C11 UNL     1      25.187   0.828  52.266  1.00  0.00     0.104 A 
HETATM   18  C15 UNL     1      24.334   1.816  51.765  1.00  0.00     0.103 A 
HETATM   19  C19 UNL     1      22.985   1.911  52.120  1.00  0.00     0.057 A 
BRANCH  17  20
HETATM   20  O1  UNL     1      26.449   0.941  51.773  1.00  0.00    -0.346 OA
BRANCH  20  21
HETATM   21  C12 UNL     1      27.590   1.314  52.425  1.00  0.00     0.201 C 
BRANCH  21  22
HETATM   22  C13 UNL     1      27.463   2.030  53.725  1.00  0.00     0.193 C 
BRANCH  22  23
HETATM   23  O2  UNL     1      27.705   1.250  54.845  1.00  0.00    -0.394 OA
HETATM   24  C14 UNL     1      28.537   0.172  54.623  1.00  0.00     0.201 C 
ENDBRANCH  22  23
ENDBRANCH  21  22
ENDBRANCH  20  21
ENDBRANCH  17  20
BRANCH  18  25
HETATM   25  O3  UNL     1      24.756   2.786  50.870  1.00  0.00    -0.346 OA
BRANCH  25  26
HETATM   26  C16 UNL     1      24.118   2.980  49.627  1.00  0.00     0.201 C 
BRANCH  26  27
HETATM   27  C17 UNL     1      23.867   4.444  49.480  1.00  0.00     0.193 C 
BRANCH  27  28
HETATM   28  O4  UNL     1      22.601   4.775  49.022  1.00  0.00    -0.394 OA
HETATM   29  C18 UNL     1      21.638   4.717  50.001  1.00  0.00     0.201 C 
ENDBRANCH  27  28
ENDBRANCH  26  27
ENDBRANCH  25  26
ENDBRANCH  18  25
ENDBRANCH   8  10
ENDBRANCH   6   8
TORSDOF 10
ENDMDL
