MODEL 1
REMARK VINA RESULT:      -9.4      0.000      0.000
REMARK  4 active torsions:
REMARK  status: ('A' for Active; 'I' for Inactive)
REMARK    1  A    between atoms: N1_7  and  C7_8 
REMARK    2  A    between atoms: C7_8  and  C8_9 
REMARK    3  A    between atoms: C8_9  and  N2_10 
REMARK    4  A    between atoms: N5_24  and  C18_25 
ROOT
HETATM    1  N2  UNL     1      23.706  -0.435  54.251  1.00  0.00    -0.301 N 
HETATM    2  C9  UNL     1      23.744   0.731  53.405  1.00  0.00     0.110 A 
HETATM    3  C10 UNL     1      22.608   1.312  53.028  1.00  0.00     0.016 A 
HETATM    4  C11 UNL     1      22.632   2.437  52.213  1.00  0.00     0.049 A 
HETATM    5  C12 UNL     1      21.423   2.990  51.860  1.00  0.00     0.088 A 
HETATM    6  C13 UNL     1      20.191   2.489  52.271  1.00  0.00     0.089 A 
HETATM    7  C14 UNL     1      20.166   1.373  53.081  1.00  0.00     0.072 A 
HETATM    8  C15 UNL     1      21.387   0.813  53.439  1.00  0.00     0.095 A 
HETATM    9  O1  UNL     1      21.312  -0.302  54.249  1.00  0.00    -0.260 OA
HETATM   10  C16 UNL     1      22.439  -0.967  54.685  1.00  0.00     0.372 A 
HETATM   11  O2  UNL     1      22.381  -1.984  55.425  1.00  0.00    -0.238 OA
HETATM   12  N3  UNL     1      19.103   3.090  51.880  1.00  0.00    -0.238 NA
HETATM   13  C17 UNL     1      19.118   4.230  51.053  1.00  0.00     0.256 A 
HETATM   14  N4  UNL     1      20.217   4.748  50.635  1.00  0.00    -0.160 NA
HETATM   15  N5  UNL     1      21.414   4.141  51.026  1.00  0.00    -0.233 N 
ENDROOT
BRANCH   1  16
HETATM   16  C8  UNL     1      24.893  -1.133  54.710  1.00  0.00     0.153 C 
BRANCH  16  17
HETATM   17  C7  UNL     1      25.940  -0.145  55.036  1.00  0.00     0.137 C 
BRANCH  17  18
HETATM   18  N1  UNL     1      27.130  -0.187  54.263  1.00  0.00    -0.407 N 
HETATM   19  C2  UNL     1      27.969   0.957  54.260  1.00  0.00     0.075 C 
HETATM   20  C1  UNL     1      29.300   0.562  53.647  1.00  0.00     0.032 C 
HETATM   21  C3  UNL     1      27.309   2.001  53.402  1.00  0.00     0.024 C 
HETATM   22  C4  UNL     1      27.126   1.515  52.008  1.00  0.00     0.004 C 
HETATM   23  C5  UNL     1      26.793   0.082  51.830  1.00  0.00     0.019 C 
HETATM   24  C6  UNL     1      26.967  -0.826  52.995  1.00  0.00     0.117 C 
ENDBRANCH  17  18
ENDBRANCH  16  17
ENDBRANCH   1  16
BRANCH  15  25
HETATM   25  C18 UNL     1      22.597   4.773  50.523  1.00  0.00     0.062 A 
HETATM   26  C19 UNL     1      23.004   5.877  51.128  1.00  0.00     0.032 A 
HETATM   27  C20 UNL     1      24.208   6.379  50.494  1.00  0.00     0.042 A 
HETATM   28  C21 UNL     1      24.507   5.539  49.489  1.00  0.00     0.118 A 
HETATM   29  F1  UNL     1      25.486   5.472  48.555  1.00  0.00    -0.209 F 
HETATM   30  C22 UNL     1      23.514   4.438  49.410  1.00  0.00     0.196 A 
HETATM   31 CL1  UNL     1      22.589   4.530  47.893  1.00  0.00    -0.111 Cl
ENDBRANCH  15  25
TORSDOF 4
ENDMDL
MODEL 2
REMARK VINA RESULT:      -9.1      2.181      2.640
REMARK  4 active torsions:
REMARK  status: ('A' for Active; 'I' for Inactive)
REMARK    1  A    between atoms: N1_7  and  C7_8 
REMARK    2  A    between atoms: C7_8  and  C8_9 
REMARK    3  A    between atoms: C8_9  and  N2_10 
REMARK    4  A    between atoms: N5_24  and  C18_25 
ROOT
HETATM    1  N2  UNL     1      23.734  -0.675  54.198  1.00  0.00    -0.301 N 
HETATM    2  C9  UNL     1      23.362   0.029  52.997  1.00  0.00     0.110 A 
HETATM    3  C10 UNL     1      22.084   0.088  52.634  1.00  0.00     0.016 A 
HETATM    4  C11 UNL     1      21.713   0.765  51.478  1.00  0.00     0.049 A 
HETATM    5  C12 UNL     1      20.375   0.789  51.159  1.00  0.00     0.088 A 
HETATM    6  C13 UNL     1      19.383   0.180  51.924  1.00  0.00     0.089 A 
HETATM    7  C14 UNL     1      19.751  -0.491  53.071  1.00  0.00     0.072 A 
HETATM    8  C15 UNL     1      21.102  -0.517  53.395  1.00  0.00     0.095 A 
HETATM    9  O1  UNL     1      21.421  -1.200  54.551  1.00  0.00    -0.260 OA
HETATM   10  C16 UNL     1      22.720  -1.312  55.000  1.00  0.00     0.372 A 
HETATM   11  O2  UNL     1      23.021  -1.932  56.054  1.00  0.00    -0.238 OA
HETATM   12  N3  UNL     1      18.144   0.264  51.532  1.00  0.00    -0.238 NA
HETATM   13  C17 UNL     1      17.760   0.947  50.362  1.00  0.00     0.256 A 
HETATM   14  N4  UNL     1      18.619   1.532  49.608  1.00  0.00    -0.160 NA
HETATM   15  N5  UNL     1      19.964   1.473  49.982  1.00  0.00    -0.233 N 
ENDROOT
BRANCH   1  16
HETATM   16  C8  UNL     1      25.102  -0.791  54.669  1.00  0.00     0.153 C 
BRANCH  16  17
HETATM   17  C7  UNL     1      25.857   0.411  54.267  1.00  0.00     0.137 C 
BRANCH  17  18
HETATM   18  N1  UNL     1      27.052   0.206  53.529  1.00  0.00    -0.407 N 
HETATM   19  C2  UNL     1      28.161  -0.375  54.196  1.00  0.00     0.075 C 
HETATM   20  C1  UNL     1      29.178  -0.786  53.146  1.00  0.00     0.032 C 
HETATM   21  C3  UNL     1      28.756   0.680  55.088  1.00  0.00     0.024 C 
HETATM   22  C4  UNL     1      29.209   1.858  54.300  1.00  0.00     0.004 C 
HETATM   23  C5  UNL     1      28.387   2.246  53.131  1.00  0.00     0.019 C 
HETATM   24  C6  UNL     1      27.368   1.280  52.640  1.00  0.00     0.117 C 
ENDBRANCH  17  18
ENDBRANCH  16  17
ENDBRANCH   1  16
BRANCH  15  25
HETATM   25  C18 UNL     1      20.863   2.147  49.095  1.00  0.00     0.062 A 
HETATM   26  C19 UNL     1      21.608   1.400  48.296  1.00  0.00     0.032 A 
HETATM   27  C20 UNL     1      22.453   2.241  47.470  1.00  0.00     0.042 A 
HETATM   28  C21 UNL     1      22.190   3.515  47.801  1.00  0.00     0.118 A 
HETATM   29  F1  UNL     1      22.644   4.725  47.395  1.00  0.00    -0.209 F 
HETATM   30  C22 UNL     1      21.155   3.581  48.865  1.00  0.00     0.196 A 
HETATM   31 CL1  UNL     1      21.835   4.248  50.367  1.00  0.00    -0.111 Cl
ENDBRANCH  15  25
TORSDOF 4
ENDMDL
MODEL 3
REMARK VINA RESULT:      -9.0      4.956      7.689
REMARK  4 active torsions:
REMARK  status: ('A' for Active; 'I' for Inactive)
REMARK    1  A    between atoms: N1_7  and  C7_8 
REMARK    2  A    between atoms: C7_8  and  C8_9 
REMARK    3  A    between atoms: C8_9  and  N2_10 
REMARK    4  A    between atoms: N5_24  and  C18_25 
ROOT
HETATM    1  N2  UNL     1      26.303   4.722  49.264  1.00  0.00    -0.301 N 
HETATM    2  C9  UNL     1      26.740   3.584  50.031  1.00  0.00     0.110 A 
HETATM    3  C10 UNL     1      25.854   2.872  50.722  1.00  0.00     0.016 A 
HETATM    4  C11 UNL     1      26.263   1.772  51.465  1.00  0.00     0.049 A 
HETATM    5  C12 UNL     1      25.298   1.078  52.157  1.00  0.00     0.088 A 
HETATM    6  C13 UNL     1      23.946   1.416  52.152  1.00  0.00     0.089 A 
HETATM    7  C14 UNL     1      23.539   2.508  51.415  1.00  0.00     0.072 A 
HETATM    8  C15 UNL     1      24.514   3.209  50.715  1.00  0.00     0.095 A 
HETATM    9  O1  UNL     1      24.059   4.293  49.992  1.00  0.00    -0.260 OA
HETATM   10  C16 UNL     1      24.909   5.086  49.248  1.00  0.00     0.372 A 
HETATM   11  O2  UNL     1      24.503   6.076  48.585  1.00  0.00    -0.238 OA
HETATM   12  N3  UNL     1      23.113   0.691  52.843  1.00  0.00    -0.238 NA
HETATM   13  C17 UNL     1      23.519  -0.425  53.599  1.00  0.00     0.256 A 
HETATM   14  N4  UNL     1      24.748  -0.796  53.651  1.00  0.00    -0.160 NA
HETATM   15  N5  UNL     1      25.685  -0.051  52.928  1.00  0.00    -0.233 N 
ENDROOT
BRANCH   1  16
HETATM   16  C8  UNL     1      27.199   5.555  48.482  1.00  0.00     0.153 C 
BRANCH  16  17
HETATM   17  C7  UNL     1      28.577   5.044  48.617  1.00  0.00     0.137 C 
BRANCH  17  18
HETATM   18  N1  UNL     1      29.579   5.678  47.835  1.00  0.00    -0.407 N 
HETATM   19  C2  UNL     1      30.926   5.268  48.011  1.00  0.00     0.075 C 
HETATM   20  C1  UNL     1      31.743   5.836  46.865  1.00  0.00     0.032 C 
HETATM   21  C3  UNL     1      31.410   5.848  49.312  1.00  0.00     0.024 C 
HETATM   22  C4  UNL     1      31.338   7.334  49.298  1.00  0.00     0.004 C 
HETATM   23  C5  UNL     1      30.195   7.950  48.585  1.00  0.00     0.019 C 
HETATM   24  C6  UNL     1      29.384   7.086  47.685  1.00  0.00     0.117 C 
ENDBRANCH  17  18
ENDBRANCH  16  17
ENDBRANCH   1  16
BRANCH  15  25
HETATM   25  C18 UNL     1      27.032  -0.523  53.032  1.00  0.00     0.062 A 
HETATM   26  C19 UNL     1      27.268  -1.781  52.695  1.00  0.00     0.032 A 
HETATM   27  C20 UNL     1      28.676  -2.088  52.859  1.00  0.00     0.042 A 
HETATM   28  C21 UNL     1      29.275  -0.973  53.307  1.00  0.00     0.118 A 
HETATM   29  F1  UNL     1      30.543  -0.634  53.642  1.00  0.00    -0.209 F 
HETATM   30  C22 UNL     1      28.292   0.129  53.461  1.00  0.00     0.196 A 
HETATM   31 CL1  UNL     1      28.116   0.586  55.171  1.00  0.00    -0.111 Cl
ENDBRANCH  15  25
TORSDOF 4
ENDMDL
MODEL 4
REMARK VINA RESULT:      -8.9      2.861      6.532
REMARK  4 active torsions:
REMARK  status: ('A' for Active; 'I' for Inactive)
REMARK    1  A    between atoms: N1_7  and  C7_8 
REMARK    2  A    between atoms: C7_8  and  C8_9 
REMARK    3  A    between atoms: C8_9  and  N2_10 
REMARK    4  A    between atoms: N5_24  and  C18_25 
ROOT
HETATM    1  N2  UNL     1      21.413   1.599  50.015  1.00  0.00    -0.301 N 
HETATM    2  C9  UNL     1      22.646   1.439  50.744  1.00  0.00     0.110 A 
HETATM    3  C10 UNL     1      22.664   0.722  51.864  1.00  0.00     0.016 A 
HETATM    4  C11 UNL     1      23.847   0.560  52.574  1.00  0.00     0.049 A 
HETATM    5  C12 UNL     1      23.799  -0.193  53.724  1.00  0.00     0.088 A 
HETATM    6  C13 UNL     1      22.640  -0.795  54.209  1.00  0.00     0.089 A 
HETATM    7  C14 UNL     1      21.466  -0.636  53.504  1.00  0.00     0.072 A 
HETATM    8  C15 UNL     1      21.514   0.125  52.342  1.00  0.00     0.095 A 
HETATM    9  O1  UNL     1      20.314   0.256  51.671  1.00  0.00    -0.260 OA
HETATM   10  C16 UNL     1      20.205   0.982  50.503  1.00  0.00     0.372 A 
HETATM   11  O2  UNL     1      19.116   1.108  49.884  1.00  0.00    -0.238 OA
HETATM   12  N3  UNL     1      22.704  -1.490  55.310  1.00  0.00    -0.238 NA
HETATM   13  C17 UNL     1      23.899  -1.658  56.036  1.00  0.00     0.256 A 
HETATM   14  N4  UNL     1      25.005  -1.132  55.650  1.00  0.00    -0.160 NA
HETATM   15  N5  UNL     1      24.992  -0.377  54.474  1.00  0.00    -0.233 N 
ENDROOT
BRANCH   1  16
HETATM   16  C8  UNL     1      21.299   2.362  48.786  1.00  0.00     0.153 C 
BRANCH  16  17
HETATM   17  C7  UNL     1      22.612   2.955  48.461  1.00  0.00     0.137 C 
BRANCH  17  18
HETATM   18  N1  UNL     1      22.752   4.355  48.653  1.00  0.00    -0.407 N 
HETATM   19  C2  UNL     1      24.054   4.874  48.871  1.00  0.00     0.075 C 
HETATM   20  C1  UNL     1      23.989   6.383  48.722  1.00  0.00     0.032 C 
HETATM   21  C3  UNL     1      24.453   4.523  50.279  1.00  0.00     0.024 C 
HETATM   22  C4  UNL     1      23.510   5.112  51.267  1.00  0.00     0.004 C 
HETATM   23  C5  UNL     1      22.079   5.166  50.888  1.00  0.00     0.019 C 
HETATM   24  C6  UNL     1      21.723   4.928  49.463  1.00  0.00     0.117 C 
ENDBRANCH  17  18
ENDBRANCH  16  17
ENDBRANCH   1  16
BRANCH  15  25
HETATM   25  C18 UNL     1      26.260   0.178  54.105  1.00  0.00     0.062 A 
HETATM   26  C19 UNL     1      26.392   1.493  54.165  1.00  0.00     0.032 A 
HETATM   27  C20 UNL     1      27.731   1.880  53.762  1.00  0.00     0.042 A 
HETATM   28  C21 UNL     1      28.395   0.753  53.458  1.00  0.00     0.118 A 
HETATM   29  F1  UNL     1      29.647   0.463  53.029  1.00  0.00    -0.209 F 
HETATM   30  C22 UNL     1      27.527  -0.437  53.646  1.00  0.00     0.196 A 
HETATM   31 CL1  UNL     1      27.212  -1.242  52.092  1.00  0.00    -0.111 Cl
ENDBRANCH  15  25
TORSDOF 4
ENDMDL
MODEL 5
REMARK VINA RESULT:      -8.7      3.753      7.192
REMARK  4 active torsions:
REMARK  status: ('A' for Active; 'I' for Inactive)
REMARK    1  A    between atoms: N1_7  and  C7_8 
REMARK    2  A    between atoms: C7_8  and  C8_9 
REMARK    3  A    between atoms: C8_9  and  N2_10 
REMARK    4  A    between atoms: N5_24  and  C18_25 
ROOT
HETATM    1  N2  UNL     1      23.359   5.834  51.405  1.00  0.00    -0.301 N 
HETATM    2  C9  UNL     1      24.030   4.653  51.885  1.00  0.00     0.110 A 
HETATM    3  C10 UNL     1      23.326   3.560  52.168  1.00  0.00     0.016 A 
HETATM    4  C11 UNL     1      23.962   2.415  52.631  1.00  0.00     0.049 A 
HETATM    5  C12 UNL     1      23.177   1.319  52.904  1.00  0.00     0.088 A 
HETATM    6  C13 UNL     1      21.794   1.296  52.743  1.00  0.00     0.089 A 
HETATM    7  C14 UNL     1      21.162   2.432  52.282  1.00  0.00     0.072 A 
HETATM    8  C15 UNL     1      21.954   3.540  52.006  1.00  0.00     0.095 A 
HETATM    9  O1  UNL     1      21.277   4.652  51.548  1.00  0.00    -0.260 OA
HETATM   10  C16 UNL     1      21.928   5.827  51.232  1.00  0.00     0.372 A 
HETATM   11  O2  UNL     1      21.319   6.847  50.814  1.00  0.00    -0.238 OA
HETATM   12  N3  UNL     1      21.144   0.204  53.030  1.00  0.00    -0.238 NA
HETATM   13  C17 UNL     1      21.781  -0.960  53.501  1.00  0.00     0.256 A 
HETATM   14  N4  UNL     1      23.053  -1.012  53.674  1.00  0.00    -0.160 NA
HETATM   15  N5  UNL     1      23.799   0.133  53.380  1.00  0.00    -0.233 N 
ENDROOT
BRANCH   1  16
HETATM   16  C8  UNL     1      24.045   7.069  51.073  1.00  0.00     0.153 C 
BRANCH  16  17
HETATM   17  C7  UNL     1      25.238   6.757  50.261  1.00  0.00     0.137 C 
BRANCH  17  18
HETATM   18  N1  UNL     1      25.555   7.656  49.209  1.00  0.00    -0.407 N 
HETATM   19  C2  UNL     1      26.105   7.124  48.014  1.00  0.00     0.075 C 
HETATM   20  C1  UNL     1      26.051   8.205  46.950  1.00  0.00     0.032 C 
HETATM   21  C3  UNL     1      27.539   6.765  48.297  1.00  0.00     0.024 C 
HETATM   22  C4  UNL     1      28.320   7.960  48.716  1.00  0.00     0.004 C 
HETATM   23  C5  UNL     1      27.623   8.964  49.553  1.00  0.00     0.019 C 
HETATM   24  C6  UNL     1      26.141   8.880  49.658  1.00  0.00     0.117 C 
ENDBRANCH  17  18
ENDBRANCH  16  17
ENDBRANCH   1  16
BRANCH  15  25
HETATM   25  C18 UNL     1      25.208   0.001  53.597  1.00  0.00     0.062 A 
HETATM   26  C19 UNL     1      25.938  -0.471  52.600  1.00  0.00     0.032 A 
HETATM   27  C20 UNL     1      27.333  -0.538  52.989  1.00  0.00     0.042 A 
HETATM   28  C21 UNL     1      27.415  -0.090  54.252  1.00  0.00     0.118 A 
HETATM   29  F1  UNL     1      28.418   0.085  55.145  1.00  0.00    -0.209 F 
HETATM   30  C22 UNL     1      26.074   0.296  54.762  1.00  0.00     0.196 A 
HETATM   31 CL1  UNL     1      25.576  -0.769  56.097  1.00  0.00    -0.111 Cl
ENDBRANCH  15  25
TORSDOF 4
ENDMDL
MODEL 6
REMARK VINA RESULT:      -8.7      2.989      6.927
REMARK  4 active torsions:
REMARK  status: ('A' for Active; 'I' for Inactive)
REMARK    1  A    between atoms: N1_7  and  C7_8 
REMARK    2  A    between atoms: C7_8  and  C8_9 
REMARK    3  A    between atoms: C8_9  and  N2_10 
REMARK    4  A    between atoms: N5_24  and  C18_25 
ROOT
HETATM    1  N2  UNL     1      22.798   3.308  49.945  1.00  0.00    -0.301 N 
HETATM    2  C9  UNL     1      23.758   2.600  50.753  1.00  0.00     0.110 A 
HETATM    3  C10 UNL     1      23.339   1.774  51.707  1.00  0.00     0.016 A 
HETATM    4  C11 UNL     1      24.255   1.085  52.493  1.00  0.00     0.049 A 
HETATM    5  C12 UNL     1      23.756   0.247  53.462  1.00  0.00     0.088 A 
HETATM    6  C13 UNL     1      22.397   0.052  53.695  1.00  0.00     0.089 A 
HETATM    7  C14 UNL     1      21.487   0.735  52.916  1.00  0.00     0.072 A 
HETATM    8  C15 UNL     1      21.990   1.582  51.936  1.00  0.00     0.095 A 
HETATM    9  O1  UNL     1      21.041   2.243  51.181  1.00  0.00    -0.260 OA
HETATM   10  C16 UNL     1      21.388   3.118  50.173  1.00  0.00     0.372 A 
HETATM   11  O2  UNL     1      20.530   3.725  49.479  1.00  0.00    -0.238 OA
HETATM   12  N3  UNL     1      22.031  -0.767  54.640  1.00  0.00    -0.238 NA
HETATM   13  C17 UNL     1      22.953  -1.468  55.441  1.00  0.00     0.256 A 
HETATM   14  N4  UNL     1      24.221  -1.338  55.283  1.00  0.00    -0.160 NA
HETATM   15  N5  UNL     1      24.668  -0.471  54.282  1.00  0.00    -0.233 N 
ENDROOT
BRANCH   1  16
HETATM   16  C8  UNL     1      23.165   4.228  48.883  1.00  0.00     0.153 C 
BRANCH  16  17
HETATM   17  C7  UNL     1      23.814   5.414  49.474  1.00  0.00     0.137 C 
BRANCH  17  18
HETATM   18  N1  UNL     1      24.820   6.051  48.700  1.00  0.00    -0.407 N 
HETATM   19  C2  UNL     1      26.065   6.331  49.318  1.00  0.00     0.075 C 
HETATM   20  C1  UNL     1      27.058   6.700  48.231  1.00  0.00     0.032 C 
HETATM   21  C3  UNL     1      25.861   7.508  50.234  1.00  0.00     0.024 C 
HETATM   22  C4  UNL     1      25.399   8.704  49.479  1.00  0.00     0.004 C 
HETATM   23  C5  UNL     1      24.476   8.472  48.344  1.00  0.00     0.019 C 
HETATM   24  C6  UNL     1      24.319   7.080  47.843  1.00  0.00     0.117 C 
ENDBRANCH  17  18
ENDBRANCH  16  17
ENDBRANCH   1  16
BRANCH  15  25
HETATM   25  C18 UNL     1      26.092  -0.378  54.165  1.00  0.00     0.062 A 
HETATM   26  C19 UNL     1      26.719   0.457  54.978  1.00  0.00     0.032 A 
HETATM   27  C20 UNL     1      28.147   0.425  54.724  1.00  0.00     0.042 A 
HETATM   28  C21 UNL     1      28.354  -0.457  53.732  1.00  0.00     0.118 A 
HETATM   29  F1  UNL     1      29.441  -0.914  53.067  1.00  0.00    -0.209 F 
HETATM   30  C22 UNL     1      27.071  -1.052  53.280  1.00  0.00     0.196 A 
HETATM   31 CL1  UNL     1      26.710  -0.577  51.604  1.00  0.00    -0.111 Cl
ENDBRANCH  15  25
TORSDOF 4
ENDMDL
MODEL 7
REMARK VINA RESULT:      -8.6      2.985      7.778
REMARK  4 active torsions:
REMARK  status: ('A' for Active; 'I' for Inactive)
REMARK    1  A    between atoms: N1_7  and  C7_8 
REMARK    2  A    between atoms: C7_8  and  C8_9 
REMARK    3  A    between atoms: C8_9  and  N2_10 
REMARK    4  A    between atoms: N5_24  and  C18_25 
ROOT
HETATM    1  N2  UNL     1      18.757   0.118  51.404  1.00  0.00    -0.301 N 
HETATM    2  C9  UNL     1      20.167   0.402  51.484  1.00  0.00     0.110 A 
HETATM    3  C10 UNL     1      20.886  -0.093  52.487  1.00  0.00     0.016 A 
HETATM    4  C11 UNL     1      22.247   0.173  52.574  1.00  0.00     0.049 A 
HETATM    5  C12 UNL     1      22.933  -0.369  53.636  1.00  0.00     0.088 A 
HETATM    6  C13 UNL     1      22.343  -1.163  54.618  1.00  0.00     0.089 A 
HETATM    7  C14 UNL     1      20.992  -1.428  54.531  1.00  0.00     0.072 A 
HETATM    8  C15 UNL     1      20.298  -0.881  53.459  1.00  0.00     0.095 A 
HETATM    9  O1  UNL     1      18.950  -1.173  53.415  1.00  0.00    -0.260 OA
HETATM   10  C16 UNL     1      18.131  -0.701  52.411  1.00  0.00     0.372 A 
HETATM   11  O2  UNL     1      16.900  -0.963  52.362  1.00  0.00    -0.238 OA
HETATM   12  N3  UNL     1      23.085  -1.628  55.582  1.00  0.00    -0.238 NA
HETATM   13  C17 UNL     1      24.464  -1.362  55.678  1.00  0.00     0.256 A 
HETATM   14  N4  UNL     1      25.076  -0.639  54.811  1.00  0.00    -0.160 NA
HETATM   15  N5  UNL     1      24.326  -0.115  53.754  1.00  0.00    -0.233 N 
ENDROOT
BRANCH   1  16
HETATM   16  C8  UNL     1      17.896   0.616  50.346  1.00  0.00     0.153 C 
BRANCH  16  17
HETATM   17  C7  UNL     1      17.726   2.073  50.506  1.00  0.00     0.137 C 
BRANCH  17  18
HETATM   18  N1  UNL     1      16.417   2.593  50.327  1.00  0.00    -0.407 N 
HETATM   19  C2  UNL     1      16.223   3.990  50.478  1.00  0.00     0.075 C 
HETATM   20  C1  UNL     1      14.851   4.336  49.930  1.00  0.00     0.032 C 
HETATM   21  C3  UNL     1      16.271   4.298  51.950  1.00  0.00     0.024 C 
HETATM   22  C4  UNL     1      15.207   3.565  52.687  1.00  0.00     0.004 C 
HETATM   23  C5  UNL     1      14.879   2.198  52.220  1.00  0.00     0.019 C 
HETATM   24  C6  UNL     1      15.392   1.771  50.891  1.00  0.00     0.117 C 
ENDBRANCH  17  18
ENDBRANCH  16  17
ENDBRANCH   1  16
BRANCH  15  25
HETATM   25  C18 UNL     1      25.074   0.680  52.827  1.00  0.00     0.062 A 
HETATM   26  C19 UNL     1      26.291   0.268  52.513  1.00  0.00     0.032 A 
HETATM   27  C20 UNL     1      26.901   1.184  51.568  1.00  0.00     0.042 A 
HETATM   28  C21 UNL     1      26.008   2.158  51.327  1.00  0.00     0.118 A 
HETATM   29  F1  UNL     1      25.988   3.272  50.557  1.00  0.00    -0.209 F 
HETATM   30  C22 UNL     1      24.762   1.934  52.102  1.00  0.00     0.196 A 
HETATM   31 CL1  UNL     1      24.529   3.219  53.310  1.00  0.00    -0.111 Cl
ENDBRANCH  15  25
TORSDOF 4
ENDMDL
MODEL 8
REMARK VINA RESULT:      -8.5      6.398      8.653
REMARK  4 active torsions:
REMARK  status: ('A' for Active; 'I' for Inactive)
REMARK    1  A    between atoms: N1_7  and  C7_8 
REMARK    2  A    between atoms: C7_8  and  C8_9 
REMARK    3  A    between atoms: C8_9  and  N2_10 
REMARK    4  A    between atoms: N5_24  and  C18_25 
ROOT
HETATM    1  N2  UNL     1      25.989   4.420  49.545  1.00  0.00    -0.301 N 
HETATM    2  C9  UNL     1      27.377   4.519  49.174  1.00  0.00     0.110 A 
HETATM    3  C10 UNL     1      27.803   5.568  48.477  1.00  0.00     0.016 A 
HETATM    4  C11 UNL     1      29.140   5.675  48.115  1.00  0.00     0.049 A 
HETATM    5  C12 UNL     1      29.516   6.785  47.394  1.00  0.00     0.088 A 
HETATM    6  C13 UNL     1      28.638   7.797  47.013  1.00  0.00     0.089 A 
HETATM    7  C14 UNL     1      27.311   7.692  47.373  1.00  0.00     0.072 A 
HETATM    8  C15 UNL     1      26.930   6.571  48.101  1.00  0.00     0.095 A 
HETATM    9  O1  UNL     1      25.592   6.510  48.438  1.00  0.00    -0.260 OA
HETATM   10  C16 UNL     1      25.066   5.458  49.158  1.00  0.00     0.372 A 
HETATM   11  O2  UNL     1      23.848   5.394  49.471  1.00  0.00    -0.238 OA
HETATM   12  N3  UNL     1      29.098   8.807  46.331  1.00  0.00    -0.238 NA
HETATM   13  C17 UNL     1      30.451   8.922  45.959  1.00  0.00     0.256 A 
HETATM   14  N4  UNL     1      31.318   8.029  46.275  1.00  0.00    -0.160 NA
HETATM   15  N5  UNL     1      30.877   6.922  47.007  1.00  0.00    -0.233 N 
ENDROOT
BRANCH   1  16
HETATM   16  C8  UNL     1      25.437   3.313  50.304  1.00  0.00     0.153 C 
BRANCH  16  17
HETATM   17  C7  UNL     1      26.537   2.440  50.757  1.00  0.00     0.137 C 
BRANCH  17  18
HETATM   18  N1  UNL     1      26.598   2.149  52.146  1.00  0.00    -0.407 N 
HETATM   19  C2  UNL     1      27.383   1.044  52.565  1.00  0.00     0.075 C 
HETATM   20  C1  UNL     1      27.553   1.133  54.071  1.00  0.00     0.032 C 
HETATM   21  C3  UNL     1      26.625  -0.208  52.217  1.00  0.00     0.024 C 
HETATM   22  C4  UNL     1      25.305  -0.246  52.902  1.00  0.00     0.004 C 
HETATM   23  C5  UNL     1      24.589   1.041  53.061  1.00  0.00     0.019 C 
HETATM   24  C6  UNL     1      25.346   2.298  52.818  1.00  0.00     0.117 C 
ENDBRANCH  17  18
ENDBRANCH  16  17
ENDBRANCH   1  16
BRANCH  15  25
HETATM   25  C18 UNL     1      31.897   5.969  47.323  1.00  0.00     0.062 A 
HETATM   26  C19 UNL     1      32.696   6.244  48.342  1.00  0.00     0.032 A 
HETATM   27  C20 UNL     1      33.663   5.178  48.521  1.00  0.00     0.042 A 
HETATM   28  C21 UNL     1      33.418   4.257  47.575  1.00  0.00     0.118 A 
HETATM   29  F1  UNL     1      33.965   3.066  47.231  1.00  0.00    -0.209 F 
HETATM   30  C22 UNL     1      32.274   4.668  46.723  1.00  0.00     0.196 A 
HETATM   31 CL1  UNL     1      32.806   4.971  45.053  1.00  0.00    -0.111 Cl
ENDBRANCH  15  25
TORSDOF 4
ENDMDL
MODEL 9
REMARK VINA RESULT:      -8.3      2.365      6.624
REMARK  4 active torsions:
REMARK  status: ('A' for Active; 'I' for Inactive)
REMARK    1  A    between atoms: N1_7  and  C7_8 
REMARK    2  A    between atoms: C7_8  and  C8_9 
REMARK    3  A    between atoms: C8_9  and  N2_10 
REMARK    4  A    between atoms: N5_24  and  C18_25 
ROOT
HETATM    1  N2  UNL     1      18.996  -0.232  52.167  1.00  0.00    -0.301 N 
HETATM    2  C9  UNL     1      20.263   0.383  51.863  1.00  0.00     0.110 A 
HETATM    3  C10 UNL     1      21.337   0.079  52.587  1.00  0.00     0.016 A 
HETATM    4  C11 UNL     1      22.564   0.665  52.302  1.00  0.00     0.049 A 
HETATM    5  C12 UNL     1      23.635   0.308  53.089  1.00  0.00     0.088 A 
HETATM    6  C13 UNL     1      23.556  -0.599  54.142  1.00  0.00     0.089 A 
HETATM    7  C14 UNL     1      22.338  -1.181  54.425  1.00  0.00     0.072 A 
HETATM    8  C15 UNL     1      21.255  -0.822  53.631  1.00  0.00     0.095 A 
HETATM    9  O1  UNL     1      20.059  -1.430  53.952  1.00  0.00    -0.260 OA
HETATM   10  C16 UNL     1      18.897  -1.173  53.254  1.00  0.00     0.372 A 
HETATM   11  O2  UNL     1      17.800  -1.723  53.539  1.00  0.00    -0.238 OA
HETATM   12  N3  UNL     1      24.633  -0.868  54.825  1.00  0.00    -0.238 NA
HETATM   13  C17 UNL     1      25.880  -0.279  54.544  1.00  0.00     0.256 A 
HETATM   14  N4  UNL     1      26.028   0.566  53.588  1.00  0.00    -0.160 NA
HETATM   15  N5  UNL     1      24.904   0.891  52.823  1.00  0.00    -0.233 N 
ENDROOT
BRANCH   1  16
HETATM   16  C8  UNL     1      17.775   0.040  51.431  1.00  0.00     0.153 C 
BRANCH  16  17
HETATM   17  C7  UNL     1      18.118   0.636  50.126  1.00  0.00     0.137 C 
BRANCH  17  18
HETATM   18  N1  UNL     1      17.659   1.957  49.879  1.00  0.00    -0.407 N 
HETATM   19  C2  UNL     1      18.259   2.689  48.823  1.00  0.00     0.075 C 
HETATM   20  C1  UNL     1      17.401   3.911  48.551  1.00  0.00     0.032 C 
HETATM   21  C3  UNL     1      19.622   3.124  49.290  1.00  0.00     0.024 C 
HETATM   22  C4  UNL     1      19.526   3.984  50.501  1.00  0.00     0.004 C 
HETATM   23  C5  UNL     1      18.470   3.650  51.485  1.00  0.00     0.019 C 
HETATM   24  C6  UNL     1      17.399   2.704  51.069  1.00  0.00     0.117 C 
ENDBRANCH  17  18
ENDBRANCH  16  17
ENDBRANCH   1  16
BRANCH  15  25
HETATM   25  C18 UNL     1      25.145   1.837  51.777  1.00  0.00     0.062 A 
HETATM   26  C19 UNL     1      26.359   1.871  51.251  1.00  0.00     0.032 A 
HETATM   27  C20 UNL     1      26.426   2.880  50.211  1.00  0.00     0.042 A 
HETATM   28  C21 UNL     1      25.212   3.449  50.132  1.00  0.00     0.118 A 
HETATM   29  F1  UNL     1      24.659   4.428  49.376  1.00  0.00    -0.209 F 
HETATM   30  C22 UNL     1      24.281   2.844  51.117  1.00  0.00     0.196 A 
HETATM   31 CL1  UNL     1      23.797   4.036  52.345  1.00  0.00    -0.111 Cl
ENDBRANCH  15  25
TORSDOF 4
ENDMDL
