MODEL 1
REMARK VINA RESULT:      -8.3      0.000      0.000
REMARK  1 active torsions:
REMARK  status: ('A' for Active; 'I' for Inactive)
REMARK    1  A    between atoms: O1_2  and  C2_3 
ROOT
HETATM    1  C2  UNL     1      21.167   2.334  51.885  1.00  0.00     0.078 C 
HETATM    2  C3  UNL     1      21.992   3.085  52.570  1.00  0.00     0.051 C 
HETATM    3  C4  UNL     1      22.737   3.487  51.312  1.00  0.00     0.019 C 
HETATM    4  C5  UNL     1      23.787   4.192  51.726  1.00  0.00     0.141 C 
HETATM    5  N1  UNL     1      24.281   5.384  51.143  1.00  0.00    -0.224 NA
HETATM    6  C6  UNL     1      24.472   5.766  49.891  1.00  0.00     0.234 C 
HETATM    7  N2  UNL     1      24.022   5.328  48.591  1.00  0.00    -0.254 NA
HETATM    8  C7  UNL     1      22.987   4.665  48.209  1.00  0.00     0.118 C 
HETATM    9  C8  UNL     1      22.241   3.541  48.754  1.00  0.00     0.027 C 
HETATM   10  C9  UNL     1      22.307   2.967  49.933  1.00  0.00    -0.040 C 
HETATM   11  C10 UNL     1      21.886   1.445  49.917  1.00  0.00     0.081 C 
HETATM   12  C11 UNL     1      22.077   1.229  51.342  1.00  0.00     0.213 C 
HETATM   13  O2  UNL     1      22.238   0.448  52.323  1.00  0.00    -0.266 OA
HETATM   14  N3  UNL     1      23.097   1.226  53.161  1.00  0.00    -0.249 N 
HETATM   15  C12 UNL     1      24.243   2.119  53.031  1.00  0.00     0.139 C 
HETATM   16  C13 UNL     1      25.428   1.454  53.068  1.00  0.00     0.038 A 
HETATM   17  C14 UNL     1      26.723   2.114  52.958  1.00  0.00     0.017 A 
HETATM   18  C15 UNL     1      27.886   1.516  52.980  1.00  0.00     0.001 A 
HETATM   19  C16 UNL     1      27.949   0.087  53.127  1.00  0.00     0.002 A 
HETATM   20  C17 UNL     1      26.840  -0.618  53.236  1.00  0.00     0.032 A 
HETATM   21  C18 UNL     1      25.480  -0.020  53.219  1.00  0.00     0.062 A 
HETATM   22  N4  UNL     1      24.400  -0.694  53.326  1.00  0.00    -0.299 NA
HETATM   23  N5  UNL     1      24.388   3.532  52.872  1.00  0.00    -0.324 N 
HETATM   24  H11 UNL     1      22.449   0.822  53.923  1.00  0.00     0.196 HD
HETATM   25  H16 UNL     1      24.506  -1.728  53.429  1.00  0.00     0.187 HD
HETATM   26  H17 UNL     1      24.956   3.958  53.661  1.00  0.00     0.169 HD
ENDROOT
BRANCH   1  27
HETATM   27  O1  UNL     1      20.152   3.200  52.247  1.00  0.00    -0.357 OA
HETATM   28  C1  UNL     1      18.892   3.212  51.607  1.00  0.00     0.209 C 
ENDBRANCH   1  27
TORSDOF 1
ENDMDL
MODEL 2
REMARK VINA RESULT:      -7.7      2.774      4.816
REMARK  1 active torsions:
REMARK  status: ('A' for Active; 'I' for Inactive)
REMARK    1  A    between atoms: O1_2  and  C2_3 
ROOT
HETATM    1  C2  UNL     1      24.560   3.582  51.147  1.00  0.00     0.078 C 
HETATM    2  C3  UNL     1      23.895   2.895  50.252  1.00  0.00     0.051 C 
HETATM    3  C4  UNL     1      22.705   3.828  50.358  1.00  0.00     0.019 C 
HETATM    4  C5  UNL     1      21.750   3.279  49.614  1.00  0.00     0.141 C 
HETATM    5  N1  UNL     1      20.877   3.958  48.729  1.00  0.00    -0.224 NA
HETATM    6  C6  UNL     1      20.204   5.093  48.820  1.00  0.00     0.234 C 
HETATM    7  N2  UNL     1      20.255   6.268  49.658  1.00  0.00    -0.254 NA
HETATM    8  C7  UNL     1      21.201   6.797  50.353  1.00  0.00     0.118 C 
HETATM    9  C8  UNL     1      22.280   6.268  51.171  1.00  0.00     0.027 C 
HETATM   10  C9  UNL     1      22.727   5.039  51.301  1.00  0.00    -0.040 C 
HETATM   11  C10 UNL     1      23.389   4.755  52.706  1.00  0.00     0.081 C 
HETATM   12  C11 UNL     1      23.738   3.373  52.422  1.00  0.00     0.213 C 
HETATM   13  O2  UNL     1      24.067   2.219  52.820  1.00  0.00    -0.266 OA
HETATM   14  N3  UNL     1      23.419   1.394  51.848  1.00  0.00    -0.249 N 
HETATM   15  C12 UNL     1      22.155   1.338  51.123  1.00  0.00     0.139 C 
HETATM   16  C13 UNL     1      21.196   0.650  51.799  1.00  0.00     0.038 A 
HETATM   17  C14 UNL     1      19.844   0.450  51.294  1.00  0.00     0.017 A 
HETATM   18  C15 UNL     1      18.889  -0.196  51.911  1.00  0.00     0.001 A 
HETATM   19  C16 UNL     1      19.143  -0.780  53.200  1.00  0.00     0.002 A 
HETATM   20  C17 UNL     1      20.332  -0.664  53.759  1.00  0.00     0.032 A 
HETATM   21  C18 UNL     1      21.470   0.053  53.129  1.00  0.00     0.062 A 
HETATM   22  N4  UNL     1      22.626   0.169  53.661  1.00  0.00    -0.299 NA
HETATM   23  N5  UNL     1      21.708   1.849  49.865  1.00  0.00    -0.324 N 
HETATM   24  H11 UNL     1      24.351   0.855  51.924  1.00  0.00     0.196 HD
HETATM   25  H16 UNL     1      22.752  -0.274  54.598  1.00  0.00     0.187 HD
HETATM   26  H17 UNL     1      21.375   1.071  49.223  1.00  0.00     0.169 HD
ENDROOT
BRANCH   1  27
HETATM   27  O1  UNL     1      25.460   3.916  50.153  1.00  0.00    -0.357 OA
HETATM   28  C1  UNL     1      26.508   3.058  49.750  1.00  0.00     0.209 C 
ENDBRANCH   1  27
TORSDOF 1
ENDMDL
MODEL 3
REMARK VINA RESULT:      -7.6      7.327     10.352
REMARK  1 active torsions:
REMARK  status: ('A' for Active; 'I' for Inactive)
REMARK    1  A    between atoms: O1_2  and  C2_3 
ROOT
HETATM    1  C2  UNL     1      31.673   8.400  47.558  1.00  0.00     0.078 C 
HETATM    2  C3  UNL     1      30.736   8.501  46.649  1.00  0.00     0.051 C 
HETATM    3  C4  UNL     1      30.070   9.637  47.401  1.00  0.00     0.019 C 
HETATM    4  C5  UNL     1      28.937   9.884  46.749  1.00  0.00     0.141 C 
HETATM    5  N1  UNL     1      28.401  11.160  46.448  1.00  0.00    -0.224 NA
HETATM    6  C6  UNL     1      28.287  12.278  47.144  1.00  0.00     0.234 C 
HETATM    7  N2  UNL     1      28.878  12.820  48.345  1.00  0.00    -0.254 NA
HETATM    8  C7  UNL     1      29.991  12.583  48.947  1.00  0.00     0.118 C 
HETATM    9  C8  UNL     1      30.775  11.385  49.201  1.00  0.00     0.027 C 
HETATM   10  C9  UNL     1      30.655  10.170  48.716  1.00  0.00    -0.040 C 
HETATM   11  C10 UNL     1      31.196   9.048  49.687  1.00  0.00     0.081 C 
HETATM   12  C11 UNL     1      30.902   7.937  48.797  1.00  0.00     0.213 C 
HETATM   13  O2  UNL     1      30.721   6.700  48.607  1.00  0.00    -0.266 OA
HETATM   14  N3  UNL     1      29.736   6.719  47.570  1.00  0.00    -0.249 N 
HETATM   15  C12 UNL     1      28.538   7.467  47.208  1.00  0.00     0.139 C 
HETATM   16  C13 UNL     1      27.410   6.944  47.758  1.00  0.00     0.038 A 
HETATM   17  C14 UNL     1      26.081   7.505  47.553  1.00  0.00     0.017 A 
HETATM   18  C15 UNL     1      24.971   7.042  48.066  1.00  0.00     0.001 A 
HETATM   19  C16 UNL     1      25.010   5.879  48.911  1.00  0.00     0.002 A 
HETATM   20  C17 UNL     1      26.158   5.284  49.169  1.00  0.00     0.032 A 
HETATM   21  C18 UNL     1      27.462   5.745  48.629  1.00  0.00     0.062 A 
HETATM   22  N4  UNL     1      28.580   5.174  48.871  1.00  0.00    -0.299 NA
HETATM   23  N5  UNL     1      28.296   8.626  46.407  1.00  0.00    -0.324 N 
HETATM   24  H11 UNL     1      30.348   5.911  47.199  1.00  0.00     0.196 HD
HETATM   25  H16 UNL     1      28.547   4.334  49.491  1.00  0.00     0.187 HD
HETATM   26  H17 UNL     1      27.631   8.416  45.607  1.00  0.00     0.169 HD
ENDROOT
BRANCH   1  27
HETATM   27  O1  UNL     1      32.582   8.807  46.599  1.00  0.00    -0.357 OA
HETATM   28  C1  UNL     1      33.830   9.384  46.925  1.00  0.00     0.209 C 
ENDBRANCH   1  27
TORSDOF 1
ENDMDL
MODEL 4
REMARK VINA RESULT:      -7.5      1.759      2.374
REMARK  1 active torsions:
REMARK  status: ('A' for Active; 'I' for Inactive)
REMARK    1  A    between atoms: O1_2  and  C2_3 
ROOT
HETATM    1  C2  UNL     1      20.776   4.457  50.078  1.00  0.00     0.078 C 
HETATM    2  C3  UNL     1      21.298   4.893  51.197  1.00  0.00     0.051 C 
HETATM    3  C4  UNL     1      22.602   5.235  50.505  1.00  0.00     0.019 C 
HETATM    4  C5  UNL     1      23.437   5.602  51.474  1.00  0.00     0.141 C 
HETATM    5  N1  UNL     1      24.342   6.691  51.437  1.00  0.00    -0.224 NA
HETATM    6  C6  UNL     1      25.161   7.153  50.506  1.00  0.00     0.234 C 
HETATM    7  N2  UNL     1      25.307   6.994  49.079  1.00  0.00    -0.254 NA
HETATM    8  C7  UNL     1      24.477   6.660  48.153  1.00  0.00     0.118 C 
HETATM    9  C8  UNL     1      23.383   5.706  48.064  1.00  0.00     0.027 C 
HETATM   10  C9  UNL     1      22.789   5.001  49.000  1.00  0.00    -0.040 C 
HETATM   11  C10 UNL     1      22.172   3.647  48.473  1.00  0.00     0.081 C 
HETATM   12  C11 UNL     1      21.632   3.228  49.756  1.00  0.00     0.213 C 
HETATM   13  O2  UNL     1      21.178   2.324  50.514  1.00  0.00    -0.266 OA
HETATM   14  N3  UNL     1      21.660   2.761  51.788  1.00  0.00    -0.249 N 
HETATM   15  C12 UNL     1      22.865   3.345  52.363  1.00  0.00     0.139 C 
HETATM   16  C13 UNL     1      23.761   2.404  52.763  1.00  0.00     0.038 A 
HETATM   17  C14 UNL     1      25.047   2.726  53.370  1.00  0.00     0.017 A 
HETATM   18  C15 UNL     1      25.942   1.857  53.762  1.00  0.00     0.001 A 
HETATM   19  C16 UNL     1      25.684   0.451  53.607  1.00  0.00     0.002 A 
HETATM   20  C17 UNL     1      24.552   0.039  53.071  1.00  0.00     0.032 A 
HETATM   21  C18 UNL     1      23.485   0.957  52.597  1.00  0.00     0.062 A 
HETATM   22  N4  UNL     1      22.384   0.568  52.078  1.00  0.00    -0.299 NA
HETATM   23  N5  UNL     1      23.307   4.686  52.593  1.00  0.00    -0.324 N 
HETATM   24  H11 UNL     1      20.672   2.447  52.087  1.00  0.00     0.196 HD
HETATM   25  H16 UNL     1      22.251  -0.464  51.990  1.00  0.00     0.187 HD
HETATM   26  H17 UNL     1      23.501   4.862  53.622  1.00  0.00     0.169 HD
ENDROOT
BRANCH   1  27
HETATM   27  O1  UNL     1      19.875   5.502  50.144  1.00  0.00    -0.357 OA
HETATM   28  C1  UNL     1      19.216   6.017  49.005  1.00  0.00     0.209 C 
ENDBRANCH   1  27
TORSDOF 1
ENDMDL
MODEL 5
REMARK VINA RESULT:      -7.5      8.054     10.920
REMARK  1 active torsions:
REMARK  status: ('A' for Active; 'I' for Inactive)
REMARK    1  A    between atoms: O1_2  and  C2_3 
ROOT
HETATM    1  C2  UNL     1      32.272   8.699  46.822  1.00  0.00     0.078 C 
HETATM    2  C3  UNL     1      32.010   8.053  47.930  1.00  0.00     0.051 C 
HETATM    3  C4  UNL     1      31.929   6.732  47.192  1.00  0.00     0.019 C 
HETATM    4  C5  UNL     1      31.517   5.842  48.091  1.00  0.00     0.141 C 
HETATM    5  N1  UNL     1      32.009   4.524  48.256  1.00  0.00    -0.224 NA
HETATM    6  C6  UNL     1      32.330   3.567  47.402  1.00  0.00     0.234 C 
HETATM    7  N2  UNL     1      32.619   3.488  45.990  1.00  0.00    -0.254 NA
HETATM    8  C7  UNL     1      33.041   4.359  45.141  1.00  0.00     0.118 C 
HETATM    9  C8  UNL     1      32.789   5.775  44.926  1.00  0.00     0.027 C 
HETATM   10  C9  UNL     1      32.164   6.652  45.677  1.00  0.00    -0.040 C 
HETATM   11  C10 UNL     1      31.515   7.835  44.857  1.00  0.00     0.081 C 
HETATM   12  C11 UNL     1      30.981   8.534  46.014  1.00  0.00     0.213 C 
HETATM   13  O2  UNL     1      30.189   9.382  46.516  1.00  0.00    -0.266 OA
HETATM   14  N3  UNL     1      29.892   8.773  47.776  1.00  0.00    -0.249 N 
HETATM   15  C12 UNL     1      29.623   7.446  48.317  1.00  0.00     0.139 C 
HETATM   16  C13 UNL     1      28.304   7.121  48.271  1.00  0.00     0.038 A 
HETATM   17  C14 UNL     1      27.772   5.851  48.749  1.00  0.00     0.017 A 
HETATM   18  C15 UNL     1      26.514   5.493  48.718  1.00  0.00     0.001 A 
HETATM   19  C16 UNL     1      25.531   6.393  48.178  1.00  0.00     0.002 A 
HETATM   20  C17 UNL     1      25.895   7.573  47.716  1.00  0.00     0.032 A 
HETATM   21  C18 UNL     1      27.299   8.057  47.711  1.00  0.00     0.062 A 
HETATM   22  N4  UNL     1      27.661   9.199  47.268  1.00  0.00    -0.299 NA
HETATM   23  N5  UNL     1      30.443   6.418  48.881  1.00  0.00    -0.324 N 
HETATM   24  H11 UNL     1      29.985   9.795  48.107  1.00  0.00     0.196 HD
HETATM   25  H16 UNL     1      26.905   9.810  46.887  1.00  0.00     0.187 HD
HETATM   26  H17 UNL     1      30.148   6.183  49.873  1.00  0.00     0.169 HD
ENDROOT
BRANCH   1  27
HETATM   27  O1  UNL     1      33.520   8.987  47.340  1.00  0.00    -0.357 OA
HETATM   28  C1  UNL     1      34.627   9.319  46.527  1.00  0.00     0.209 C 
ENDBRANCH   1  27
TORSDOF 1
ENDMDL
MODEL 6
REMARK VINA RESULT:      -7.4      7.627      9.570
REMARK  1 active torsions:
REMARK  status: ('A' for Active; 'I' for Inactive)
REMARK    1  A    between atoms: O1_2  and  C2_3 
ROOT
HETATM    1  C2  UNL     1      27.747   7.974  48.481  1.00  0.00     0.078 C 
HETATM    2  C3  UNL     1      28.623   8.420  49.346  1.00  0.00     0.051 C 
HETATM    3  C4  UNL     1      29.195   9.390  48.331  1.00  0.00     0.019 C 
HETATM    4  C5  UNL     1      30.262   9.931  48.912  1.00  0.00     0.141 C 
HETATM    5  N1  UNL     1      30.640  11.296  48.872  1.00  0.00    -0.224 NA
HETATM    6  C6  UNL     1      30.663  12.198  47.906  1.00  0.00     0.234 C 
HETATM    7  N2  UNL     1      30.074  12.332  46.594  1.00  0.00    -0.254 NA
HETATM    8  C7  UNL     1      29.024  11.816  46.058  1.00  0.00     0.118 C 
HETATM    9  C8  UNL     1      28.389  10.508  46.119  1.00  0.00     0.027 C 
HETATM   10  C9  UNL     1      28.619   9.486  46.911  1.00  0.00    -0.040 C 
HETATM   11  C10 UNL     1      28.251   8.094  46.265  1.00  0.00     0.081 C 
HETATM   12  C11 UNL     1      28.622   7.297  47.423  1.00  0.00     0.213 C 
HETATM   13  O2  UNL     1      28.929   6.184  47.938  1.00  0.00    -0.266 OA
HETATM   14  N3  UNL     1      29.855   6.590  48.949  1.00  0.00    -0.249 N 
HETATM   15  C12 UNL     1      30.945   7.544  49.119  1.00  0.00     0.139 C 
HETATM   16  C13 UNL     1      32.149   7.032  48.747  1.00  0.00     0.038 A 
HETATM   17  C14 UNL     1      33.397   7.781  48.818  1.00  0.00     0.017 A 
HETATM   18  C15 UNL     1      34.574   7.334  48.465  1.00  0.00     0.001 A 
HETATM   19  C16 UNL     1      34.704   5.994  47.959  1.00  0.00     0.002 A 
HETATM   20  C17 UNL     1      33.642   5.221  47.850  1.00  0.00     0.032 A 
HETATM   21  C18 UNL     1      32.270   5.649  48.226  1.00  0.00     0.062 A 
HETATM   22  N4  UNL     1      31.235   4.907  48.126  1.00  0.00    -0.299 NA
HETATM   23  N5  UNL     1      31.021   8.893  49.587  1.00  0.00    -0.324 N 
HETATM   24  H11 UNL     1      29.319   5.841  49.511  1.00  0.00     0.196 HD
HETATM   25  H16 UNL     1      31.389   3.944  47.752  1.00  0.00     0.187 HD
HETATM   26  H17 UNL     1      31.666   8.980  50.426  1.00  0.00     0.169 HD
ENDROOT
BRANCH   1  27
HETATM   27  O1  UNL     1      26.754   8.508  49.281  1.00  0.00    -0.357 OA
HETATM   28  C1  UNL     1      25.968   7.719  50.152  1.00  0.00     0.209 C 
ENDBRANCH   1  27
TORSDOF 1
ENDMDL
MODEL 7
REMARK VINA RESULT:      -7.4      2.599      4.023
REMARK  1 active torsions:
REMARK  status: ('A' for Active; 'I' for Inactive)
REMARK    1  A    between atoms: O1_2  and  C2_3 
ROOT
HETATM    1  C2  UNL     1      21.038   6.987  50.050  1.00  0.00     0.078 C 
HETATM    2  C3  UNL     1      21.872   7.079  51.055  1.00  0.00     0.051 C 
HETATM    3  C4  UNL     1      23.057   6.802  50.152  1.00  0.00     0.019 C 
HETATM    4  C5  UNL     1      24.108   6.693  50.961  1.00  0.00     0.141 C 
HETATM    5  N1  UNL     1      25.398   7.233  50.741  1.00  0.00    -0.224 NA
HETATM    6  C6  UNL     1      26.179   7.299  49.676  1.00  0.00     0.234 C 
HETATM    7  N2  UNL     1      26.007   7.153  48.250  1.00  0.00    -0.254 NA
HETATM    8  C7  UNL     1      24.983   7.287  47.481  1.00  0.00     0.118 C 
HETATM    9  C8  UNL     1      23.572   6.959  47.602  1.00  0.00     0.027 C 
HETATM   10  C9  UNL     1      22.873   6.574  48.645  1.00  0.00    -0.040 C 
HETATM   11  C10 UNL     1      21.619   5.690  48.272  1.00  0.00     0.081 C 
HETATM   12  C11 UNL     1      21.156   5.516  49.639  1.00  0.00     0.213 C 
HETATM   13  O2  UNL     1      20.457   4.897  50.492  1.00  0.00    -0.266 OA
HETATM   14  N3  UNL     1      21.281   5.001  51.656  1.00  0.00    -0.249 N 
HETATM   15  C12 UNL     1      22.694   4.929  52.009  1.00  0.00     0.139 C 
HETATM   16  C13 UNL     1      23.096   3.661  52.295  1.00  0.00     0.038 A 
HETATM   17  C14 UNL     1      24.460   3.318  52.676  1.00  0.00     0.017 A 
HETATM   18  C15 UNL     1      24.893   2.115  52.951  1.00  0.00     0.001 A 
HETATM   19  C16 UNL     1      23.986   1.001  52.890  1.00  0.00     0.002 A 
HETATM   20  C17 UNL     1      22.725   1.190  52.556  1.00  0.00     0.032 A 
HETATM   21  C18 UNL     1      22.152   2.520  52.227  1.00  0.00     0.062 A 
HETATM   22  N4  UNL     1      20.931   2.714  51.905  1.00  0.00    -0.299 NA
HETATM   23  N5  UNL     1      23.742   5.895  52.119  1.00  0.00    -0.324 N 
HETATM   24  H11 UNL     1      20.323   5.173  52.119  1.00  0.00     0.196 HD
HETATM   25  H16 UNL     1      20.318   1.869  51.875  1.00  0.00     0.187 HD
HETATM   26  H17 UNL     1      24.155   5.915  53.096  1.00  0.00     0.169 HD
ENDROOT
BRANCH   1  27
HETATM   27  O1  UNL     1      20.754   8.328  50.222  1.00  0.00    -0.357 OA
HETATM   28  C1  UNL     1      19.618   8.948  49.655  1.00  0.00     0.209 C 
ENDBRANCH   1  27
TORSDOF 1
ENDMDL
MODEL 8
REMARK VINA RESULT:      -7.3      8.065     11.593
REMARK  1 active torsions:
REMARK  status: ('A' for Active; 'I' for Inactive)
REMARK    1  A    between atoms: O1_2  and  C2_3 
ROOT
HETATM    1  C2  UNL     1      31.213   8.342  48.467  1.00  0.00     0.078 C 
HETATM    2  C3  UNL     1      30.738   9.196  49.339  1.00  0.00     0.051 C 
HETATM    3  C4  UNL     1      29.311   8.823  48.991  1.00  0.00     0.019 C 
HETATM    4  C5  UNL     1      28.542   9.675  49.665  1.00  0.00     0.141 C 
HETATM    5  N1  UNL     1      27.349   9.361  50.360  1.00  0.00    -0.224 NA
HETATM    6  C6  UNL     1      26.310   8.596  50.070  1.00  0.00     0.234 C 
HETATM    7  N2  UNL     1      26.028   7.539  49.128  1.00  0.00    -0.254 NA
HETATM    8  C7  UNL     1      26.787   6.708  48.504  1.00  0.00     0.118 C 
HETATM    9  C8  UNL     1      28.100   6.798  47.884  1.00  0.00     0.027 C 
HETATM   10  C9  UNL     1      29.004   7.749  47.938  1.00  0.00    -0.040 C 
HETATM   11  C10 UNL     1      29.932   7.809  46.662  1.00  0.00     0.081 C 
HETATM   12  C11 UNL     1      30.744   8.921  47.129  1.00  0.00     0.213 C 
HETATM   13  O2  UNL     1      31.554   9.864  46.896  1.00  0.00    -0.266 OA
HETATM   14  N3  UNL     1      31.137  10.834  47.860  1.00  0.00    -0.249 N 
HETATM   15  C12 UNL     1      29.899  11.358  48.425  1.00  0.00     0.139 C 
HETATM   16  C13 UNL     1      29.400  12.402  47.711  1.00  0.00     0.038 A 
HETATM   17  C14 UNL     1      28.172  13.103  48.064  1.00  0.00     0.017 A 
HETATM   18  C15 UNL     1      27.652  14.105  47.404  1.00  0.00     0.001 A 
HETATM   19  C16 UNL     1      28.309  14.597  46.223  1.00  0.00     0.002 A 
HETATM   20  C17 UNL     1      29.429  14.041  45.806  1.00  0.00     0.032 A 
HETATM   21  C18 UNL     1      30.086  12.900  46.494  1.00  0.00     0.062 A 
HETATM   22  N4  UNL     1      31.172  12.355  46.100  1.00  0.00    -0.299 NA
HETATM   23  N5  UNL     1      29.100  11.012  49.559  1.00  0.00    -0.324 N 
HETATM   24  H11 UNL     1      32.204  10.958  47.956  1.00  0.00     0.196 HD
HETATM   25  H16 UNL     1      31.605  12.753  45.236  1.00  0.00     0.187 HD
HETATM   26  H17 UNL     1      29.002  11.827  50.232  1.00  0.00     0.169 HD
ENDROOT
BRANCH   1  27
HETATM   27  O1  UNL     1      31.747   7.630  49.524  1.00  0.00    -0.357 OA
HETATM   28  C1  UNL     1      31.999   6.241  49.460  1.00  0.00     0.209 C 
ENDBRANCH   1  27
TORSDOF 1
ENDMDL
MODEL 9
REMARK VINA RESULT:      -7.3      2.183      5.790
REMARK  1 active torsions:
REMARK  status: ('A' for Active; 'I' for Inactive)
REMARK    1  A    between atoms: O1_2  and  C2_3 
ROOT
HETATM    1  C2  UNL     1      22.499   2.852  49.875  1.00  0.00     0.078 C 
HETATM    2  C3  UNL     1      23.638   2.954  49.237  1.00  0.00     0.051 C 
HETATM    3  C4  UNL     1      24.411   3.009  50.539  1.00  0.00     0.019 C 
HETATM    4  C5  UNL     1      25.672   3.261  50.198  1.00  0.00     0.141 C 
HETATM    5  N1  UNL     1      26.829   2.658  50.748  1.00  0.00    -0.224 NA
HETATM    6  C6  UNL     1      27.186   2.353  51.984  1.00  0.00     0.234 C 
HETATM    7  N2  UNL     1      26.515   2.201  53.253  1.00  0.00    -0.254 NA
HETATM    8  C7  UNL     1      25.294   1.932  53.562  1.00  0.00     0.118 C 
HETATM    9  C8  UNL     1      24.000   2.310  53.016  1.00  0.00     0.027 C 
HETATM   10  C9  UNL     1      23.695   2.920  51.894  1.00  0.00    -0.040 C 
HETATM   11  C10 UNL     1      22.345   3.735  51.967  1.00  0.00     0.081 C 
HETATM   12  C11 UNL     1      22.385   4.201  50.591  1.00  0.00     0.213 C 
HETATM   13  O2  UNL     1      22.000   5.001  49.690  1.00  0.00    -0.266 OA
HETATM   14  N3  UNL     1      23.186   5.124  48.901  1.00  0.00    -0.249 N 
HETATM   15  C12 UNL     1      24.627   5.237  49.097  1.00  0.00     0.139 C 
HETATM   16  C13 UNL     1      25.034   6.527  49.237  1.00  0.00     0.038 A 
HETATM   17  C14 UNL     1      26.425   6.912  49.446  1.00  0.00     0.017 A 
HETATM   18  C15 UNL     1      26.862   8.135  49.594  1.00  0.00     0.001 A 
HETATM   19  C16 UNL     1      25.932   9.232  49.554  1.00  0.00     0.002 A 
HETATM   20  C17 UNL     1      24.646   9.006  49.370  1.00  0.00     0.032 A 
HETATM   21  C18 UNL     1      24.067   7.649  49.195  1.00  0.00     0.062 A 
HETATM   22  N4  UNL     1      22.823   7.420  49.015  1.00  0.00    -0.299 NA
HETATM   23  N5  UNL     1      25.696   4.291  49.174  1.00  0.00    -0.324 N 
HETATM   24  H11 UNL     1      22.464   5.074  48.102  1.00  0.00     0.196 HD
HETATM   25  H16 UNL     1      22.195   8.254  48.995  1.00  0.00     0.187 HD
HETATM   26  H17 UNL     1      26.429   4.467  48.425  1.00  0.00     0.169 HD
ENDROOT
BRANCH   1  27
HETATM   27  O1  UNL     1      22.367   1.583  49.343  1.00  0.00    -0.357 OA
HETATM   28  C1  UNL     1      21.115   0.950  49.178  1.00  0.00     0.209 C 
ENDBRANCH   1  27
TORSDOF 1
ENDMDL
