MODEL 1
REMARK VINA RESULT:      -8.0      0.000      0.000
REMARK  8 active torsions:
REMARK  status: ('A' for Active; 'I' for Inactive)
REMARK    1  A    between atoms: C2_2  and  C3_3 
REMARK    2  A    between atoms: C4_4  and  N1_5 
REMARK    3  A    between atoms: N1_5  and  C5_6 
REMARK    4  A    between atoms: C12_16  and  C13_17 
REMARK    5  A    between atoms: C13_17  and  C14_18 
REMARK    6  A    between atoms: N4_19  and  C15_20 
REMARK    7  A    between atoms: C15_20  and  C17_22 
REMARK    8  A    between atoms: C17_22  and  C18_23 
ROOT
HETATM    1  C3  UNL     1      22.527   4.467  51.611  1.00  0.00     0.031 A 
HETATM    2  C4  UNL     1      23.110   5.321  50.659  1.00  0.00     0.141 A 
HETATM    3  N2  UNL     1      22.543   5.502  49.461  1.00  0.00    -0.224 NA
HETATM    4  C11 UNL     1      21.424   4.921  49.074  1.00  0.00     0.235 A 
HETATM    5  N3  UNL     1      20.889   4.129  49.966  1.00  0.00    -0.245 NA
HETATM    6  C12 UNL     1      21.340   3.842  51.217  1.00  0.00     0.059 A 
ENDROOT
BRANCH   6   7
HETATM    7  C13 UNL     1      21.016   3.109  52.272  1.00  0.00     0.094 C 
BRANCH   7   8
HETATM    8  C14 UNL     1      20.732   1.770  52.789  1.00  0.00     0.096 C 
HETATM    9  N4  UNL     1      21.786   1.287  53.263  1.00  0.00    -0.300 NA
BRANCH   9  10
HETATM   10  C15 UNL     1      22.105   0.051  53.885  1.00  0.00     0.107 C 
HETATM   11  C16 UNL     1      20.812  -0.696  54.131  1.00  0.00     0.034 C 
BRANCH  10  12
HETATM   12  C17 UNL     1      23.112  -0.795  53.126  1.00  0.00     0.065 C 
BRANCH  12  13
HETATM   13  C18 UNL     1      24.507  -0.331  53.385  1.00  0.00    -0.056 A 
HETATM   14  C19 UNL     1      25.154  -0.375  54.607  1.00  0.00     0.008 A 
HETATM   15  C20 UNL     1      26.450   0.086  54.719  1.00  0.00     0.019 A 
HETATM   16  C21 UNL     1      27.152   0.601  53.642  1.00  0.00     0.011 A 
HETATM   17 BR1  UNL     1      28.948   1.221  53.879  1.00  0.00    -0.051 Br
HETATM   18  C22 UNL     1      26.504   0.645  52.419  1.00  0.00     0.019 A 
HETATM   19  C23 UNL     1      25.205   0.187  52.292  1.00  0.00     0.008 A 
ENDBRANCH  12  13
ENDBRANCH  10  12
ENDBRANCH   9  10
ENDBRANCH   7   8
ENDBRANCH   6   7
BRANCH   1  20
HETATM   20  C2  UNL     1      23.280   4.480  52.677  1.00  0.00    -0.014 C 
HETATM   21  C1  UNL     1      24.267   3.470  53.103  1.00  0.00     0.037 C 
ENDBRANCH   1  20
BRANCH   2  22
HETATM   22  N1  UNL     1      24.308   6.077  50.791  1.00  0.00    -0.340 N 
HETATM   23  H5  UNL     1      24.343   6.890  51.425  1.00  0.00     0.167 HD
BRANCH  22  24
HETATM   24  C5  UNL     1      25.452   5.672  50.020  1.00  0.00     0.035 A 
HETATM   25  C6  UNL     1      25.808   4.340  50.068  1.00  0.00     0.029 A 
HETATM   26  C7  UNL     1      26.920   3.955  49.317  1.00  0.00     0.004 A 
HETATM   27  C8  UNL     1      27.622   4.892  48.561  1.00  0.00     0.024 A 
HETATM   28  C9  UNL     1      27.208   6.200  48.564  1.00  0.00     0.036 A 
HETATM   29 CL1  UNL     1      28.067   7.412  47.623  1.00  0.00    -0.084 Cl
HETATM   30  C10 UNL     1      26.112   6.642  49.289  1.00  0.00     0.053 A 
ENDBRANCH  22  24
ENDBRANCH   2  22
TORSDOF 8
ENDMDL
MODEL 2
REMARK VINA RESULT:      -7.8      3.025      5.504
REMARK  8 active torsions:
REMARK  status: ('A' for Active; 'I' for Inactive)
REMARK    1  A    between atoms: C2_2  and  C3_3 
REMARK    2  A    between atoms: C4_4  and  N1_5 
REMARK    3  A    between atoms: N1_5  and  C5_6 
REMARK    4  A    between atoms: C12_16  and  C13_17 
REMARK    5  A    between atoms: C13_17  and  C14_18 
REMARK    6  A    between atoms: N4_19  and  C15_20 
REMARK    7  A    between atoms: C15_20  and  C17_22 
REMARK    8  A    between atoms: C17_22  and  C18_23 
ROOT
HETATM    1  C3  UNL     1      24.584   3.342  51.298  1.00  0.00     0.031 A 
HETATM    2  C4  UNL     1      25.877   2.902  51.626  1.00  0.00     0.141 A 
HETATM    3  N2  UNL     1      26.865   2.939  50.723  1.00  0.00    -0.224 NA
HETATM    4  C11 UNL     1      26.724   3.376  49.486  1.00  0.00     0.235 A 
HETATM    5  N3  UNL     1      25.517   3.783  49.191  1.00  0.00    -0.245 NA
HETATM    6  C12 UNL     1      24.416   3.809  49.990  1.00  0.00     0.059 A 
ENDROOT
BRANCH   6   7
HETATM    7  C13 UNL     1      23.135   4.146  49.949  1.00  0.00     0.094 C 
BRANCH   7   8
HETATM    8  C14 UNL     1      21.835   3.930  49.315  1.00  0.00     0.096 C 
HETATM    9  N4  UNL     1      21.051   3.435  50.157  1.00  0.00    -0.300 NA
BRANCH   9  10
HETATM   10  C15 UNL     1      19.693   3.025  50.110  1.00  0.00     0.107 C 
HETATM   11  C16 UNL     1      19.076   3.592  48.850  1.00  0.00     0.034 C 
BRANCH  10  12
HETATM   12  C17 UNL     1      19.482   1.525  50.218  1.00  0.00     0.065 C 
BRANCH  12  13
HETATM   13  C18 UNL     1      20.223   0.961  51.385  1.00  0.00    -0.056 A 
HETATM   14  C19 UNL     1      19.842   1.080  52.710  1.00  0.00     0.008 A 
HETATM   15  C20 UNL     1      20.613   0.511  53.703  1.00  0.00     0.019 A 
HETATM   16  C21 UNL     1      21.776  -0.190  53.432  1.00  0.00     0.011 A 
HETATM   17 BR1  UNL     1      22.792  -0.950  54.866  1.00  0.00    -0.051 Br
HETATM   18  C22 UNL     1      22.156  -0.309  52.106  1.00  0.00     0.019 A 
HETATM   19  C23 UNL     1      21.394   0.257  51.100  1.00  0.00     0.008 A 
ENDBRANCH  12  13
ENDBRANCH  10  12
ENDBRANCH   9  10
ENDBRANCH   7   8
ENDBRANCH   6   7
BRANCH   1  20
HETATM   20  C2  UNL     1      23.831   3.199  52.354  1.00  0.00    -0.014 C 
HETATM   21  C1  UNL     1      23.253   4.257  53.206  1.00  0.00     0.037 C 
ENDBRANCH   1  20
BRANCH   2  22
HETATM   22  N1  UNL     1      26.327   2.381  52.872  1.00  0.00    -0.340 N 
HETATM   23  H5  UNL     1      26.325   2.976  53.715  1.00  0.00     0.167 HD
BRANCH  22  24
HETATM   24  C5  UNL     1      26.776   1.017  52.912  1.00  0.00     0.035 A 
HETATM   25  C6  UNL     1      25.857   0.038  52.590  1.00  0.00     0.029 A 
HETATM   26  C7  UNL     1      26.302  -1.284  52.632  1.00  0.00     0.004 A 
HETATM   27  C8  UNL     1      27.619  -1.578  52.985  1.00  0.00     0.024 A 
HETATM   28  C9  UNL     1      28.474  -0.550  53.292  1.00  0.00     0.036 A 
HETATM   29 CL1  UNL     1      30.142  -0.880  53.742  1.00  0.00    -0.084 Cl
HETATM   30  C10 UNL     1      28.091   0.782  53.268  1.00  0.00     0.053 A 
ENDBRANCH  22  24
ENDBRANCH   2  22
TORSDOF 8
ENDMDL
MODEL 3
REMARK VINA RESULT:      -7.7      4.399      6.651
REMARK  8 active torsions:
REMARK  status: ('A' for Active; 'I' for Inactive)
REMARK    1  A    between atoms: C2_2  and  C3_3 
REMARK    2  A    between atoms: C4_4  and  N1_5 
REMARK    3  A    between atoms: N1_5  and  C5_6 
REMARK    4  A    between atoms: C12_16  and  C13_17 
REMARK    5  A    between atoms: C13_17  and  C14_18 
REMARK    6  A    between atoms: N4_19  and  C15_20 
REMARK    7  A    between atoms: C15_20  and  C17_22 
REMARK    8  A    between atoms: C17_22  and  C18_23 
ROOT
HETATM    1  C3  UNL     1      23.134  -0.196  53.502  1.00  0.00     0.031 A 
HETATM    2  C4  UNL     1      24.512  -0.458  53.581  1.00  0.00     0.141 A 
HETATM    3  N2  UNL     1      25.033  -1.081  54.645  1.00  0.00    -0.224 NA
HETATM    4  C11 UNL     1      24.330  -1.494  55.681  1.00  0.00     0.235 A 
HETATM    5  N3  UNL     1      23.049  -1.246  55.599  1.00  0.00    -0.245 NA
HETATM    6  C12 UNL     1      22.372  -0.627  54.593  1.00  0.00     0.059 A 
ENDROOT
BRANCH   6   7
HETATM    7  C13 UNL     1      21.141  -0.258  54.271  1.00  0.00     0.094 C 
BRANCH   7   8
HETATM    8  C14 UNL     1      19.812  -0.687  53.836  1.00  0.00     0.096 C 
HETATM    9  N4  UNL     1      19.564  -0.170  52.723  1.00  0.00    -0.300 NA
BRANCH   9  10
HETATM   10  C15 UNL     1      18.453  -0.228  51.840  1.00  0.00     0.107 C 
HETATM   11  C16 UNL     1      17.322  -0.932  52.557  1.00  0.00     0.034 C 
BRANCH  10  12
HETATM   12  C17 UNL     1      18.020   1.117  51.283  1.00  0.00     0.065 C 
BRANCH  12  13
HETATM   13  C18 UNL     1      19.122   1.758  50.507  1.00  0.00    -0.056 A 
HETATM   14  C19 UNL     1      19.926   1.119  49.579  1.00  0.00     0.008 A 
HETATM   15  C20 UNL     1      20.915   1.824  48.923  1.00  0.00     0.019 A 
HETATM   16  C21 UNL     1      21.148   3.169  49.153  1.00  0.00     0.011 A 
HETATM   17 BR1  UNL     1      22.541   4.075  48.203  1.00  0.00    -0.051 Br
HETATM   18  C22 UNL     1      20.343   3.807  50.082  1.00  0.00     0.019 A 
HETATM   19  C23 UNL     1      19.348   3.114  50.747  1.00  0.00     0.008 A 
ENDBRANCH  12  13
ENDBRANCH  10  12
ENDBRANCH   9  10
ENDBRANCH   7   8
ENDBRANCH   6   7
BRANCH   1  20
HETATM   20  C2  UNL     1      22.904   0.410  52.369  1.00  0.00    -0.014 C 
HETATM   21  C1  UNL     1      22.860   1.862  52.110  1.00  0.00     0.037 C 
ENDBRANCH   1  20
BRANCH   2  22
HETATM   22  N1  UNL     1      25.513  -0.132  52.623  1.00  0.00    -0.340 N 
HETATM   23  H5  UNL     1      25.337  -0.277  51.617  1.00  0.00     0.167 HD
BRANCH  22  24
HETATM   24  C5  UNL     1      26.759   0.400  53.102  1.00  0.00     0.035 A 
HETATM   25  C6  UNL     1      26.801   1.747  53.399  1.00  0.00     0.029 A 
HETATM   26  C7  UNL     1      28.015   2.255  53.864  1.00  0.00     0.004 A 
HETATM   27  C8  UNL     1      29.122   1.419  54.012  1.00  0.00     0.024 A 
HETATM   28  C9  UNL     1      29.004   0.090  53.695  1.00  0.00     0.036 A 
HETATM   29 CL1  UNL     1      30.377  -0.996  53.868  1.00  0.00    -0.084 Cl
HETATM   30  C10 UNL     1      27.824  -0.472  53.230  1.00  0.00     0.053 A 
ENDBRANCH  22  24
ENDBRANCH   2  22
TORSDOF 8
ENDMDL
MODEL 4
REMARK VINA RESULT:      -7.6      1.930      2.647
REMARK  8 active torsions:
REMARK  status: ('A' for Active; 'I' for Inactive)
REMARK    1  A    between atoms: C2_2  and  C3_3 
REMARK    2  A    between atoms: C4_4  and  N1_5 
REMARK    3  A    between atoms: N1_5  and  C5_6 
REMARK    4  A    between atoms: C12_16  and  C13_17 
REMARK    5  A    between atoms: C13_17  and  C14_18 
REMARK    6  A    between atoms: N4_19  and  C15_20 
REMARK    7  A    between atoms: C15_20  and  C17_22 
REMARK    8  A    between atoms: C17_22  and  C18_23 
ROOT
HETATM    1  C3  UNL     1      24.679   4.491  49.502  1.00  0.00     0.031 A 
HETATM    2  C4  UNL     1      25.134   5.796  49.252  1.00  0.00     0.141 A 
HETATM    3  N2  UNL     1      24.476   6.603  48.411  1.00  0.00    -0.224 NA
HETATM    4  C11 UNL     1      23.379   6.264  47.762  1.00  0.00     0.235 A 
HETATM    5  N3  UNL     1      22.964   5.048  48.002  1.00  0.00    -0.245 NA
HETATM    6  C12 UNL     1      23.517   4.114  48.822  1.00  0.00     0.059 A 
ENDROOT
BRANCH   6   7
HETATM    7  C13 UNL     1      23.318   2.867  49.226  1.00  0.00     0.094 C 
BRANCH   7   8
HETATM    8  C14 UNL     1      22.387   1.911  49.823  1.00  0.00     0.096 C 
HETATM    9  N4  UNL     1      22.727   1.701  51.010  1.00  0.00    -0.300 NA
BRANCH   9  10
HETATM   10  C15 UNL     1      22.208   0.886  52.050  1.00  0.00     0.107 C 
HETATM   11  C16 UNL     1      20.964   0.200  51.530  1.00  0.00     0.034 C 
BRANCH  10  12
HETATM   12  C17 UNL     1      23.201  -0.105  52.630  1.00  0.00     0.065 C 
BRANCH  12  13
HETATM   13  C18 UNL     1      24.509   0.553  52.922  1.00  0.00    -0.056 A 
HETATM   14  C19 UNL     1      24.668   1.820  53.456  1.00  0.00     0.008 A 
HETATM   15  C20 UNL     1      25.935   2.318  53.682  1.00  0.00     0.019 A 
HETATM   16  C21 UNL     1      27.081   1.596  53.395  1.00  0.00     0.011 A 
HETATM   17 BR1  UNL     1      28.803   2.359  53.737  1.00  0.00    -0.051 Br
HETATM   18  C22 UNL     1      26.921   0.328  52.861  1.00  0.00     0.019 A 
HETATM   19  C23 UNL     1      25.657  -0.185  52.629  1.00  0.00     0.008 A 
ENDBRANCH  12  13
ENDBRANCH  10  12
ENDBRANCH   9  10
ENDBRANCH   7   8
ENDBRANCH   6   7
BRANCH   1  20
HETATM   20  C2  UNL     1      25.498   3.936  50.354  1.00  0.00    -0.014 C 
HETATM   21  C1  UNL     1      26.527   2.913  50.088  1.00  0.00     0.037 C 
ENDBRANCH   1  20
BRANCH   2  22
HETATM   22  N1  UNL     1      26.281   6.436  49.801  1.00  0.00    -0.340 N 
HETATM   23  H5  UNL     1      26.351   6.593  50.819  1.00  0.00     0.167 HD
BRANCH  22  24
HETATM   24  C5  UNL     1      27.322   6.847  48.901  1.00  0.00     0.035 A 
HETATM   25  C6  UNL     1      28.177   5.871  48.433  1.00  0.00     0.029 A 
HETATM   26  C7  UNL     1      29.186   6.279  47.559  1.00  0.00     0.004 A 
HETATM   27  C8  UNL     1      29.303   7.619  47.190  1.00  0.00     0.024 A 
HETATM   28  C9  UNL     1      28.415   8.533  47.697  1.00  0.00     0.036 A 
HETATM   29 CL1  UNL     1      28.530  10.232  47.256  1.00  0.00    -0.084 Cl
HETATM   30  C10 UNL     1      27.393   8.188  48.568  1.00  0.00     0.053 A 
ENDBRANCH  22  24
ENDBRANCH   2  22
TORSDOF 8
ENDMDL
MODEL 5
REMARK VINA RESULT:      -7.6      3.452      7.195
REMARK  8 active torsions:
REMARK  status: ('A' for Active; 'I' for Inactive)
REMARK    1  A    between atoms: C2_2  and  C3_3 
REMARK    2  A    between atoms: C4_4  and  N1_5 
REMARK    3  A    between atoms: N1_5  and  C5_6 
REMARK    4  A    between atoms: C12_16  and  C13_17 
REMARK    5  A    between atoms: C13_17  and  C14_18 
REMARK    6  A    between atoms: N4_19  and  C15_20 
REMARK    7  A    between atoms: C15_20  and  C17_22 
REMARK    8  A    between atoms: C17_22  and  C18_23 
ROOT
HETATM    1  C3  UNL     1      25.141   3.034  50.499  1.00  0.00     0.031 A 
HETATM    2  C4  UNL     1      25.693   2.842  51.776  1.00  0.00     0.141 A 
HETATM    3  N2  UNL     1      24.908   2.624  52.838  1.00  0.00    -0.224 NA
HETATM    4  C11 UNL     1      23.591   2.568  52.788  1.00  0.00     0.235 A 
HETATM    5  N3  UNL     1      23.087   2.746  51.596  1.00  0.00    -0.245 NA
HETATM    6  C12 UNL     1      23.745   2.977  50.427  1.00  0.00     0.059 A 
ENDROOT
BRANCH   6   7
HETATM    7  C13 UNL     1      23.496   3.190  49.143  1.00  0.00     0.094 C 
BRANCH   7   8
HETATM    8  C14 UNL     1      22.880   4.067  48.148  1.00  0.00     0.096 C 
HETATM    9  N4  UNL     1      23.085   5.258  48.475  1.00  0.00    -0.300 NA
BRANCH   9  10
HETATM   10  C15 UNL     1      22.731   6.508  47.901  1.00  0.00     0.107 C 
HETATM   11  C16 UNL     1      21.230   6.526  47.710  1.00  0.00     0.034 C 
BRANCH  10  12
HETATM   12  C17 UNL     1      23.217   7.719  48.677  1.00  0.00     0.065 C 
BRANCH  12  13
HETATM   13  C18 UNL     1      24.703   7.846  48.599  1.00  0.00    -0.056 A 
HETATM   14  C19 UNL     1      25.462   7.694  47.452  1.00  0.00     0.008 A 
HETATM   15  C20 UNL     1      26.833   7.837  47.509  1.00  0.00     0.019 A 
HETATM   16  C21 UNL     1      27.503   8.133  48.684  1.00  0.00     0.011 A 
HETATM   17 BR1  UNL     1      29.409   8.315  48.680  1.00  0.00    -0.051 Br
HETATM   18  C22 UNL     1      26.743   8.284  49.832  1.00  0.00     0.019 A 
HETATM   19  C23 UNL     1      25.367   8.143  49.791  1.00  0.00     0.008 A 
ENDBRANCH  12  13
ENDBRANCH  10  12
ENDBRANCH   9  10
ENDBRANCH   7   8
ENDBRANCH   6   7
BRANCH   1  20
HETATM   20  C2  UNL     1      26.123   3.220  49.660  1.00  0.00    -0.014 C 
HETATM   21  C1  UNL     1      26.660   4.501  49.161  1.00  0.00     0.037 C 
ENDBRANCH   1  20
BRANCH   2  22
HETATM   22  N1  UNL     1      27.069   2.850  52.136  1.00  0.00    -0.340 N 
HETATM   23  H5  UNL     1      27.644   3.692  51.976  1.00  0.00     0.167 HD
BRANCH  22  24
HETATM   24  C5  UNL     1      27.622   1.660  52.723  1.00  0.00     0.035 A 
HETATM   25  C6  UNL     1      28.645   1.820  53.635  1.00  0.00     0.029 A 
HETATM   26  C7  UNL     1      29.176   0.660  54.200  1.00  0.00     0.004 A 
HETATM   27  C8  UNL     1      28.678  -0.593  53.844  1.00  0.00     0.024 A 
HETATM   28  C9  UNL     1      27.658  -0.672  52.929  1.00  0.00     0.036 A 
HETATM   29 CL1  UNL     1      27.003  -2.234  52.453  1.00  0.00    -0.084 Cl
HETATM   30  C10 UNL     1      27.091   0.444  52.334  1.00  0.00     0.053 A 
ENDBRANCH  22  24
ENDBRANCH   2  22
TORSDOF 8
ENDMDL
MODEL 6
REMARK VINA RESULT:      -7.6      1.707      2.497
REMARK  8 active torsions:
REMARK  status: ('A' for Active; 'I' for Inactive)
REMARK    1  A    between atoms: C2_2  and  C3_3 
REMARK    2  A    between atoms: C4_4  and  N1_5 
REMARK    3  A    between atoms: N1_5  and  C5_6 
REMARK    4  A    between atoms: C12_16  and  C13_17 
REMARK    5  A    between atoms: C13_17  and  C14_18 
REMARK    6  A    between atoms: N4_19  and  C15_20 
REMARK    7  A    between atoms: C15_20  and  C17_22 
REMARK    8  A    between atoms: C17_22  and  C18_23 
ROOT
HETATM    1  C3  UNL     1      24.572   4.193  50.336  1.00  0.00     0.031 A 
HETATM    2  C4  UNL     1      24.933   5.550  50.347  1.00  0.00     0.141 A 
HETATM    3  N2  UNL     1      24.020   6.501  50.580  1.00  0.00    -0.224 NA
HETATM    4  C11 UNL     1      22.743   6.264  50.813  1.00  0.00     0.235 A 
HETATM    5  N3  UNL     1      22.418   4.998  50.801  1.00  0.00    -0.245 NA
HETATM    6  C12 UNL     1      23.222   3.922  50.581  1.00  0.00     0.059 A 
ENDROOT
BRANCH   6   7
HETATM    7  C13 UNL     1      23.157   2.600  50.509  1.00  0.00     0.094 C 
BRANCH   7   8
HETATM    8  C14 UNL     1      22.753   1.360  51.169  1.00  0.00     0.096 C 
HETATM    9  N4  UNL     1      22.986   1.459  52.396  1.00  0.00    -0.300 NA
BRANCH   9  10
HETATM   10  C15 UNL     1      22.803   0.588  53.502  1.00  0.00     0.107 C 
HETATM   11  C16 UNL     1      21.317   0.367  53.683  1.00  0.00     0.034 C 
BRANCH  10  12
HETATM   12  C17 UNL     1      23.562  -0.723  53.405  1.00  0.00     0.065 C 
BRANCH  12  13
HETATM   13  C18 UNL     1      25.032  -0.505  53.549  1.00  0.00    -0.056 A 
HETATM   14  C19 UNL     1      25.662   0.000  54.673  1.00  0.00     0.008 A 
HETATM   15  C20 UNL     1      27.033   0.155  54.684  1.00  0.00     0.019 A 
HETATM   16  C21 UNL     1      27.829  -0.179  53.601  1.00  0.00     0.011 A 
HETATM   17 BR1  UNL     1      29.725   0.066  53.695  1.00  0.00    -0.051 Br
HETATM   18  C22 UNL     1      27.198  -0.685  52.477  1.00  0.00     0.019 A 
HETATM   19  C23 UNL     1      25.824  -0.846  52.451  1.00  0.00     0.008 A 
ENDBRANCH  12  13
ENDBRANCH  10  12
ENDBRANCH   9  10
ENDBRANCH   7   8
ENDBRANCH   6   7
BRANCH   1  20
HETATM   20  C2  UNL     1      25.647   3.493  50.091  1.00  0.00    -0.014 C 
HETATM   21  C1  UNL     1      26.525   2.810  51.061  1.00  0.00     0.037 C 
ENDBRANCH   1  20
BRANCH   2  22
HETATM   22  N1  UNL     1      26.224   6.107  50.129  1.00  0.00    -0.340 N 
HETATM   23  H5  UNL     1      27.061   5.649  50.522  1.00  0.00     0.167 HD
BRANCH  22  24
HETATM   24  C5  UNL     1      26.318   7.312  49.352  1.00  0.00     0.035 A 
HETATM   25  C6  UNL     1      26.699   8.462  50.012  1.00  0.00     0.029 A 
HETATM   26  C7  UNL     1      26.789   9.629  49.251  1.00  0.00     0.004 A 
HETATM   27  C8  UNL     1      26.501   9.607  47.886  1.00  0.00     0.024 A 
HETATM   28  C9  UNL     1      26.127   8.424  47.300  1.00  0.00     0.036 A 
HETATM   29 CL1  UNL     1      25.756   8.356  45.582  1.00  0.00    -0.084 Cl
HETATM   30  C10 UNL     1      26.021   7.234  48.004  1.00  0.00     0.053 A 
ENDBRANCH  22  24
ENDBRANCH   2  22
TORSDOF 8
ENDMDL
MODEL 7
REMARK VINA RESULT:      -7.4      3.218      6.042
REMARK  8 active torsions:
REMARK  status: ('A' for Active; 'I' for Inactive)
REMARK    1  A    between atoms: C2_2  and  C3_3 
REMARK    2  A    between atoms: C4_4  and  N1_5 
REMARK    3  A    between atoms: N1_5  and  C5_6 
REMARK    4  A    between atoms: C12_16  and  C13_17 
REMARK    5  A    between atoms: C13_17  and  C14_18 
REMARK    6  A    between atoms: N4_19  and  C15_20 
REMARK    7  A    between atoms: C15_20  and  C17_22 
REMARK    8  A    between atoms: C17_22  and  C18_23 
ROOT
HETATM    1  C3  UNL     1      25.042   3.326  50.341  1.00  0.00     0.031 A 
HETATM    2  C4  UNL     1      25.657   3.080  51.580  1.00  0.00     0.141 A 
HETATM    3  N2  UNL     1      24.931   2.989  52.700  1.00  0.00    -0.224 NA
HETATM    4  C11 UNL     1      23.619   3.116  52.747  1.00  0.00     0.235 A 
HETATM    5  N3  UNL     1      23.057   3.344  51.590  1.00  0.00    -0.245 NA
HETATM    6  C12 UNL     1      23.651   3.463  50.372  1.00  0.00     0.059 A 
ENDROOT
BRANCH   6   7
HETATM    7  C13 UNL     1      23.338   3.689  49.104  1.00  0.00     0.094 C 
BRANCH   7   8
HETATM    8  C14 UNL     1      22.268   3.865  48.122  1.00  0.00     0.096 C 
HETATM    9  N4  UNL     1      21.172   3.594  48.665  1.00  0.00    -0.300 NA
BRANCH   9  10
HETATM   10  C15 UNL     1      19.827   3.589  48.210  1.00  0.00     0.107 C 
HETATM   11  C16 UNL     1      19.840   3.338  46.718  1.00  0.00     0.034 C 
BRANCH  10  12
HETATM   12  C17 UNL     1      18.919   2.615  48.940  1.00  0.00     0.065 C 
BRANCH  12  13
HETATM   13  C18 UNL     1      19.664   1.877  50.002  1.00  0.00    -0.056 A 
HETATM   14  C19 UNL     1      20.638   0.919  49.780  1.00  0.00     0.008 A 
HETATM   15  C20 UNL     1      21.258   0.306  50.850  1.00  0.00     0.019 A 
HETATM   16  C21 UNL     1      20.947   0.610  52.164  1.00  0.00     0.011 A 
HETATM   17 BR1  UNL     1      21.852  -0.286  53.594  1.00  0.00    -0.051 Br
HETATM   18  C22 UNL     1      19.972   1.568  52.385  1.00  0.00     0.019 A 
HETATM   19  C23 UNL     1      19.342   2.191  51.323  1.00  0.00     0.008 A 
ENDBRANCH  12  13
ENDBRANCH  10  12
ENDBRANCH   9  10
ENDBRANCH   7   8
ENDBRANCH   6   7
BRANCH   1  20
HETATM   20  C2  UNL     1      25.975   3.360  49.429  1.00  0.00    -0.014 C 
HETATM   21  C1  UNL     1      26.806   4.511  49.023  1.00  0.00     0.037 C 
ENDBRANCH   1  20
BRANCH   2  22
HETATM   22  N1  UNL     1      27.045   2.901  51.839  1.00  0.00    -0.340 N 
HETATM   23  H5  UNL     1      27.729   3.605  51.519  1.00  0.00     0.167 HD
BRANCH  22  24
HETATM   24  C5  UNL     1      27.453   1.723  52.553  1.00  0.00     0.035 A 
HETATM   25  C6  UNL     1      28.291   1.897  53.636  1.00  0.00     0.029 A 
HETATM   26  C7  UNL     1      28.683   0.748  54.324  1.00  0.00     0.004 A 
HETATM   27  C8  UNL     1      28.235  -0.508  53.917  1.00  0.00     0.024 A 
HETATM   28  C9  UNL     1      27.404  -0.602  52.830  1.00  0.00     0.036 A 
HETATM   29 CL1  UNL     1      26.818  -2.168  52.285  1.00  0.00    -0.084 Cl
HETATM   30  C10 UNL     1      26.980   0.503  52.107  1.00  0.00     0.053 A 
ENDBRANCH  22  24
ENDBRANCH   2  22
TORSDOF 8
ENDMDL
MODEL 8
REMARK VINA RESULT:      -7.4      4.191      8.485
REMARK  8 active torsions:
REMARK  status: ('A' for Active; 'I' for Inactive)
REMARK    1  A    between atoms: C2_2  and  C3_3 
REMARK    2  A    between atoms: C4_4  and  N1_5 
REMARK    3  A    between atoms: N1_5  and  C5_6 
REMARK    4  A    between atoms: C12_16  and  C13_17 
REMARK    5  A    between atoms: C13_17  and  C14_18 
REMARK    6  A    between atoms: N4_19  and  C15_20 
REMARK    7  A    between atoms: C15_20  and  C17_22 
REMARK    8  A    between atoms: C17_22  and  C18_23 
ROOT
HETATM    1  C3  UNL     1      26.231   6.336  49.244  1.00  0.00     0.031 A 
HETATM    2  C4  UNL     1      25.247   5.449  49.713  1.00  0.00     0.141 A 
HETATM    3  N2  UNL     1      24.346   5.841  50.622  1.00  0.00    -0.224 NA
HETATM    4  C11 UNL     1      24.296   7.051  51.143  1.00  0.00     0.235 A 
HETATM    5  N3  UNL     1      25.214   7.869  50.700  1.00  0.00    -0.245 NA
HETATM    6  C12 UNL     1      26.192   7.625  49.786  1.00  0.00     0.059 A 
ENDROOT
BRANCH   6   7
HETATM    7  C13 UNL     1      27.205   8.237  49.191  1.00  0.00     0.094 C 
BRANCH   7   8
HETATM    8  C14 UNL     1      28.405   9.057  49.357  1.00  0.00     0.096 C 
HETATM    9  N4  UNL     1      29.376   8.465  48.831  1.00  0.00    -0.300 NA
BRANCH   9  10
HETATM   10  C15 UNL     1      30.754   8.776  48.690  1.00  0.00     0.107 C 
HETATM   11  C16 UNL     1      30.912  10.275  48.821  1.00  0.00     0.034 C 
BRANCH  10  12
HETATM   12  C17 UNL     1      31.670   8.025  49.640  1.00  0.00     0.065 C 
BRANCH  12  13
HETATM   13  C18 UNL     1      32.357   6.896  48.945  1.00  0.00    -0.056 A 
HETATM   14  C19 UNL     1      31.815   5.643  48.719  1.00  0.00     0.008 A 
HETATM   15  C20 UNL     1      32.553   4.681  48.062  1.00  0.00     0.019 A 
HETATM   16  C21 UNL     1      33.839   4.912  47.605  1.00  0.00     0.011 A 
HETATM   17 BR1  UNL     1      34.799   3.523  46.701  1.00  0.00    -0.051 Br
HETATM   18  C22 UNL     1      34.382   6.166  47.831  1.00  0.00     0.019 A 
HETATM   19  C23 UNL     1      33.654   7.141  48.489  1.00  0.00     0.008 A 
ENDBRANCH  12  13
ENDBRANCH  10  12
ENDBRANCH   9  10
ENDBRANCH   7   8
ENDBRANCH   6   7
BRANCH   1  20
HETATM   20  C2  UNL     1      26.964   5.699  48.372  1.00  0.00    -0.014 C 
HETATM   21  C1  UNL     1      28.254   5.018  48.597  1.00  0.00     0.037 C 
ENDBRANCH   1  20
BRANCH   2  22
HETATM   22  N1  UNL     1      25.055   4.090  49.337  1.00  0.00    -0.340 N 
HETATM   23  H5  UNL     1      24.885   3.842  48.350  1.00  0.00     0.167 HD
BRANCH  22  24
HETATM   24  C5  UNL     1      25.106   3.090  50.368  1.00  0.00     0.035 A 
HETATM   25  C6  UNL     1      23.932   2.431  50.669  1.00  0.00     0.029 A 
HETATM   26  C7  UNL     1      23.990   1.461  51.672  1.00  0.00     0.004 A 
HETATM   27  C8  UNL     1      25.192   1.188  52.323  1.00  0.00     0.024 A 
HETATM   28  C9  UNL     1      26.319   1.885  51.968  1.00  0.00     0.036 A 
HETATM   29 CL1  UNL     1      27.854   1.570  52.767  1.00  0.00    -0.084 Cl
HETATM   30  C10 UNL     1      26.323   2.859  50.982  1.00  0.00     0.053 A 
ENDBRANCH  22  24
ENDBRANCH   2  22
TORSDOF 8
ENDMDL
MODEL 9
REMARK VINA RESULT:      -7.3      3.227      5.480
REMARK  8 active torsions:
REMARK  status: ('A' for Active; 'I' for Inactive)
REMARK    1  A    between atoms: C2_2  and  C3_3 
REMARK    2  A    between atoms: C4_4  and  N1_5 
REMARK    3  A    between atoms: N1_5  and  C5_6 
REMARK    4  A    between atoms: C12_16  and  C13_17 
REMARK    5  A    between atoms: C13_17  and  C14_18 
REMARK    6  A    between atoms: N4_19  and  C15_20 
REMARK    7  A    between atoms: C15_20  and  C17_22 
REMARK    8  A    between atoms: C17_22  and  C18_23 
ROOT
HETATM    1  C3  UNL     1      27.054   7.173  48.945  1.00  0.00     0.031 A 
HETATM    2  C4  UNL     1      28.258   7.702  48.451  1.00  0.00     0.141 A 
HETATM    3  N2  UNL     1      28.716   8.885  48.880  1.00  0.00    -0.224 NA
HETATM    4  C11 UNL     1      28.106   9.637  49.775  1.00  0.00     0.235 A 
HETATM    5  N3  UNL     1      26.987   9.136  50.229  1.00  0.00    -0.245 NA
HETATM    6  C12 UNL     1      26.393   7.958  49.895  1.00  0.00     0.059 A 
ENDROOT
BRANCH   6   7
HETATM    7  C13 UNL     1      25.313   7.246  50.181  1.00  0.00     0.094 C 
BRANCH   7   8
HETATM    8  C14 UNL     1      24.455   6.695  51.230  1.00  0.00     0.096 C 
HETATM    9  N4  UNL     1      24.243   5.485  50.986  1.00  0.00    -0.300 NA
BRANCH   9  10
HETATM   10  C15 UNL     1      23.500   4.468  51.641  1.00  0.00     0.107 C 
HETATM   11  C16 UNL     1      22.109   5.001  51.905  1.00  0.00     0.034 C 
BRANCH  10  12
HETATM   12  C17 UNL     1      23.468   3.139  50.908  1.00  0.00     0.065 C 
BRANCH  12  13
HETATM   13  C18 UNL     1      24.537   2.223  51.406  1.00  0.00    -0.056 A 
HETATM   14  C19 UNL     1      25.884   2.323  51.106  1.00  0.00     0.008 A 
HETATM   15  C20 UNL     1      26.777   1.412  51.632  1.00  0.00     0.019 A 
HETATM   16  C21 UNL     1      26.382   0.379  52.465  1.00  0.00     0.011 A 
HETATM   17 BR1  UNL     1      27.683  -0.846  53.153  1.00  0.00    -0.051 Br
HETATM   18  C22 UNL     1      25.034   0.279  52.765  1.00  0.00     0.019 A 
HETATM   19  C23 UNL     1      24.127   1.185  52.245  1.00  0.00     0.008 A 
ENDBRANCH  12  13
ENDBRANCH  10  12
ENDBRANCH   9  10
ENDBRANCH   7   8
ENDBRANCH   6   7
BRANCH   1  20
HETATM   20  C2  UNL     1      26.853   6.022  48.365  1.00  0.00    -0.014 C 
HETATM   21  C1  UNL     1      27.266   4.685  48.833  1.00  0.00     0.037 C 
ENDBRANCH   1  20
BRANCH   2  22
HETATM   22  N1  UNL     1      29.128   7.123  47.485  1.00  0.00    -0.340 N 
HETATM   23  H5  UNL     1      28.774   6.878  46.547  1.00  0.00     0.167 HD
BRANCH  22  24
HETATM   24  C5  UNL     1      30.498   6.897  47.857  1.00  0.00     0.035 A 
HETATM   25  C6  UNL     1      30.739   5.979  48.858  1.00  0.00     0.029 A 
HETATM   26  C7  UNL     1      32.071   5.765  49.213  1.00  0.00     0.004 A 
HETATM   27  C8  UNL     1      33.095   6.461  48.571  1.00  0.00     0.024 A 
HETATM   28  C9  UNL     1      32.777   7.360  47.585  1.00  0.00     0.036 A 
HETATM   29 CL1  UNL     1      34.040   8.257  46.752  1.00  0.00    -0.084 Cl
HETATM   30  C10 UNL     1      31.473   7.614  47.189  1.00  0.00     0.053 A 
ENDBRANCH  22  24
ENDBRANCH   2  22
TORSDOF 8
ENDMDL
