MODEL 1
REMARK VINA RESULT:      -8.7      0.000      0.000
REMARK  5 active torsions:
REMARK  status: ('A' for Active; 'I' for Inactive)
REMARK    1  A    between atoms: N3_9  and  C7_10 
REMARK    2  A    between atoms: C11_17  and  C12_18 
REMARK    3  A    between atoms: C12_18  and  O1_19 
REMARK    4  A    between atoms: O1_19  and  C13_20 
REMARK    5  A    between atoms: C13_20  and  C14_21 
ROOT
HETATM    1  C7  UNL     1      23.985  -0.320  53.858  1.00  0.00     0.158 A 
HETATM    2  N4  UNL     1      24.120  -1.096  54.976  1.00  0.00    -0.220 NA
HETATM    3  C8  UNL     1      22.996  -1.631  55.534  1.00  0.00     0.258 A 
HETATM    4  N5  UNL     1      21.768  -1.417  55.019  1.00  0.00    -0.161 NA
HETATM    5  N6  UNL     1      21.643  -0.666  53.941  1.00  0.00    -0.240 N 
HETATM    6  C9  UNL     1      20.637  -0.232  53.166  1.00  0.00     0.119 A 
HETATM    7  C10 UNL     1      21.114   0.559  52.143  1.00  0.00     0.031 A 
HETATM    8  C11 UNL     1      22.512   0.643  52.265  1.00  0.00    -0.001 A 
HETATM    9  C18 UNL     1      22.724  -0.125  53.370  1.00  0.00     0.112 A 
ENDROOT
BRANCH   1  10
HETATM   10  N3  UNL     1      25.316   0.025  53.504  1.00  0.00    -0.337 N 
HETATM   11  C2  UNL     1      25.947   1.034  54.350  1.00  0.00     0.207 C 
HETATM   12  N2  UNL     1      26.923   0.411  55.303  1.00  0.00    -0.290 N 
HETATM   13  C3  UNL     1      26.668   2.036  53.504  1.00  0.00     0.076 C 
HETATM   14  N1  UNL     1      28.179  -0.083  54.818  1.00  0.00    -0.189 NA
HETATM   15  H2  UNL     1      26.744   0.309  56.353  1.00  0.00     0.184 HD
HETATM   16  C1  UNL     1      28.623  -0.157  53.567  1.00  0.00     0.146 C 
HETATM   17  C5  UNL     1      27.472   0.329  52.723  1.00  0.00    -0.025 C 
HETATM   18  C4  UNL     1      27.399   1.571  52.297  1.00  0.00    -0.013 C 
HETATM   19  C6  UNL     1      26.227  -0.493  52.434  1.00  0.00     0.166 C 
ENDBRANCH   1  10
BRANCH   8  20
HETATM   20  C12 UNL     1      23.330   1.449  51.352  1.00  0.00     0.208 C 
BRANCH  20  21
HETATM   21  O1  UNL     1      23.621   2.696  51.896  1.00  0.00    -0.385 OA
BRANCH  21  22
HETATM   22  C13 UNL     1      23.724   3.621  50.880  1.00  0.00     0.183 C 
BRANCH  22  23
HETATM   23  C14 UNL     1      25.080   4.182  50.630  1.00  0.00     0.074 C 
HETATM   24  C15 UNL     1      25.726   3.575  49.401  1.00  0.00     0.047 C 
HETATM   25  C16 UNL     1      27.057   4.267  49.228  1.00  0.00     0.272 C 
HETATM   26  N7  UNL     1      26.922   5.537  48.550  1.00  0.00     0.092 N 
HETATM   27  C17 UNL     1      26.257   6.549  49.313  1.00  0.00     0.343 C 
HETATM   28  H21 UNL     1      26.438   5.446  47.627  1.00  0.00     0.316 HD
HETATM   29  S1  UNL     1      24.825   5.957  50.219  1.00  0.00    -0.133 SA
ENDBRANCH  22  23
ENDBRANCH  21  22
ENDBRANCH  20  21
ENDBRANCH   8  20
TORSDOF 5
ENDMDL
MODEL 2
REMARK VINA RESULT:      -7.8      2.735      5.228
REMARK  5 active torsions:
REMARK  status: ('A' for Active; 'I' for Inactive)
REMARK    1  A    between atoms: N3_9  and  C7_10 
REMARK    2  A    between atoms: C11_17  and  C12_18 
REMARK    3  A    between atoms: C12_18  and  O1_19 
REMARK    4  A    between atoms: O1_19  and  C13_20 
REMARK    5  A    between atoms: C13_20  and  C14_21 
ROOT
HETATM    1  C7  UNL     1      22.096   3.045  51.321  1.00  0.00     0.158 A 
HETATM    2  N4  UNL     1      21.152   3.997  51.049  1.00  0.00    -0.220 NA
HETATM    3  C8  UNL     1      19.933   3.894  51.651  1.00  0.00     0.258 A 
HETATM    4  N5  UNL     1      19.636   2.889  52.500  1.00  0.00    -0.161 NA
HETATM    5  N6  UNL     1      20.549   1.972  52.758  1.00  0.00    -0.240 N 
HETATM    6  C9  UNL     1      20.631   0.862  53.509  1.00  0.00     0.119 A 
HETATM    7  C10 UNL     1      21.873   0.278  53.382  1.00  0.00     0.031 A 
HETATM    8  C11 UNL     1      22.638   1.056  52.495  1.00  0.00    -0.001 A 
HETATM    9  C18 UNL     1      21.754   2.043  52.183  1.00  0.00     0.112 A 
ENDROOT
BRANCH   1  10
HETATM   10  N3  UNL     1      23.242   3.466  50.597  1.00  0.00    -0.337 N 
HETATM   11  C2  UNL     1      24.150   4.350  51.322  1.00  0.00     0.207 C 
HETATM   12  N2  UNL     1      25.368   3.612  51.792  1.00  0.00    -0.290 N 
HETATM   13  C3  UNL     1      24.578   5.482  50.440  1.00  0.00     0.076 C 
HETATM   14  N1  UNL     1      26.375   3.222  50.849  1.00  0.00    -0.189 NA
HETATM   15  H2  UNL     1      25.546   3.353  52.815  1.00  0.00     0.184 HD
HETATM   16  C1  UNL     1      26.375   3.343  49.526  1.00  0.00     0.146 C 
HETATM   17  C5  UNL     1      25.024   3.925  49.195  1.00  0.00    -0.025 C 
HETATM   18  C4  UNL     1      24.851   5.216  49.005  1.00  0.00    -0.013 C 
HETATM   19  C6  UNL     1      23.729   3.131  49.221  1.00  0.00     0.166 C 
ENDBRANCH   1  10
BRANCH   8  20
HETATM   20  C12 UNL     1      24.004   0.684  52.109  1.00  0.00     0.208 C 
BRANCH  20  21
HETATM   21  O1  UNL     1      24.902   0.890  53.153  1.00  0.00    -0.385 OA
BRANCH  21  22
HETATM   22  C13 UNL     1      25.512  -0.304  53.468  1.00  0.00     0.183 C 
BRANCH  22  23
HETATM   23  C14 UNL     1      26.884  -0.217  54.039  1.00  0.00     0.074 C 
HETATM   24  C15 UNL     1      27.912  -0.886  53.150  1.00  0.00     0.047 C 
HETATM   25  C16 UNL     1      29.254  -0.676  53.809  1.00  0.00     0.272 C 
HETATM   26  N7  UNL     1      29.809   0.623  53.501  1.00  0.00     0.092 N 
HETATM   27  C17 UNL     1      29.110   1.723  54.093  1.00  0.00     0.343 C 
HETATM   28  H21 UNL     1      29.881   0.791  52.471  1.00  0.00     0.316 HD
HETATM   29  S1  UNL     1      27.323   1.569  54.030  1.00  0.00    -0.133 SA
ENDBRANCH  22  23
ENDBRANCH  21  22
ENDBRANCH  20  21
ENDBRANCH   8  20
TORSDOF 5
ENDMDL
MODEL 3
REMARK VINA RESULT:      -7.7      2.096      2.283
REMARK  5 active torsions:
REMARK  status: ('A' for Active; 'I' for Inactive)
REMARK    1  A    between atoms: N3_9  and  C7_10 
REMARK    2  A    between atoms: C11_17  and  C12_18 
REMARK    3  A    between atoms: C12_18  and  O1_19 
REMARK    4  A    between atoms: O1_19  and  C13_20 
REMARK    5  A    between atoms: C13_20  and  C14_21 
ROOT
HETATM    1  C7  UNL     1      23.989  -0.283  53.845  1.00  0.00     0.158 A 
HETATM    2  N4  UNL     1      24.097  -1.058  54.966  1.00  0.00    -0.220 NA
HETATM    3  C8  UNL     1      22.958  -1.578  55.508  1.00  0.00     0.258 A 
HETATM    4  N5  UNL     1      21.741  -1.351  54.973  1.00  0.00    -0.161 NA
HETATM    5  N6  UNL     1      21.642  -0.601  53.891  1.00  0.00    -0.240 N 
HETATM    6  C9  UNL     1      20.653  -0.157  53.100  1.00  0.00     0.119 A 
HETATM    7  C10 UNL     1      21.156   0.626  52.083  1.00  0.00     0.031 A 
HETATM    8  C11 UNL     1      22.553   0.693  52.227  1.00  0.00    -0.001 A 
HETATM    9  C18 UNL     1      22.738  -0.075  53.336  1.00  0.00     0.112 A 
ENDROOT
BRANCH   1  10
HETATM   10  N3  UNL     1      25.329   0.045  53.511  1.00  0.00    -0.337 N 
HETATM   11  C2  UNL     1      25.970   1.023  54.384  1.00  0.00     0.207 C 
HETATM   12  N2  UNL     1      26.926   0.362  55.333  1.00  0.00    -0.290 N 
HETATM   13  C3  UNL     1      26.717   2.030  53.567  1.00  0.00     0.076 C 
HETATM   14  N1  UNL     1      28.177  -0.144  54.849  1.00  0.00    -0.189 NA
HETATM   15  H2  UNL     1      26.735   0.241  56.379  1.00  0.00     0.184 HD
HETATM   16  C1  UNL     1      28.632  -0.200  53.601  1.00  0.00     0.146 C 
HETATM   17  C5  UNL     1      27.498   0.326  52.757  1.00  0.00    -0.025 C 
HETATM   18  C4  UNL     1      27.452   1.578  52.357  1.00  0.00    -0.013 C 
HETATM   19  C6  UNL     1      26.242  -0.466  52.438  1.00  0.00     0.166 C 
ENDBRANCH   1  10
BRANCH   8  20
HETATM   20  C12 UNL     1      23.394   1.487  51.324  1.00  0.00     0.208 C 
BRANCH  20  21
HETATM   21  O1  UNL     1      22.696   2.572  50.801  1.00  0.00    -0.385 OA
BRANCH  21  22
HETATM   22  C13 UNL     1      23.146   2.826  49.524  1.00  0.00     0.183 C 
BRANCH  22  23
HETATM   23  C14 UNL     1      22.420   3.880  48.763  1.00  0.00     0.074 C 
HETATM   24  C15 UNL     1      23.330   5.025  48.369  1.00  0.00     0.047 C 
HETATM   25  C16 UNL     1      22.491   5.985  47.560  1.00  0.00     0.272 C 
HETATM   26  N7  UNL     1      22.380   5.575  46.178  1.00  0.00     0.092 N 
HETATM   27  C17 UNL     1      21.604   4.390  45.971  1.00  0.00     0.343 C 
HETATM   28  H21 UNL     1      23.315   5.442  45.728  1.00  0.00     0.316 HD
HETATM   29  S1  UNL     1      21.908   3.098  47.179  1.00  0.00    -0.133 SA
ENDBRANCH  22  23
ENDBRANCH  21  22
ENDBRANCH  20  21
ENDBRANCH   8  20
TORSDOF 5
ENDMDL
MODEL 4
REMARK VINA RESULT:      -7.5      3.274      7.636
REMARK  5 active torsions:
REMARK  status: ('A' for Active; 'I' for Inactive)
REMARK    1  A    between atoms: N3_9  and  C7_10 
REMARK    2  A    between atoms: C11_17  and  C12_18 
REMARK    3  A    between atoms: C12_18  and  O1_19 
REMARK    4  A    between atoms: O1_19  and  C13_20 
REMARK    5  A    between atoms: C13_20  and  C14_21 
ROOT
HETATM    1  C7  UNL     1      24.932   5.904  49.837  1.00  0.00     0.158 A 
HETATM    2  N4  UNL     1      24.401   7.164  49.876  1.00  0.00    -0.220 NA
HETATM    3  C8  UNL     1      25.128   8.192  49.353  1.00  0.00     0.258 A 
HETATM    4  N5  UNL     1      26.345   8.002  48.803  1.00  0.00    -0.161 NA
HETATM    5  N6  UNL     1      26.854   6.784  48.769  1.00  0.00    -0.240 N 
HETATM    6  C9  UNL     1      27.988   6.214  48.330  1.00  0.00     0.119 A 
HETATM    7  C10 UNL     1      27.977   4.857  48.574  1.00  0.00     0.031 A 
HETATM    8  C11 UNL     1      26.764   4.532  49.208  1.00  0.00    -0.001 A 
HETATM    9  C18 UNL     1      26.168   5.755  49.274  1.00  0.00     0.112 A 
ENDROOT
BRANCH   1  10
HETATM   10  N3  UNL     1      23.924   5.077  50.396  1.00  0.00    -0.337 N 
HETATM   11  C2  UNL     1      23.372   5.535  51.668  1.00  0.00     0.207 C 
HETATM   12  N2  UNL     1      22.019   6.156  51.480  1.00  0.00    -0.290 N 
HETATM   13  C3  UNL     1      23.251   4.387  52.620  1.00  0.00     0.076 C 
HETATM   14  N1  UNL     1      20.885   5.325  51.197  1.00  0.00    -0.189 NA
HETATM   15  H2  UNL     1      21.834   7.207  51.550  1.00  0.00     0.184 HD
HETATM   16  C1  UNL     1      20.841   4.014  50.980  1.00  0.00     0.146 C 
HETATM   17  C5  UNL     1      22.282   3.571  51.019  1.00  0.00    -0.025 C 
HETATM   18  C4  UNL     1      22.824   3.062  52.104  1.00  0.00    -0.013 C 
HETATM   19  C6  UNL     1      23.275   3.822  49.898  1.00  0.00     0.166 C 
ENDBRANCH   1  10
BRANCH   8  20
HETATM   20  C12 UNL     1      26.451   3.166  49.642  1.00  0.00     0.208 C 
BRANCH  20  21
HETATM   21  O1  UNL     1      27.151   2.827  50.797  1.00  0.00    -0.385 OA
BRANCH  21  22
HETATM   22  C13 UNL     1      26.255   2.578  51.813  1.00  0.00     0.183 C 
BRANCH  22  23
HETATM   23  C14 UNL     1      26.587   1.452  52.728  1.00  0.00     0.074 C 
HETATM   24  C15 UNL     1      26.765   0.146  51.980  1.00  0.00     0.047 C 
HETATM   25  C16 UNL     1      27.154  -0.890  53.007  1.00  0.00     0.272 C 
HETATM   26  N7  UNL     1      28.568  -0.850  53.307  1.00  0.00     0.092 N 
HETATM   27  C17 UNL     1      28.991   0.318  54.017  1.00  0.00     0.343 C 
HETATM   28  H21 UNL     1      29.158  -0.951  52.450  1.00  0.00     0.316 HD
HETATM   29  S1  UNL     1      28.243   1.840  53.428  1.00  0.00    -0.133 SA
ENDBRANCH  22  23
ENDBRANCH  21  22
ENDBRANCH  20  21
ENDBRANCH   8  20
TORSDOF 5
ENDMDL
MODEL 5
REMARK VINA RESULT:      -7.4      2.822      5.395
REMARK  5 active torsions:
REMARK  status: ('A' for Active; 'I' for Inactive)
REMARK    1  A    between atoms: N3_9  and  C7_10 
REMARK    2  A    between atoms: C11_17  and  C12_18 
REMARK    3  A    between atoms: C12_18  and  O1_19 
REMARK    4  A    between atoms: O1_19  and  C13_20 
REMARK    5  A    between atoms: C13_20  and  C14_21 
ROOT
HETATM    1  C7  UNL     1      21.120   1.243  52.084  1.00  0.00     0.158 A 
HETATM    2  N4  UNL     1      19.961   1.476  51.396  1.00  0.00    -0.220 NA
HETATM    3  C8  UNL     1      18.890   0.666  51.634  1.00  0.00     0.258 A 
HETATM    4  N5  UNL     1      18.941  -0.347  52.523  1.00  0.00    -0.161 NA
HETATM    5  N6  UNL     1      20.061  -0.569  53.184  1.00  0.00    -0.240 N 
HETATM    6  C9  UNL     1      20.492  -1.444  54.107  1.00  0.00     0.119 A 
HETATM    7  C10 UNL     1      21.806  -1.194  54.440  1.00  0.00     0.031 A 
HETATM    8  C11 UNL     1      22.251  -0.092  53.688  1.00  0.00    -0.001 A 
HETATM    9  C18 UNL     1      21.131   0.205  52.973  1.00  0.00     0.112 A 
ENDROOT
BRANCH   1  10
HETATM   10  N3  UNL     1      21.999   2.271  51.656  1.00  0.00    -0.337 N 
HETATM   11  C2  UNL     1      22.792   1.963  50.470  1.00  0.00     0.207 C 
HETATM   12  N2  UNL     1      22.243   2.653  49.255  1.00  0.00    -0.290 N 
HETATM   13  C3  UNL     1      24.211   2.393  50.673  1.00  0.00     0.076 C 
HETATM   14  N1  UNL     1      22.415   4.068  49.099  1.00  0.00    -0.189 NA
HETATM   15  H2  UNL     1      21.721   2.146  48.471  1.00  0.00     0.184 HD
HETATM   16  C1  UNL     1      22.946   4.945  49.945  1.00  0.00     0.146 C 
HETATM   17  C5  UNL     1      23.277   4.139  51.176  1.00  0.00    -0.025 C 
HETATM   18  C4  UNL     1      24.485   3.664  51.391  1.00  0.00    -0.013 C 
HETATM   19  C6  UNL     1      22.241   3.655  52.175  1.00  0.00     0.166 C 
ENDBRANCH   1  10
BRANCH   8  20
HETATM   20  C12 UNL     1      23.626   0.411  53.777  1.00  0.00     0.208 C 
BRANCH  20  21
HETATM   21  O1  UNL     1      24.478  -0.285  52.923  1.00  0.00    -0.385 OA
BRANCH  21  22
HETATM   22  C13 UNL     1      25.674  -0.515  53.566  1.00  0.00     0.183 C 
BRANCH  22  23
HETATM   23  C14 UNL     1      26.843   0.278  53.095  1.00  0.00     0.074 C 
HETATM   24  C15 UNL     1      26.989   1.579  53.856  1.00  0.00     0.047 C 
HETATM   25  C16 UNL     1      28.233   2.251  53.326  1.00  0.00     0.272 C 
HETATM   26  N7  UNL     1      29.433   1.734  53.947  1.00  0.00     0.092 N 
HETATM   27  C17 UNL     1      29.753   0.386  53.588  1.00  0.00     0.343 C 
HETATM   28  H21 UNL     1      29.401   1.801  54.990  1.00  0.00     0.316 HD
HETATM   29  S1  UNL     1      28.332  -0.710  53.529  1.00  0.00    -0.133 SA
ENDBRANCH  22  23
ENDBRANCH  21  22
ENDBRANCH  20  21
ENDBRANCH   8  20
TORSDOF 5
ENDMDL
MODEL 6
REMARK VINA RESULT:      -7.3      3.178      6.492
REMARK  5 active torsions:
REMARK  status: ('A' for Active; 'I' for Inactive)
REMARK    1  A    between atoms: N3_9  and  C7_10 
REMARK    2  A    between atoms: C11_17  and  C12_18 
REMARK    3  A    between atoms: C12_18  and  O1_19 
REMARK    4  A    between atoms: O1_19  and  C13_20 
REMARK    5  A    between atoms: C13_20  and  C14_21 
ROOT
HETATM    1  C7  UNL     1      24.017   0.867  53.035  1.00  0.00     0.158 A 
HETATM    2  N4  UNL     1      25.383   0.849  53.098  1.00  0.00    -0.220 NA
HETATM    3  C8  UNL     1      25.982  -0.031  53.949  1.00  0.00     0.258 A 
HETATM    4  N5  UNL     1      25.272  -0.877  54.723  1.00  0.00    -0.161 NA
HETATM    5  N6  UNL     1      23.954  -0.855  54.660  1.00  0.00    -0.240 N 
HETATM    6  C9  UNL     1      22.939  -1.507  55.249  1.00  0.00     0.119 A 
HETATM    7  C10 UNL     1      21.726  -1.047  54.781  1.00  0.00     0.031 A 
HETATM    8  C11 UNL     1      21.973  -0.037  53.834  1.00  0.00    -0.001 A 
HETATM    9  C18 UNL     1      23.334  -0.004  53.837  1.00  0.00     0.112 A 
ENDROOT
BRANCH   1  10
HETATM   10  N3  UNL     1      23.720   1.830  52.036  1.00  0.00    -0.337 N 
HETATM   11  C2  UNL     1      23.999   3.216  52.401  1.00  0.00     0.207 C 
HETATM   12  N2  UNL     1      25.260   3.706  51.751  1.00  0.00    -0.290 N 
HETATM   13  C3  UNL     1      22.865   4.097  51.982  1.00  0.00     0.076 C 
HETATM   14  N1  UNL     1      25.276   3.989  50.346  1.00  0.00    -0.189 NA
HETATM   15  H2  UNL     1      26.176   3.867  52.281  1.00  0.00     0.184 HD
HETATM   16  C1  UNL     1      24.318   3.805  49.444  1.00  0.00     0.146 C 
HETATM   17  C5  UNL     1      23.196   3.145  50.205  1.00  0.00    -0.025 C 
HETATM   18  C4  UNL     1      22.184   3.833  50.688  1.00  0.00    -0.013 C 
HETATM   19  C6  UNL     1      23.207   1.688  50.636  1.00  0.00     0.166 C 
ENDBRANCH   1  10
BRANCH   8  20
HETATM   20  C12 UNL     1      20.888   0.694  53.171  1.00  0.00     0.208 C 
BRANCH  20  21
HETATM   21  O1  UNL     1      20.392  -0.013  52.078  1.00  0.00    -0.385 OA
BRANCH  21  22
HETATM   22  C13 UNL     1      19.337   0.682  51.530  1.00  0.00     0.183 C 
BRANCH  22  23
HETATM   23  C14 UNL     1      18.028  -0.026  51.486  1.00  0.00     0.074 C 
HETATM   24  C15 UNL     1      17.837  -0.940  52.679  1.00  0.00     0.047 C 
HETATM   25  C16 UNL     1      16.460  -1.545  52.543  1.00  0.00     0.272 C 
HETATM   26  N7  UNL     1      15.430  -0.658  53.037  1.00  0.00     0.092 N 
HETATM   27  C17 UNL     1      15.224   0.514  52.242  1.00  0.00     0.343 C 
HETATM   28  H21 UNL     1      15.600  -0.364  54.026  1.00  0.00     0.316 HD
HETATM   29  S1  UNL     1      16.742   1.277  51.662  1.00  0.00    -0.133 SA
ENDBRANCH  22  23
ENDBRANCH  21  22
ENDBRANCH  20  21
ENDBRANCH   8  20
TORSDOF 5
ENDMDL
MODEL 7
REMARK VINA RESULT:      -7.1      7.262     10.431
REMARK  5 active torsions:
REMARK  status: ('A' for Active; 'I' for Inactive)
REMARK    1  A    between atoms: N3_9  and  C7_10 
REMARK    2  A    between atoms: C11_17  and  C12_18 
REMARK    3  A    between atoms: C12_18  and  O1_19 
REMARK    4  A    between atoms: O1_19  and  C13_20 
REMARK    5  A    between atoms: C13_20  and  C14_21 
ROOT
HETATM    1  C7  UNL     1      27.580   8.765  49.191  1.00  0.00     0.158 A 
HETATM    2  N4  UNL     1      26.690   9.547  49.874  1.00  0.00    -0.220 NA
HETATM    3  C8  UNL     1      25.554   8.968  50.358  1.00  0.00     0.258 A 
HETATM    4  N5  UNL     1      25.288   7.657  50.183  1.00  0.00    -0.161 NA
HETATM    5  N6  UNL     1      26.149   6.907  49.522  1.00  0.00    -0.240 N 
HETATM    6  C9  UNL     1      26.237   5.620  49.151  1.00  0.00     0.119 A 
HETATM    7  C10 UNL     1      27.400   5.393  48.447  1.00  0.00     0.031 A 
HETATM    8  C11 UNL     1      28.106   6.606  48.358  1.00  0.00    -0.001 A 
HETATM    9  C18 UNL     1      27.271   7.444  49.033  1.00  0.00     0.112 A 
ENDROOT
BRANCH   1  10
HETATM   10  N3  UNL     1      28.654   9.639  48.881  1.00  0.00    -0.337 N 
HETATM   11  C2  UNL     1      28.372  10.636  47.851  1.00  0.00     0.207 C 
HETATM   12  N2  UNL     1      28.140  11.990  48.455  1.00  0.00    -0.290 N 
HETATM   13  C3  UNL     1      29.518  10.723  46.892  1.00  0.00     0.076 C 
HETATM   14  N1  UNL     1      29.244  12.734  48.985  1.00  0.00    -0.189 NA
HETATM   15  H2  UNL     1      27.178  12.455  48.515  1.00  0.00     0.184 HD
HETATM   16  C1  UNL     1      30.516  12.369  49.113  1.00  0.00     0.146 C 
HETATM   17  C5  UNL     1      30.553  10.938  48.640  1.00  0.00    -0.025 C 
HETATM   18  C4  UNL     1      30.906  10.621  47.412  1.00  0.00    -0.013 C 
HETATM   19  C6  UNL     1      30.033   9.764  49.451  1.00  0.00     0.166 C 
ENDBRANCH   1  10
BRANCH   8  20
HETATM   20  C12 UNL     1      29.376   6.720  47.632  1.00  0.00     0.208 C 
BRANCH  20  21
HETATM   21  O1  UNL     1      30.443   6.260  48.399  1.00  0.00    -0.385 OA
BRANCH  21  22
HETATM   22  C13 UNL     1      31.026   5.185  47.765  1.00  0.00     0.183 C 
BRANCH  22  23
HETATM   23  C14 UNL     1      32.508   5.215  47.637  1.00  0.00     0.074 C 
HETATM   24  C15 UNL     1      33.176   5.736  48.893  1.00  0.00     0.047 C 
HETATM   25  C16 UNL     1      34.665   5.659  48.653  1.00  0.00     0.272 C 
HETATM   26  N7  UNL     1      35.186   4.334  48.906  1.00  0.00     0.092 N 
HETATM   27  C17 UNL     1      34.769   3.343  47.962  1.00  0.00     0.343 C 
HETATM   28  H21 UNL     1      34.955   3.994  49.868  1.00  0.00     0.316 HD
HETATM   29  S1  UNL     1      33.040   3.460  47.496  1.00  0.00    -0.133 SA
ENDBRANCH  22  23
ENDBRANCH  21  22
ENDBRANCH  20  21
ENDBRANCH   8  20
TORSDOF 5
ENDMDL
MODEL 8
REMARK VINA RESULT:      -7.1      7.296     10.258
REMARK  5 active torsions:
REMARK  status: ('A' for Active; 'I' for Inactive)
REMARK    1  A    between atoms: N3_9  and  C7_10 
REMARK    2  A    between atoms: C11_17  and  C12_18 
REMARK    3  A    between atoms: C12_18  and  O1_19 
REMARK    4  A    between atoms: O1_19  and  C13_20 
REMARK    5  A    between atoms: C13_20  and  C14_21 
ROOT
HETATM    1  C7  UNL     1      28.111   8.422  48.703  1.00  0.00     0.158 A 
HETATM    2  N4  UNL     1      27.268   9.403  49.146  1.00  0.00    -0.220 NA
HETATM    3  C8  UNL     1      26.039   9.042  49.612  1.00  0.00     0.258 A 
HETATM    4  N5  UNL     1      25.636   7.755  49.647  1.00  0.00    -0.161 NA
HETATM    5  N6  UNL     1      26.453   6.812  49.217  1.00  0.00    -0.240 N 
HETATM    6  C9  UNL     1      26.418   5.476  49.090  1.00  0.00     0.119 A 
HETATM    7  C10 UNL     1      27.598   5.006  48.555  1.00  0.00     0.031 A 
HETATM    8  C11 UNL     1      28.445   6.104  48.321  1.00  0.00    -0.001 A 
HETATM    9  C18 UNL     1      27.664   7.132  48.753  1.00  0.00     0.112 A 
ENDROOT
BRANCH   1  10
HETATM   10  N3  UNL     1      29.301   9.111  48.348  1.00  0.00    -0.337 N 
HETATM   11  C2  UNL     1      30.161   9.489  49.465  1.00  0.00     0.207 C 
HETATM   12  N2  UNL     1      31.348   8.578  49.571  1.00  0.00    -0.290 N 
HETATM   13  C3  UNL     1      30.644  10.895  49.289  1.00  0.00     0.076 C 
HETATM   14  N1  UNL     1      32.412   8.676  48.615  1.00  0.00    -0.189 NA
HETATM   15  H2  UNL     1      31.462   7.838  50.336  1.00  0.00     0.184 HD
HETATM   16  C1  UNL     1      32.494   9.439  47.530  1.00  0.00     0.146 C 
HETATM   17  C5  UNL     1      31.167  10.151  47.460  1.00  0.00    -0.025 C 
HETATM   18  C4  UNL     1      31.006  11.370  47.929  1.00  0.00    -0.013 C 
HETATM   19  C6  UNL     1      29.873   9.490  47.017  1.00  0.00     0.166 C 
ENDBRANCH   1  10
BRANCH   8  20
HETATM   20  C12 UNL     1      29.772   5.952  47.714  1.00  0.00     0.208 C 
BRANCH  20  21
HETATM   21  O1  UNL     1      30.487   4.915  48.307  1.00  0.00    -0.385 OA
BRANCH  21  22
HETATM   22  C13 UNL     1      31.836   5.154  48.161  1.00  0.00     0.183 C 
BRANCH  22  23
HETATM   23  C14 UNL     1      32.477   4.610  46.933  1.00  0.00     0.074 C 
HETATM   24  C15 UNL     1      33.114   5.700  46.095  1.00  0.00     0.047 C 
HETATM   25  C16 UNL     1      33.772   5.014  44.922  1.00  0.00     0.272 C 
HETATM   26  N7  UNL     1      35.076   4.491  45.264  1.00  0.00     0.092 N 
HETATM   27  C17 UNL     1      35.053   3.384  46.170  1.00  0.00     0.343 C 
HETATM   28  H21 UNL     1      35.709   5.227  45.655  1.00  0.00     0.316 HD
HETATM   29  S1  UNL     1      33.874   3.563  47.512  1.00  0.00    -0.133 SA
ENDBRANCH  22  23
ENDBRANCH  21  22
ENDBRANCH  20  21
ENDBRANCH   8  20
TORSDOF 5
ENDMDL
MODEL 9
REMARK VINA RESULT:      -7.0      3.262      6.540
REMARK  5 active torsions:
REMARK  status: ('A' for Active; 'I' for Inactive)
REMARK    1  A    between atoms: N3_9  and  C7_10 
REMARK    2  A    between atoms: C11_17  and  C12_18 
REMARK    3  A    between atoms: C12_18  and  O1_19 
REMARK    4  A    between atoms: O1_19  and  C13_20 
REMARK    5  A    between atoms: C13_20  and  C14_21 
ROOT
HETATM    1  C7  UNL     1      24.783   2.223  52.024  1.00  0.00     0.158 A 
HETATM    2  N4  UNL     1      25.957   2.744  51.556  1.00  0.00    -0.220 NA
HETATM    3  C8  UNL     1      27.120   2.103  51.864  1.00  0.00     0.258 A 
HETATM    4  N5  UNL     1      27.144   0.979  52.609  1.00  0.00    -0.161 NA
HETATM    5  N6  UNL     1      26.008   0.481  53.060  1.00  0.00    -0.240 N 
HETATM    6  C9  UNL     1      25.633  -0.571  53.806  1.00  0.00     0.119 A 
HETATM    7  C10 UNL     1      24.264  -0.590  53.967  1.00  0.00     0.031 A 
HETATM    8  C11 UNL     1      23.723   0.514  53.285  1.00  0.00    -0.001 A 
HETATM    9  C18 UNL     1      24.850   1.086  52.778  1.00  0.00     0.112 A 
ENDROOT
BRANCH   1  10
HETATM   10  N3  UNL     1      23.779   3.074  51.492  1.00  0.00    -0.337 N 
HETATM   11  C2  UNL     1      23.537   4.302  52.243  1.00  0.00     0.207 C 
HETATM   12  N2  UNL     1      24.159   5.487  51.564  1.00  0.00    -0.290 N 
HETATM   13  C3  UNL     1      22.065   4.539  52.380  1.00  0.00     0.076 C 
HETATM   14  N1  UNL     1      23.573   6.012  50.365  1.00  0.00    -0.189 NA
HETATM   15  H2  UNL     1      25.033   5.986  51.926  1.00  0.00     0.184 HD
HETATM   16  C1  UNL     1      22.547   5.545  49.661  1.00  0.00     0.146 C 
HETATM   17  C5  UNL     1      22.154   4.267  50.358  1.00  0.00    -0.025 C 
HETATM   18  C4  UNL     1      21.173   4.227  51.234  1.00  0.00    -0.013 C 
HETATM   19  C6  UNL     1      22.939   2.971  50.256  1.00  0.00     0.166 C 
ENDBRANCH   1  10
BRANCH   8  20
HETATM   20  C12 UNL     1      22.286   0.809  53.292  1.00  0.00     0.208 C 
BRANCH  20  21
HETATM   21  O1  UNL     1      21.574  -0.109  52.525  1.00  0.00    -0.385 OA
BRANCH  21  22
HETATM   22  C13 UNL     1      20.263  -0.133  52.948  1.00  0.00     0.183 C 
BRANCH  22  23
HETATM   23  C14 UNL     1      19.278   0.587  52.095  1.00  0.00     0.074 C 
HETATM   24  C15 UNL     1      19.775   0.756  50.674  1.00  0.00     0.047 C 
HETATM   25  C16 UNL     1      18.668   1.441  49.909  1.00  0.00     0.272 C 
HETATM   26  N7  UNL     1      17.659   0.505  49.463  1.00  0.00     0.092 N 
HETATM   27  C17 UNL     1      16.870  -0.061  50.513  1.00  0.00     0.343 C 
HETATM   28  H21 UNL     1      18.064  -0.274  48.895  1.00  0.00     0.316 HD
HETATM   29  S1  UNL     1      17.814  -0.519  51.970  1.00  0.00    -0.133 SA
ENDBRANCH  22  23
ENDBRANCH  21  22
ENDBRANCH  20  21
ENDBRANCH   8  20
TORSDOF 5
ENDMDL
