MODEL 1
REMARK VINA RESULT:      -9.0      0.000      0.000
REMARK  2 active torsions:
REMARK  status: ('A' for Active; 'I' for Inactive)
REMARK    1  A    between atoms: O1_2  and  C2_3 
REMARK    2  A    between atoms: C12_16  and  C13_17 
ROOT
HETATM    1  C2  UNL     1      21.223   2.176  49.569  1.00  0.00     0.069 A 
HETATM    2  C3  UNL     1      20.200   1.457  50.134  1.00  0.00     0.039 A 
HETATM    3  C4  UNL     1      20.465   0.706  51.235  1.00  0.00     0.040 A 
HETATM    4  C5  UNL     1      21.733   0.665  51.773  1.00  0.00     0.086 A 
HETATM    5  C6  UNL     1      22.785   1.373  51.234  1.00  0.00    -0.004 A 
HETATM    6  C7  UNL     1      22.496   2.142  50.101  1.00  0.00     0.048 A 
HETATM    7  C8  UNL     1      24.227   1.575  51.517  1.00  0.00     0.161 C 
HETATM    8  N1  UNL     1      24.811   0.513  52.315  1.00  0.00    -0.380 N 
HETATM    9  C9  UNL     1      24.254  -0.181  53.426  1.00  0.00     0.112 A 
HETATM   10  C10 UNL     1      22.918  -0.473  53.662  1.00  0.00     0.200 A 
HETATM   11  N2  UNL     1      22.573  -1.166  54.776  1.00  0.00    -0.215 NA
HETATM   12  C11 UNL     1      23.571  -1.531  55.596  1.00  0.00     0.236 A 
HETATM   13  N3  UNL     1      24.874  -1.259  55.389  1.00  0.00    -0.239 NA
HETATM   14  C12 UNL     1      25.263  -0.567  54.286  1.00  0.00     0.099 A 
HETATM   15  O2  UNL     1      21.811  -0.140  52.873  1.00  0.00    -0.289 OA
HETATM   16  H9  UNL     1      25.783   0.134  52.113  1.00  0.00     0.160 HD
ENDROOT
BRANCH  14  17
HETATM   17  C13 UNL     1      26.681  -0.291  54.101  1.00  0.00    -0.003 A 
HETATM   18  C14 UNL     1      27.306  -1.352  53.432  1.00  0.00     0.017 A 
HETATM   19  C15 UNL     1      28.655  -1.345  53.144  1.00  0.00     0.045 A 
HETATM   20  C16 UNL     1      29.430  -0.266  53.520  1.00  0.00     0.138 A 
HETATM   21  F1  UNL     1      30.775  -0.178  53.274  1.00  0.00    -0.204 F 
HETATM   22  C17 UNL     1      28.820   0.781  54.178  1.00  0.00     0.073 A 
HETATM   23 CL1  UNL     1      29.674   2.220  54.718  1.00  0.00    -0.081 Cl
HETATM   24  C18 UNL     1      27.475   0.783  54.471  1.00  0.00     0.041 A 
ENDBRANCH  14  17
BRANCH   1  25
HETATM   25  O1  UNL     1      20.980   2.954  48.443  1.00  0.00    -0.356 OA
HETATM   26  C1  UNL     1      21.903   3.133  47.416  1.00  0.00     0.210 C 
ENDBRANCH   1  25
TORSDOF 2
ENDMDL
MODEL 2
REMARK VINA RESULT:      -8.8      4.842      7.347
REMARK  2 active torsions:
REMARK  status: ('A' for Active; 'I' for Inactive)
REMARK    1  A    between atoms: O1_2  and  C2_3 
REMARK    2  A    between atoms: C12_16  and  C13_17 
ROOT
HETATM    1  C2  UNL     1      26.934  -0.506  53.270  1.00  0.00     0.069 A 
HETATM    2  C3  UNL     1      25.621  -0.852  53.474  1.00  0.00     0.039 A 
HETATM    3  C4  UNL     1      24.652  -0.066  52.939  1.00  0.00     0.040 A 
HETATM    4  C5  UNL     1      24.977   1.057  52.208  1.00  0.00     0.086 A 
HETATM    5  C6  UNL     1      26.282   1.437  51.983  1.00  0.00    -0.004 A 
HETATM    6  C7  UNL     1      27.269   0.616  52.540  1.00  0.00     0.048 A 
HETATM    7  C8  UNL     1      26.998   2.529  51.279  1.00  0.00     0.161 C 
HETATM    8  N1  UNL     1      26.183   3.711  51.073  1.00  0.00    -0.380 N 
HETATM    9  C9  UNL     1      24.810   3.801  50.709  1.00  0.00     0.112 A 
HETATM   10  C10 UNL     1      23.789   2.914  51.021  1.00  0.00     0.200 A 
HETATM   11  N2  UNL     1      22.526   3.175  50.600  1.00  0.00    -0.215 NA
HETATM   12  C11 UNL     1      22.345   4.300  49.890  1.00  0.00     0.236 A 
HETATM   13  N3  UNL     1      23.319   5.174  49.574  1.00  0.00    -0.239 NA
HETATM   14  C12 UNL     1      24.597   4.952  49.977  1.00  0.00     0.099 A 
HETATM   15  O2  UNL     1      23.876   1.723  51.750  1.00  0.00    -0.289 OA
HETATM   16  H9  UNL     1      26.580   4.690  51.193  1.00  0.00     0.160 HD
ENDROOT
BRANCH  14  17
HETATM   17  C13 UNL     1      25.622   5.921  49.611  1.00  0.00    -0.003 A 
HETATM   18  C14 UNL     1      25.422   7.129  50.293  1.00  0.00     0.017 A 
HETATM   19  C15 UNL     1      26.250   8.218  50.113  1.00  0.00     0.045 A 
HETATM   20  C16 UNL     1      27.313   8.133  49.239  1.00  0.00     0.138 A 
HETATM   21  F1  UNL     1      28.183   9.165  49.002  1.00  0.00    -0.204 F 
HETATM   22  C17 UNL     1      27.515   6.946  48.565  1.00  0.00     0.073 A 
HETATM   23 CL1  UNL     1      28.825   6.687  47.421  1.00  0.00    -0.081 Cl
HETATM   24  C18 UNL     1      26.694   5.854  48.736  1.00  0.00     0.041 A 
ENDBRANCH  14  17
BRANCH   1  25
HETATM   25  O1  UNL     1      27.946  -1.293  53.805  1.00  0.00    -0.356 OA
HETATM   26  C1  UNL     1      29.288  -0.922  53.815  1.00  0.00     0.210 C 
ENDBRANCH   1  25
TORSDOF 2
ENDMDL
MODEL 3
REMARK VINA RESULT:      -8.6      4.479      7.887
REMARK  2 active torsions:
REMARK  status: ('A' for Active; 'I' for Inactive)
REMARK    1  A    between atoms: O1_2  and  C2_3 
REMARK    2  A    between atoms: C12_16  and  C13_17 
ROOT
HETATM    1  C2  UNL     1      27.458  -0.302  53.569  1.00  0.00     0.069 A 
HETATM    2  C3  UNL     1      27.988   0.961  53.486  1.00  0.00     0.039 A 
HETATM    3  C4  UNL     1      27.148   2.003  53.251  1.00  0.00     0.040 A 
HETATM    4  C5  UNL     1      25.794   1.797  53.099  1.00  0.00     0.086 A 
HETATM    5  C6  UNL     1      25.226   0.545  53.176  1.00  0.00    -0.004 A 
HETATM    6  C7  UNL     1      26.103  -0.518  53.418  1.00  0.00     0.048 A 
HETATM    7  C8  UNL     1      23.871  -0.050  53.071  1.00  0.00     0.161 C 
HETATM    8  N1  UNL     1      22.930   0.786  52.349  1.00  0.00    -0.380 N 
HETATM    9  C9  UNL     1      22.770   2.199  52.396  1.00  0.00     0.112 A 
HETATM   10  C10 UNL     1      23.747   3.158  52.621  1.00  0.00     0.200 A 
HETATM   11  N2  UNL     1      23.408   4.471  52.611  1.00  0.00    -0.215 NA
HETATM   12  C11 UNL     1      22.119   4.763  52.380  1.00  0.00     0.236 A 
HETATM   13  N3  UNL     1      21.153   3.851  52.160  1.00  0.00    -0.239 NA
HETATM   14  C12 UNL     1      21.449   2.525  52.161  1.00  0.00     0.099 A 
HETATM   15  O2  UNL     1      25.109   2.957  52.870  1.00  0.00    -0.289 OA
HETATM   16  H9  UNL     1      22.227   0.373  51.665  1.00  0.00     0.160 HD
ENDROOT
BRANCH  14  17
HETATM   17  C13 UNL     1      20.373   1.571  51.921  1.00  0.00    -0.003 A 
HETATM   18  C14 UNL     1      19.822   1.761  50.647  1.00  0.00     0.017 A 
HETATM   19  C15 UNL     1      18.777   0.992  50.178  1.00  0.00     0.045 A 
HETATM   20  C16 UNL     1      18.244   0.001  50.976  1.00  0.00     0.138 A 
HETATM   21  F1  UNL     1      17.207  -0.807  50.589  1.00  0.00    -0.204 F 
HETATM   22  C17 UNL     1      18.783  -0.191  52.231  1.00  0.00     0.073 A 
HETATM   23 CL1  UNL     1      18.212  -1.412  53.360  1.00  0.00    -0.081 Cl
HETATM   24  C18 UNL     1      19.826   0.571  52.709  1.00  0.00     0.041 A 
ENDBRANCH  14  17
BRANCH   1  25
HETATM   25  O1  UNL     1      28.294  -1.387  53.809  1.00  0.00    -0.356 OA
HETATM   26  C1  UNL     1      29.658  -1.386  53.533  1.00  0.00     0.210 C 
ENDBRANCH   1  25
TORSDOF 2
ENDMDL
MODEL 4
REMARK VINA RESULT:      -8.6      1.955      2.019
REMARK  2 active torsions:
REMARK  status: ('A' for Active; 'I' for Inactive)
REMARK    1  A    between atoms: O1_2  and  C2_3 
REMARK    2  A    between atoms: C12_16  and  C13_17 
ROOT
HETATM    1  C2  UNL     1      21.195   4.930  50.881  1.00  0.00     0.069 A 
HETATM    2  C3  UNL     1      20.003   4.332  51.206  1.00  0.00     0.039 A 
HETATM    3  C4  UNL     1      20.029   3.184  51.932  1.00  0.00     0.040 A 
HETATM    4  C5  UNL     1      21.226   2.631  52.335  1.00  0.00     0.086 A 
HETATM    5  C6  UNL     1      22.442   3.201  52.029  1.00  0.00    -0.004 A 
HETATM    6  C7  UNL     1      22.398   4.383  51.280  1.00  0.00     0.048 A 
HETATM    7  C8  UNL     1      23.877   2.916  52.273  1.00  0.00     0.161 C 
HETATM    8  N1  UNL     1      24.141   1.524  52.584  1.00  0.00    -0.380 N 
HETATM    9  C9  UNL     1      23.387   0.629  53.394  1.00  0.00     0.112 A 
HETATM   10  C10 UNL     1      22.014   0.613  53.591  1.00  0.00     0.200 A 
HETATM   11  N2  UNL     1      21.465  -0.335  54.391  1.00  0.00    -0.215 NA
HETATM   12  C11 UNL     1      22.308  -1.215  54.952  1.00  0.00     0.236 A 
HETATM   13  N3  UNL     1      23.643  -1.220  54.777  1.00  0.00    -0.239 NA
HETATM   14  C12 UNL     1      24.234  -0.289  53.984  1.00  0.00     0.099 A 
HETATM   15  O2  UNL     1      21.057   1.482  53.054  1.00  0.00    -0.289 OA
HETATM   16  H9  UNL     1      24.991   1.017  52.195  1.00  0.00     0.160 HD
ENDROOT
BRANCH  14  17
HETATM   17  C13 UNL     1      25.681  -0.328  53.824  1.00  0.00    -0.003 A 
HETATM   18  C14 UNL     1      26.055  -1.380  52.977  1.00  0.00     0.017 A 
HETATM   19  C15 UNL     1      27.374  -1.642  52.671  1.00  0.00     0.045 A 
HETATM   20  C16 UNL     1      28.371  -0.854  53.208  1.00  0.00     0.138 A 
HETATM   21  F1  UNL     1      29.705  -1.045  52.957  1.00  0.00    -0.204 F 
HETATM   22  C17 UNL     1      28.010   0.183  54.042  1.00  0.00     0.073 A 
HETATM   23 CL1  UNL     1      29.165   1.272  54.799  1.00  0.00    -0.081 Cl
HETATM   24  C18 UNL     1      26.696   0.454  54.354  1.00  0.00     0.041 A 
ENDBRANCH  14  17
BRANCH   1  25
HETATM   25  O1  UNL     1      21.199   6.105  50.139  1.00  0.00    -0.356 OA
HETATM   26  C1  UNL     1      20.092   6.580  49.441  1.00  0.00     0.210 C 
ENDBRANCH   1  25
TORSDOF 2
ENDMDL
MODEL 5
REMARK VINA RESULT:      -8.3      3.210      4.065
REMARK  2 active torsions:
REMARK  status: ('A' for Active; 'I' for Inactive)
REMARK    1  A    between atoms: O1_2  and  C2_3 
REMARK    2  A    between atoms: C12_16  and  C13_17 
ROOT
HETATM    1  C2  UNL     1      25.732   6.162  48.531  1.00  0.00     0.069 A 
HETATM    2  C3  UNL     1      24.361   6.226  48.513  1.00  0.00     0.039 A 
HETATM    3  C4  UNL     1      23.659   5.313  49.232  1.00  0.00     0.040 A 
HETATM    4  C5  UNL     1      24.307   4.342  49.965  1.00  0.00     0.086 A 
HETATM    5  C6  UNL     1      25.681   4.245  50.008  1.00  0.00    -0.004 A 
HETATM    6  C7  UNL     1      26.390   5.193  49.262  1.00  0.00     0.048 A 
HETATM    7  C8  UNL     1      26.697   3.378  50.652  1.00  0.00     0.161 C 
HETATM    8  N1  UNL     1      26.181   2.081  51.045  1.00  0.00    -0.380 N 
HETATM    9  C9  UNL     1      24.920   1.756  51.620  1.00  0.00     0.112 A 
HETATM   10  C10 UNL     1      23.705   2.395  51.420  1.00  0.00     0.200 A 
HETATM   11  N2  UNL     1      22.595   1.929  52.044  1.00  0.00    -0.215 NA
HETATM   12  C11 UNL     1      22.749   0.855  52.834  1.00  0.00     0.236 A 
HETATM   13  N3  UNL     1      23.917   0.218  53.044  1.00  0.00    -0.239 NA
HETATM   14  C12 UNL     1      25.053   0.651  52.438  1.00  0.00     0.099 A 
HETATM   15  O2  UNL     1      23.442   3.514  50.622  1.00  0.00    -0.289 OA
HETATM   16  H9  UNL     1      26.751   1.192  50.919  1.00  0.00     0.160 HD
ENDROOT
BRANCH  14  17
HETATM   17  C13 UNL     1      26.296  -0.065  52.695  1.00  0.00    -0.003 A 
HETATM   18  C14 UNL     1      26.136  -1.434  52.443  1.00  0.00     0.017 A 
HETATM   19  C15 UNL     1      27.164  -2.337  52.622  1.00  0.00     0.045 A 
HETATM   20  C16 UNL     1      28.395  -1.895  53.062  1.00  0.00     0.138 A 
HETATM   21  F1  UNL     1      29.468  -2.724  53.266  1.00  0.00    -0.204 F 
HETATM   22  C17 UNL     1      28.558  -0.549  53.312  1.00  0.00     0.073 A 
HETATM   23 CL1  UNL     1      30.064   0.162  53.876  1.00  0.00    -0.081 Cl
HETATM   24  C18 UNL     1      27.539   0.361  53.137  1.00  0.00     0.041 A 
ENDBRANCH  14  17
BRANCH   1  25
HETATM   25  O1  UNL     1      26.476   7.084  47.804  1.00  0.00    -0.356 OA
HETATM   26  C1  UNL     1      27.856   7.000  47.635  1.00  0.00     0.210 C 
ENDBRANCH   1  25
TORSDOF 2
ENDMDL
MODEL 6
REMARK VINA RESULT:      -8.1      4.340      6.084
REMARK  2 active torsions:
REMARK  status: ('A' for Active; 'I' for Inactive)
REMARK    1  A    between atoms: O1_2  and  C2_3 
REMARK    2  A    between atoms: C12_16  and  C13_17 
ROOT
HETATM    1  C2  UNL     1      24.353   6.401  48.166  1.00  0.00     0.069 A 
HETATM    2  C3  UNL     1      25.700   6.550  48.383  1.00  0.00     0.039 A 
HETATM    3  C4  UNL     1      26.337   5.637  49.160  1.00  0.00     0.040 A 
HETATM    4  C5  UNL     1      25.648   4.582  49.720  1.00  0.00     0.086 A 
HETATM    5  C6  UNL     1      24.297   4.399  49.526  1.00  0.00    -0.004 A 
HETATM    6  C7  UNL     1      23.654   5.348  48.723  1.00  0.00     0.048 A 
HETATM    7  C8  UNL     1      23.252   3.431  49.942  1.00  0.00     0.161 C 
HETATM    8  N1  UNL     1      23.601   2.689  51.139  1.00  0.00    -0.380 N 
HETATM    9  C9  UNL     1      24.859   2.145  51.520  1.00  0.00     0.112 A 
HETATM   10  C10 UNL     1      26.122   2.637  51.223  1.00  0.00     0.200 A 
HETATM   11  N2  UNL     1      27.218   1.989  51.692  1.00  0.00    -0.215 NA
HETATM   12  C11 UNL     1      27.002   0.888  52.429  1.00  0.00     0.236 A 
HETATM   13  N3  UNL     1      25.787   0.392  52.730  1.00  0.00    -0.239 NA
HETATM   14  C12 UNL     1      24.663   1.009  52.281  1.00  0.00     0.099 A 
HETATM   15  O2  UNL     1      26.450   3.768  50.468  1.00  0.00    -0.289 OA
HETATM   16  H9  UNL     1      22.882   2.478  51.894  1.00  0.00     0.160 HD
ENDROOT
BRANCH  14  17
HETATM   17  C13 UNL     1      23.369   0.438  52.627  1.00  0.00    -0.003 A 
HETATM   18  C14 UNL     1      23.472  -0.352  53.780  1.00  0.00     0.017 A 
HETATM   19  C15 UNL     1      22.387  -1.019  54.311  1.00  0.00     0.045 A 
HETATM   20  C16 UNL     1      21.153  -0.915  53.702  1.00  0.00     0.138 A 
HETATM   21  F1  UNL     1      20.025  -1.543  54.163  1.00  0.00    -0.204 F 
HETATM   22  C17 UNL     1      21.046  -0.138  52.567  1.00  0.00     0.073 A 
HETATM   23 CL1  UNL     1      19.544   0.089  51.681  1.00  0.00    -0.081 Cl
HETATM   24  C18 UNL     1      22.122   0.530  52.028  1.00  0.00     0.041 A 
ENDBRANCH  14  17
BRANCH   1  25
HETATM   25  O1  UNL     1      23.674   7.320  47.375  1.00  0.00    -0.356 OA
HETATM   26  C1  UNL     1      24.305   8.186  46.486  1.00  0.00     0.210 C 
ENDBRANCH   1  25
TORSDOF 2
ENDMDL
MODEL 7
REMARK VINA RESULT:      -7.8      4.250      6.273
REMARK  2 active torsions:
REMARK  status: ('A' for Active; 'I' for Inactive)
REMARK    1  A    between atoms: O1_2  and  C2_3 
REMARK    2  A    between atoms: C12_16  and  C13_17 
ROOT
HETATM    1  C2  UNL     1      26.803   5.097  48.888  1.00  0.00     0.069 A 
HETATM    2  C3  UNL     1      25.914   5.998  48.358  1.00  0.00     0.039 A 
HETATM    3  C4  UNL     1      24.618   5.943  48.759  1.00  0.00     0.040 A 
HETATM    4  C5  UNL     1      24.201   5.002  49.676  1.00  0.00     0.086 A 
HETATM    5  C6  UNL     1      25.064   4.081  50.229  1.00  0.00    -0.004 A 
HETATM    6  C7  UNL     1      26.396   4.151  49.807  1.00  0.00     0.048 A 
HETATM    7  C8  UNL     1      24.994   2.964  51.203  1.00  0.00     0.161 C 
HETATM    8  N1  UNL     1      23.656   2.427  51.367  1.00  0.00    -0.380 N 
HETATM    9  C9  UNL     1      22.415   3.120  51.428  1.00  0.00     0.112 A 
HETATM   10  C10 UNL     1      22.071   4.304  50.791  1.00  0.00     0.200 A 
HETATM   11  N2  UNL     1      20.823   4.810  50.952  1.00  0.00    -0.215 NA
HETATM   12  C11 UNL     1      19.984   4.116  51.737  1.00  0.00     0.236 A 
HETATM   13  N3  UNL     1      20.294   2.967  52.366  1.00  0.00    -0.239 NA
HETATM   14  C12 UNL     1      21.533   2.425  52.231  1.00  0.00     0.099 A 
HETATM   15  O2  UNL     1      22.869   5.096  49.958  1.00  0.00    -0.289 OA
HETATM   16  H9  UNL     1      23.482   1.382  51.460  1.00  0.00     0.160 HD
ENDROOT
BRANCH  14  17
HETATM   17  C13 UNL     1      21.828   1.181  52.930  1.00  0.00    -0.003 A 
HETATM   18  C14 UNL     1      20.679   0.386  53.029  1.00  0.00     0.017 A 
HETATM   19  C15 UNL     1      20.687  -0.841  53.660  1.00  0.00     0.045 A 
HETATM   20  C16 UNL     1      21.856  -1.316  54.217  1.00  0.00     0.138 A 
HETATM   21  F1  UNL     1      21.952  -2.522  54.861  1.00  0.00    -0.204 F 
HETATM   22  C17 UNL     1      22.991  -0.538  54.124  1.00  0.00     0.073 A 
HETATM   23 CL1  UNL     1      24.551  -1.009  54.784  1.00  0.00    -0.081 Cl
HETATM   24  C18 UNL     1      22.993   0.688  53.497  1.00  0.00     0.041 A 
ENDBRANCH  14  17
BRANCH   1  25
HETATM   25  O1  UNL     1      28.136   5.130  48.497  1.00  0.00    -0.356 OA
HETATM   26  C1  UNL     1      28.799   6.293  48.114  1.00  0.00     0.210 C 
ENDBRANCH   1  25
TORSDOF 2
ENDMDL
MODEL 8
REMARK VINA RESULT:      -7.7      7.807      9.396
REMARK  2 active torsions:
REMARK  status: ('A' for Active; 'I' for Inactive)
REMARK    1  A    between atoms: O1_2  and  C2_3 
REMARK    2  A    between atoms: C12_16  and  C13_17 
ROOT
HETATM    1  C2  UNL     1      24.586   5.635  49.569  1.00  0.00     0.069 A 
HETATM    2  C3  UNL     1      24.401   6.981  49.769  1.00  0.00     0.039 A 
HETATM    3  C4  UNL     1      25.447   7.819  49.551  1.00  0.00     0.040 A 
HETATM    4  C5  UNL     1      26.669   7.331  49.139  1.00  0.00     0.086 A 
HETATM    5  C6  UNL     1      26.892   5.989  48.928  1.00  0.00    -0.004 A 
HETATM    6  C7  UNL     1      25.805   5.138  49.156  1.00  0.00     0.048 A 
HETATM    7  C8  UNL     1      28.017   5.120  48.502  1.00  0.00     0.161 C 
HETATM    8  N1  UNL     1      29.320   5.729  48.698  1.00  0.00    -0.380 N 
HETATM    9  C9  UNL     1      29.719   7.078  48.480  1.00  0.00     0.112 A 
HETATM   10  C10 UNL     1      28.948   8.224  48.612  1.00  0.00     0.200 A 
HETATM   11  N2  UNL     1      29.509   9.437  48.378  1.00  0.00    -0.215 NA
HETATM   12  C11 UNL     1      30.804   9.447  48.026  1.00  0.00     0.236 A 
HETATM   13  N3  UNL     1      31.572   8.350  47.891  1.00  0.00    -0.239 NA
HETATM   14  C12 UNL     1      31.050   7.116  48.116  1.00  0.00     0.099 A 
HETATM   15  O2  UNL     1      27.599   8.317  48.971  1.00  0.00    -0.289 OA
HETATM   16  H9  UNL     1      30.150   5.169  49.055  1.00  0.00     0.160 HD
ENDROOT
BRANCH  14  17
HETATM   17  C13 UNL     1      31.915   5.954  47.957  1.00  0.00    -0.003 A 
HETATM   18  C14 UNL     1      33.196   6.221  48.458  1.00  0.00     0.017 A 
HETATM   19  C15 UNL     1      34.210   5.287  48.415  1.00  0.00     0.045 A 
HETATM   20  C16 UNL     1      33.973   4.044  47.865  1.00  0.00     0.138 A 
HETATM   21  F1  UNL     1      34.923   3.059  47.783  1.00  0.00    -0.204 F 
HETATM   22  C17 UNL     1      32.714   3.775  47.370  1.00  0.00     0.073 A 
HETATM   23 CL1  UNL     1      32.262   2.240  46.641  1.00  0.00    -0.081 Cl
HETATM   24  C18 UNL     1      31.696   4.700  47.407  1.00  0.00     0.041 A 
ENDBRANCH  14  17
BRANCH   1  25
HETATM   25  O1  UNL     1      23.533   4.754  49.784  1.00  0.00    -0.356 OA
HETATM   26  C1  UNL     1      23.053   4.419  51.048  1.00  0.00     0.210 C 
ENDBRANCH   1  25
TORSDOF 2
ENDMDL
MODEL 9
REMARK VINA RESULT:      -7.6      4.833      7.450
REMARK  2 active torsions:
REMARK  status: ('A' for Active; 'I' for Inactive)
REMARK    1  A    between atoms: O1_2  and  C2_3 
REMARK    2  A    between atoms: C12_16  and  C13_17 
ROOT
HETATM    1  C2  UNL     1      26.321   2.745  50.971  1.00  0.00     0.069 A 
HETATM    2  C3  UNL     1      26.827   2.024  52.024  1.00  0.00     0.039 A 
HETATM    3  C4  UNL     1      25.981   1.238  52.739  1.00  0.00     0.040 A 
HETATM    4  C5  UNL     1      24.642   1.164  52.415  1.00  0.00     0.086 A 
HETATM    5  C6  UNL     1      24.098   1.872  51.366  1.00  0.00    -0.004 A 
HETATM    6  C7  UNL     1      24.983   2.677  50.639  1.00  0.00     0.048 A 
HETATM    7  C8  UNL     1      22.766   2.045  50.737  1.00  0.00     0.161 C 
HETATM    8  N1  UNL     1      21.666   1.703  51.618  1.00  0.00    -0.380 N 
HETATM    9  C9  UNL     1      21.561   0.626  52.543  1.00  0.00     0.112 A 
HETATM   10  C10 UNL     1      22.582   0.025  53.266  1.00  0.00     0.200 A 
HETATM   11  N2  UNL     1      22.288  -0.985  54.122  1.00  0.00    -0.215 NA
HETATM   12  C11 UNL     1      20.999  -1.345  54.214  1.00  0.00     0.236 A 
HETATM   13  N3  UNL     1      19.991  -0.779  53.523  1.00  0.00    -0.239 NA
HETATM   14  C12 UNL     1      20.241   0.236  52.655  1.00  0.00     0.099 A 
HETATM   15  O2  UNL     1      23.948   0.327  53.240  1.00  0.00    -0.289 OA
HETATM   16  H9  UNL     1      20.774   2.281  51.648  1.00  0.00     0.160 HD
ENDROOT
BRANCH  14  17
HETATM   17  C13 UNL     1      19.123   0.820  51.925  1.00  0.00    -0.003 A 
HETATM   18  C14 UNL     1      18.573  -0.115  51.038  1.00  0.00     0.017 A 
HETATM   19  C15 UNL     1      17.507   0.192  50.218  1.00  0.00     0.045 A 
HETATM   20  C16 UNL     1      16.954   1.455  50.257  1.00  0.00     0.138 A 
HETATM   21  F1  UNL     1      15.896   1.843  49.477  1.00  0.00    -0.204 F 
HETATM   22  C17 UNL     1      17.492   2.379  51.128  1.00  0.00     0.073 A 
HETATM   23 CL1  UNL     1      16.895   4.025  51.291  1.00  0.00    -0.081 Cl
HETATM   24  C18 UNL     1      18.555   2.083  51.951  1.00  0.00     0.041 A 
ENDBRANCH  14  17
BRANCH   1  25
HETATM   25  O1  UNL     1      27.164   3.557  50.222  1.00  0.00    -0.356 OA
HETATM   26  C1  UNL     1      26.728   4.362  49.173  1.00  0.00     0.210 C 
ENDBRANCH   1  25
TORSDOF 2
ENDMDL
