MODEL 1
REMARK VINA RESULT:      -7.4      0.000      0.000
REMARK  4 active torsions:
REMARK  status: ('A' for Active; 'I' for Inactive)
REMARK    1  A    between atoms: O1_2  and  C2_3 
REMARK    2  A    between atoms: C4_6  and  N1_7 
REMARK    3  A    between atoms: C15_19  and  O2_20 
REMARK    4  A    between atoms: O2_20  and  C16_21 
ROOT
HETATM    1  N1  UNL     1      23.130   1.296  51.872  1.00  0.00    -0.330 N 
HETATM    2  C5  UNL     1      21.919   0.916  52.546  1.00  0.00     0.075 A 
HETATM    3  C6  UNL     1      21.047   2.078  52.838  1.00  0.00     0.011 A 
HETATM    4  C7  UNL     1      19.893   1.928  52.190  1.00  0.00     0.041 A 
HETATM    5  C8  UNL     1      19.925   0.669  51.434  1.00  0.00     0.115 A 
HETATM    6  F1  UNL     1      18.785   0.426  50.735  1.00  0.00    -0.206 F 
HETATM    7  C9  UNL     1      21.096   0.075  51.633  1.00  0.00     0.050 A 
HETATM    8  C10 UNL     1      22.268   0.113  53.749  1.00  0.00     0.043 C 
HETATM    9  C11 UNL     1      23.610  -0.473  53.350  1.00  0.00     0.039 C 
HETATM   10  C12 UNL     1      24.234   0.758  52.681  1.00  0.00     0.057 A 
HETATM   11  C13 UNL     1      25.350   0.394  51.791  1.00  0.00     0.007 A 
HETATM   12  C14 UNL     1      26.593   0.834  51.915  1.00  0.00     0.035 A 
HETATM   13  C15 UNL     1      26.990   1.752  52.981  1.00  0.00     0.072 A 
HETATM   14  C17 UNL     1      26.014   2.103  53.801  1.00  0.00     0.013 A 
HETATM   15  C18 UNL     1      24.601   1.694  53.781  1.00  0.00     0.065 A 
ENDROOT
BRANCH   1  16
HETATM   16  C4  UNL     1      23.114   2.041  50.674  1.00  0.00     0.173 A 
HETATM   17  S1  UNL     1      23.858   3.795  50.604  1.00  0.00    -0.060 SA
HETATM   18  C3  UNL     1      23.427   4.009  48.754  1.00  0.00     0.111 A 
HETATM   19  C2  UNL     1      22.802   2.704  48.557  1.00  0.00     0.173 A 
HETATM   20  N3  UNL     1      22.696   1.824  49.536  1.00  0.00    -0.200 NA
BRANCH  19  21
HETATM   21  O1  UNL     1      22.355   2.543  47.229  1.00  0.00    -0.339 OA
HETATM   22  C1  UNL     1      21.907   3.675  46.523  1.00  0.00     0.211 C 
ENDBRANCH  19  21
ENDBRANCH   1  16
BRANCH  13  23
HETATM   23  O2  UNL     1      28.284   2.224  53.128  1.00  0.00    -0.305 OA
BRANCH  23  24
HETATM   24  C16 UNL     1      29.338   1.437  53.575  1.00  0.00     0.249 C 
HETATM   25  N2  UNL     1      29.439   2.459  54.381  1.00  0.00    -0.289 NA
HETATM   26  H15 UNL     1      30.179   2.502  55.107  1.00  0.00     0.188 HD
ENDBRANCH  23  24
ENDBRANCH  13  23
TORSDOF 4
ENDMDL
MODEL 2
REMARK VINA RESULT:      -7.3      3.167      3.935
REMARK  4 active torsions:
REMARK  status: ('A' for Active; 'I' for Inactive)
REMARK    1  A    between atoms: O1_2  and  C2_3 
REMARK    2  A    between atoms: C4_6  and  N1_7 
REMARK    3  A    between atoms: C15_19  and  O2_20 
REMARK    4  A    between atoms: O2_20  and  C16_21 
ROOT
HETATM    1  N1  UNL     1      24.151   3.846  50.898  1.00  0.00    -0.330 N 
HETATM    2  C5  UNL     1      22.727   3.754  50.725  1.00  0.00     0.075 A 
HETATM    3  C6  UNL     1      22.014   4.933  51.268  1.00  0.00     0.011 A 
HETATM    4  C7  UNL     1      21.380   5.552  50.275  1.00  0.00     0.041 A 
HETATM    5  C8  UNL     1      21.629   4.829  49.020  1.00  0.00     0.115 A 
HETATM    6  F1  UNL     1      21.019   5.389  47.942  1.00  0.00    -0.206 F 
HETATM    7  C9  UNL     1      22.409   3.786  49.271  1.00  0.00     0.050 A 
HETATM    8  C10 UNL     1      22.256   2.458  51.288  1.00  0.00     0.043 C 
HETATM    9  C11 UNL     1      23.501   1.599  51.166  1.00  0.00     0.039 C 
HETATM   10  C12 UNL     1      24.558   2.622  51.603  1.00  0.00     0.057 A 
HETATM   11  C13 UNL     1      25.910   2.239  51.163  1.00  0.00     0.007 A 
HETATM   12  C14 UNL     1      26.942   2.036  51.968  1.00  0.00     0.035 A 
HETATM   13  C15 UNL     1      26.834   2.178  53.419  1.00  0.00     0.072 A 
HETATM   14  C17 UNL     1      25.634   2.521  53.854  1.00  0.00     0.013 A 
HETATM   15  C18 UNL     1      24.410   2.776  53.078  1.00  0.00     0.065 A 
ENDROOT
BRANCH   1  16
HETATM   16  C4  UNL     1      24.887   4.955  50.431  1.00  0.00     0.173 A 
HETATM   17  S1  UNL     1      26.211   4.748  49.074  1.00  0.00    -0.060 SA
HETATM   18  C3  UNL     1      26.648   6.609  49.080  1.00  0.00     0.111 A 
HETATM   19  C2  UNL     1      25.701   7.018  50.114  1.00  0.00     0.173 A 
HETATM   20  N3  UNL     1      24.897   6.155  50.707  1.00  0.00    -0.200 NA
BRANCH  19  21
HETATM   21  O1  UNL     1      25.780   8.404  50.364  1.00  0.00    -0.339 OA
HETATM   22  C1  UNL     1      27.004   9.064  50.145  1.00  0.00     0.211 C 
ENDBRANCH  19  21
ENDBRANCH   1  16
BRANCH  13  23
HETATM   23  O2  UNL     1      27.900   1.970  54.279  1.00  0.00    -0.305 OA
BRANCH  23  24
HETATM   24  C16 UNL     1      29.055   1.291  53.914  1.00  0.00     0.249 C 
HETATM   25  N2  UNL     1      29.560   2.276  54.605  1.00  0.00    -0.289 NA
HETATM   26  H15 UNL     1      30.585   2.370  54.743  1.00  0.00     0.188 HD
ENDBRANCH  23  24
ENDBRANCH  13  23
TORSDOF 4
ENDMDL
MODEL 3
REMARK VINA RESULT:      -7.3      3.541      6.217
REMARK  4 active torsions:
REMARK  status: ('A' for Active; 'I' for Inactive)
REMARK    1  A    between atoms: O1_2  and  C2_3 
REMARK    2  A    between atoms: C4_6  and  N1_7 
REMARK    3  A    between atoms: C15_19  and  O2_20 
REMARK    4  A    between atoms: O2_20  and  C16_21 
ROOT
HETATM    1  N1  UNL     1      23.922   0.877  53.238  1.00  0.00    -0.330 N 
HETATM    2  C5  UNL     1      25.260   0.371  53.374  1.00  0.00     0.075 A 
HETATM    3  C6  UNL     1      25.949   0.235  52.070  1.00  0.00     0.011 A 
HETATM    4  C7  UNL     1      27.014   1.034  52.056  1.00  0.00     0.041 A 
HETATM    5  C8  UNL     1      27.099   1.744  53.339  1.00  0.00     0.115 A 
HETATM    6  F1  UNL     1      28.160   2.590  53.421  1.00  0.00    -0.206 F 
HETATM    7  C9  UNL     1      26.087   1.367  54.110  1.00  0.00     0.050 A 
HETATM    8  C10 UNL     1      25.219  -0.891  54.164  1.00  0.00     0.043 C 
HETATM    9  C11 UNL     1      23.958  -0.699  54.986  1.00  0.00     0.039 C 
HETATM   10  C12 UNL     1      23.046  -0.092  53.912  1.00  0.00     0.057 A 
HETATM   11  C13 UNL     1      21.901   0.622  54.502  1.00  0.00     0.007 A 
HETATM   12  C14 UNL     1      20.629   0.336  54.272  1.00  0.00     0.035 A 
HETATM   13  C15 UNL     1      20.225  -0.750  53.381  1.00  0.00     0.072 A 
HETATM   14  C17 UNL     1      21.226  -1.416  52.831  1.00  0.00     0.013 A 
HETATM   15  C18 UNL     1      22.673  -1.208  52.997  1.00  0.00     0.065 A 
ENDROOT
BRANCH   1  16
HETATM   16  C4  UNL     1      23.648   2.085  52.562  1.00  0.00     0.173 A 
HETATM   17  S1  UNL     1      22.784   2.079  50.862  1.00  0.00    -0.060 SA
HETATM   18  C3  UNL     1      22.825   3.986  50.726  1.00  0.00     0.111 A 
HETATM   19  C2  UNL     1      23.489   4.248  52.001  1.00  0.00     0.173 A 
HETATM   20  N3  UNL     1      23.847   3.273  52.816  1.00  0.00    -0.200 NA
BRANCH  19  21
HETATM   21  O1  UNL     1      23.674   5.630  52.209  1.00  0.00    -0.339 OA
HETATM   22  C1  UNL     1      23.987   6.446  51.105  1.00  0.00     0.211 C 
ENDBRANCH  19  21
ENDBRANCH   1  16
BRANCH  13  23
HETATM   23  O2  UNL     1      18.901  -1.065  53.127  1.00  0.00    -0.305 OA
BRANCH  23  24
HETATM   24  C16 UNL     1      18.272  -2.195  53.636  1.00  0.00     0.249 C 
HETATM   25  N2  UNL     1      17.365  -1.286  53.870  1.00  0.00    -0.289 NA
HETATM   26  H15 UNL     1      16.466  -1.527  54.328  1.00  0.00     0.188 HD
ENDBRANCH  23  24
ENDBRANCH  13  23
TORSDOF 4
ENDMDL
MODEL 4
REMARK VINA RESULT:      -7.2     10.075     12.467
REMARK  4 active torsions:
REMARK  status: ('A' for Active; 'I' for Inactive)
REMARK    1  A    between atoms: O1_2  and  C2_3 
REMARK    2  A    between atoms: C4_6  and  N1_7 
REMARK    3  A    between atoms: C15_19  and  O2_20 
REMARK    4  A    between atoms: O2_20  and  C16_21 
ROOT
HETATM    1  N1  UNL     1      32.572   6.590  47.108  1.00  0.00    -0.330 N 
HETATM    2  C5  UNL     1      32.782   5.211  46.766  1.00  0.00     0.075 A 
HETATM    3  C6  UNL     1      32.452   4.923  45.350  1.00  0.00     0.011 A 
HETATM    4  C7  UNL     1      33.552   4.509  44.724  1.00  0.00     0.041 A 
HETATM    5  C8  UNL     1      34.671   4.494  45.675  1.00  0.00     0.115 A 
HETATM    6  F1  UNL     1      35.844   4.083  45.125  1.00  0.00    -0.206 F 
HETATM    7  C9  UNL     1      34.236   4.900  46.861  1.00  0.00     0.050 A 
HETATM    8  C10 UNL     1      32.047   4.356  47.737  1.00  0.00     0.043 C 
HETATM    9  C11 UNL     1      31.990   5.256  48.958  1.00  0.00     0.039 C 
HETATM   10  C12 UNL     1      31.674   6.591  48.272  1.00  0.00     0.057 A 
HETATM   11  C13 UNL     1      32.000   7.742  49.132  1.00  0.00     0.007 A 
HETATM   12  C14 UNL     1      31.136   8.664  49.526  1.00  0.00     0.035 A 
HETATM   13  C15 UNL     1      29.728   8.628  49.132  1.00  0.00     0.072 A 
HETATM   14  C17 UNL     1      29.395   7.608  48.359  1.00  0.00     0.013 A 
HETATM   15  C18 UNL     1      30.246   6.521  47.851  1.00  0.00     0.065 A 
ENDROOT
BRANCH   1  16
HETATM   16  C4  UNL     1      33.175   7.639  46.381  1.00  0.00     0.173 A 
HETATM   17  S1  UNL     1      32.132   8.773  45.257  1.00  0.00    -0.060 SA
HETATM   18  C3  UNL     1      33.651   9.805  44.725  1.00  0.00     0.111 A 
HETATM   19  C2  UNL     1      34.650   9.081  45.508  1.00  0.00     0.173 A 
HETATM   20  N3  UNL     1      34.328   8.054  46.273  1.00  0.00    -0.200 NA
BRANCH  19  21
HETATM   21  O1  UNL     1      35.938   9.625  45.326  1.00  0.00    -0.339 OA
HETATM   22  C1  UNL     1      36.381   9.893  44.016  1.00  0.00     0.211 C 
ENDBRANCH  19  21
ENDBRANCH   1  16
BRANCH  13  23
HETATM   23  O2  UNL     1      28.807   9.581  49.533  1.00  0.00    -0.305 OA
BRANCH  23  24
HETATM   24  C16 UNL     1      27.458   9.310  49.720  1.00  0.00     0.249 C 
HETATM   25  N2  UNL     1      27.822   9.584  50.943  1.00  0.00    -0.289 NA
HETATM   26  H15 UNL     1      27.143   9.557  51.727  1.00  0.00     0.188 HD
ENDBRANCH  23  24
ENDBRANCH  13  23
TORSDOF 4
ENDMDL
MODEL 5
REMARK VINA RESULT:      -7.2      3.200      6.271
REMARK  4 active torsions:
REMARK  status: ('A' for Active; 'I' for Inactive)
REMARK    1  A    between atoms: O1_2  and  C2_3 
REMARK    2  A    between atoms: C4_6  and  N1_7 
REMARK    3  A    between atoms: C15_19  and  O2_20 
REMARK    4  A    between atoms: O2_20  and  C16_21 
ROOT
HETATM    1  N1  UNL     1      23.471   2.015  52.199  1.00  0.00    -0.330 N 
HETATM    2  C5  UNL     1      24.565   1.226  52.694  1.00  0.00     0.075 A 
HETATM    3  C6  UNL     1      25.585   0.958  51.653  1.00  0.00     0.011 A 
HETATM    4  C7  UNL     1      26.740   1.504  52.027  1.00  0.00     0.041 A 
HETATM    5  C8  UNL     1      26.563   2.163  53.328  1.00  0.00     0.115 A 
HETATM    6  F1  UNL     1      27.694   2.754  53.794  1.00  0.00    -0.206 F 
HETATM    7  C9  UNL     1      25.305   2.008  53.723  1.00  0.00     0.050 A 
HETATM    8  C10 UNL     1      24.022  -0.005  53.331  1.00  0.00     0.043 C 
HETATM    9  C11 UNL     1      22.634   0.449  53.745  1.00  0.00     0.039 C 
HETATM   10  C12 UNL     1      22.249   1.254  52.497  1.00  0.00     0.057 A 
HETATM   11  C13 UNL     1      21.148   2.194  52.767  1.00  0.00     0.007 A 
HETATM   12  C14 UNL     1      19.982   2.198  52.141  1.00  0.00     0.035 A 
HETATM   13  C15 UNL     1      19.664   1.237  51.085  1.00  0.00     0.072 A 
HETATM   14  C17 UNL     1      20.629   0.374  50.813  1.00  0.00     0.013 A 
HETATM   15  C18 UNL     1      21.961   0.258  51.426  1.00  0.00     0.065 A 
ENDROOT
BRANCH   1  16
HETATM   16  C4  UNL     1      23.676   3.262  51.571  1.00  0.00     0.173 A 
HETATM   17  S1  UNL     1      23.667   3.410  49.670  1.00  0.00    -0.060 SA
HETATM   18  C3  UNL     1      23.994   5.293  49.718  1.00  0.00     0.111 A 
HETATM   19  C2  UNL     1      24.046   5.435  51.172  1.00  0.00     0.173 A 
HETATM   20  N3  UNL     1      23.882   4.404  51.980  1.00  0.00    -0.200 NA
BRANCH  19  21
HETATM   21  O1  UNL     1      24.285   6.772  51.550  1.00  0.00    -0.339 OA
HETATM   22  C1  UNL     1      23.831   7.806  50.708  1.00  0.00     0.211 C 
ENDBRANCH  19  21
ENDBRANCH   1  16
BRANCH  13  23
HETATM   23  O2  UNL     1      18.451   1.223  50.418  1.00  0.00    -0.305 OA
BRANCH  23  24
HETATM   24  C16 UNL     1      17.586   0.136  50.428  1.00  0.00     0.249 C 
HETATM   25  N2  UNL     1      17.385   0.595  49.222  1.00  0.00    -0.289 NA
HETATM   26  H15 UNL     1      16.715   0.138  48.576  1.00  0.00     0.188 HD
ENDBRANCH  23  24
ENDBRANCH  13  23
TORSDOF 4
ENDMDL
MODEL 6
REMARK VINA RESULT:      -7.1      3.104      5.577
REMARK  4 active torsions:
REMARK  status: ('A' for Active; 'I' for Inactive)
REMARK    1  A    between atoms: O1_2  and  C2_3 
REMARK    2  A    between atoms: C4_6  and  N1_7 
REMARK    3  A    between atoms: C15_19  and  O2_20 
REMARK    4  A    between atoms: O2_20  and  C16_21 
ROOT
HETATM    1  N1  UNL     1      23.493   3.690  51.206  1.00  0.00    -0.330 N 
HETATM    2  C5  UNL     1      22.245   2.997  51.045  1.00  0.00     0.075 A 
HETATM    3  C6  UNL     1      22.408   1.686  50.374  1.00  0.00     0.011 A 
HETATM    4  C7  UNL     1      22.022   0.721  51.206  1.00  0.00     0.041 A 
HETATM    5  C8  UNL     1      21.580   1.324  52.471  1.00  0.00     0.115 A 
HETATM    6  F1  UNL     1      21.165   0.413  53.390  1.00  0.00    -0.206 F 
HETATM    7  C9  UNL     1      21.706   2.643  52.388  1.00  0.00     0.050 A 
HETATM    8  C10 UNL     1      21.276   3.900  50.366  1.00  0.00     0.043 C 
HETATM    9  C11 UNL     1      21.805   5.268  50.755  1.00  0.00     0.039 C 
HETATM   10  C12 UNL     1      23.309   5.013  50.591  1.00  0.00     0.057 A 
HETATM   11  C13 UNL     1      24.118   6.002  51.324  1.00  0.00     0.007 A 
HETATM   12  C14 UNL     1      25.015   6.806  50.775  1.00  0.00     0.035 A 
HETATM   13  C15 UNL     1      25.299   6.788  49.341  1.00  0.00     0.072 A 
HETATM   14  C17 UNL     1      24.592   5.912  48.647  1.00  0.00     0.013 A 
HETATM   15  C18 UNL     1      23.571   4.966  49.125  1.00  0.00     0.065 A 
ENDROOT
BRANCH   1  16
HETATM   16  C4  UNL     1      24.598   3.094  51.850  1.00  0.00     0.173 A 
HETATM   17  S1  UNL     1      26.209   2.736  50.894  1.00  0.00    -0.060 SA
HETATM   18  C3  UNL     1      27.070   1.994  52.432  1.00  0.00     0.111 A 
HETATM   19  C2  UNL     1      25.961   2.166  53.366  1.00  0.00     0.173 A 
HETATM   20  N3  UNL     1      24.813   2.704  52.997  1.00  0.00    -0.200 NA
BRANCH  19  21
HETATM   21  O1  UNL     1      26.295   1.694  54.653  1.00  0.00    -0.339 OA
HETATM   22  C1  UNL     1      26.673   0.346  54.802  1.00  0.00     0.211 C 
ENDBRANCH  19  21
ENDBRANCH   1  16
BRANCH  13  23
HETATM   23  O2  UNL     1      26.232   7.620  48.746  1.00  0.00    -0.305 OA
BRANCH  23  24
HETATM   24  C16 UNL     1      27.369   7.153  48.097  1.00  0.00     0.249 C 
HETATM   25  N2  UNL     1      27.891   7.612  49.202  1.00  0.00    -0.289 NA
HETATM   26  H15 UNL     1      28.912   7.557  49.379  1.00  0.00     0.188 HD
ENDBRANCH  23  24
ENDBRANCH  13  23
TORSDOF 4
ENDMDL
MODEL 7
REMARK VINA RESULT:      -7.1      1.488      1.555
REMARK  4 active torsions:
REMARK  status: ('A' for Active; 'I' for Inactive)
REMARK    1  A    between atoms: O1_2  and  C2_3 
REMARK    2  A    between atoms: C4_6  and  N1_7 
REMARK    3  A    between atoms: C15_19  and  O2_20 
REMARK    4  A    between atoms: O2_20  and  C16_21 
ROOT
HETATM    1  N1  UNL     1      23.548   0.690  52.587  1.00  0.00    -0.330 N 
HETATM    2  C5  UNL     1      22.245   0.159  52.882  1.00  0.00     0.075 A 
HETATM    3  C6  UNL     1      21.382   1.137  53.584  1.00  0.00     0.011 A 
HETATM    4  C7  UNL     1      20.321   1.402  52.824  1.00  0.00     0.041 A 
HETATM    5  C8  UNL     1      20.411   0.624  51.582  1.00  0.00     0.115 A 
HETATM    6  F1  UNL     1      19.367   0.828  50.736  1.00  0.00    -0.206 F 
HETATM    7  C9  UNL     1      21.524  -0.100  51.605  1.00  0.00     0.050 A 
HETATM    8  C10 UNL     1      22.403  -1.129  53.610  1.00  0.00     0.043 C 
HETATM    9  C11 UNL     1      23.766  -1.592  53.127  1.00  0.00     0.039 C 
HETATM   10  C12 UNL     1      24.515  -0.253  53.167  1.00  0.00     0.057 A 
HETATM   11  C13 UNL     1      25.727  -0.276  52.331  1.00  0.00     0.007 A 
HETATM   12  C14 UNL     1      26.957  -0.055  52.770  1.00  0.00     0.035 A 
HETATM   13  C15 UNL     1      27.238   0.242  54.174  1.00  0.00     0.072 A 
HETATM   14  C17 UNL     1      26.174   0.272  54.958  1.00  0.00     0.013 A 
HETATM   15  C18 UNL     1      24.764   0.047  54.606  1.00  0.00     0.065 A 
ENDROOT
BRANCH   1  16
HETATM   16  C4  UNL     1      23.717   1.894  51.871  1.00  0.00     0.173 A 
HETATM   17  S1  UNL     1      24.113   3.523  52.779  1.00  0.00    -0.060 SA
HETATM   18  C3  UNL     1      24.164   4.529  51.154  1.00  0.00     0.111 A 
HETATM   19  C2  UNL     1      23.869   3.426  50.244  1.00  0.00     0.173 A 
HETATM   20  N3  UNL     1      23.669   2.195  50.679  1.00  0.00    -0.200 NA
BRANCH  19  21
HETATM   21  O1  UNL     1      23.835   3.861  48.903  1.00  0.00    -0.339 OA
HETATM   22  C1  UNL     1      22.608   3.835  48.213  1.00  0.00     0.211 C 
ENDBRANCH  19  21
ENDBRANCH   1  16
BRANCH  13  23
HETATM   23  O2  UNL     1      28.516   0.475  54.654  1.00  0.00    -0.305 OA
BRANCH  23  24
HETATM   24  C16 UNL     1      29.584   0.836  53.843  1.00  0.00     0.249 C 
HETATM   25  N2  UNL     1      29.422   1.932  54.532  1.00  0.00    -0.289 NA
HETATM   26  H15 UNL     1      30.028   2.761  54.379  1.00  0.00     0.188 HD
ENDBRANCH  23  24
ENDBRANCH  13  23
TORSDOF 4
ENDMDL
MODEL 8
REMARK VINA RESULT:      -6.9      3.500      5.940
REMARK  4 active torsions:
REMARK  status: ('A' for Active; 'I' for Inactive)
REMARK    1  A    between atoms: O1_2  and  C2_3 
REMARK    2  A    between atoms: C4_6  and  N1_7 
REMARK    3  A    between atoms: C15_19  and  O2_20 
REMARK    4  A    between atoms: O2_20  and  C16_21 
ROOT
HETATM    1  N1  UNL     1      23.273   4.438  49.763  1.00  0.00    -0.330 N 
HETATM    2  C5  UNL     1      22.250   3.890  48.915  1.00  0.00     0.075 A 
HETATM    3  C6  UNL     1      22.801   2.990  47.875  1.00  0.00     0.011 A 
HETATM    4  C7  UNL     1      22.312   1.765  48.058  1.00  0.00     0.041 A 
HETATM    5  C8  UNL     1      21.413   1.774  49.219  1.00  0.00     0.115 A 
HETATM    6  F1  UNL     1      20.861   0.561  49.487  1.00  0.00    -0.206 F 
HETATM    7  C9  UNL     1      21.371   3.001  49.724  1.00  0.00     0.050 A 
HETATM    8  C10 UNL     1      21.429   5.004  48.368  1.00  0.00     0.043 C 
HETATM    9  C11 UNL     1      21.609   6.071  49.433  1.00  0.00     0.039 C 
HETATM   10  C12 UNL     1      23.107   5.899  49.712  1.00  0.00     0.057 A 
HETATM   11  C13 UNL     1      23.495   6.474  51.011  1.00  0.00     0.007 A 
HETATM   12  C14 UNL     1      24.397   7.428  51.180  1.00  0.00     0.035 A 
HETATM   13  C15 UNL     1      25.119   8.022  50.057  1.00  0.00     0.072 A 
HETATM   14  C17 UNL     1      24.799   7.532  48.871  1.00  0.00     0.013 A 
HETATM   15  C18 UNL     1      23.824   6.481  48.542  1.00  0.00     0.065 A 
ENDROOT
BRANCH   1  16
HETATM   16  C4  UNL     1      24.190   3.617  50.452  1.00  0.00     0.173 A 
HETATM   17  S1  UNL     1      26.020   3.538  49.921  1.00  0.00    -0.060 SA
HETATM   18  C3  UNL     1      26.466   2.286  51.296  1.00  0.00     0.111 A 
HETATM   19  C2  UNL     1      25.133   2.177  51.885  1.00  0.00     0.173 A 
HETATM   20  N3  UNL     1      24.102   2.853  51.413  1.00  0.00    -0.200 NA
BRANCH  19  21
HETATM   21  O1  UNL     1      25.126   1.284  52.977  1.00  0.00    -0.339 OA
HETATM   22  C1  UNL     1      26.263   1.218  53.805  1.00  0.00     0.211 C 
ENDBRANCH  19  21
ENDBRANCH   1  16
BRANCH  13  23
HETATM   23  O2  UNL     1      26.065   9.021  50.211  1.00  0.00    -0.305 OA
BRANCH  23  24
HETATM   24  C16 UNL     1      27.403   8.867  49.871  1.00  0.00     0.249 C 
HETATM   25  N2  UNL     1      27.514   9.472  51.021  1.00  0.00    -0.289 NA
HETATM   26  H15 UNL     1      28.443   9.700  51.424  1.00  0.00     0.188 HD
ENDBRANCH  23  24
ENDBRANCH  13  23
TORSDOF 4
ENDMDL
MODEL 9
REMARK VINA RESULT:      -6.8      3.253      6.591
REMARK  4 active torsions:
REMARK  status: ('A' for Active; 'I' for Inactive)
REMARK    1  A    between atoms: O1_2  and  C2_3 
REMARK    2  A    between atoms: C4_6  and  N1_7 
REMARK    3  A    between atoms: C15_19  and  O2_20 
REMARK    4  A    between atoms: O2_20  and  C16_21 
ROOT
HETATM    1  N1  UNL     1      23.360   3.524  51.103  1.00  0.00    -0.330 N 
HETATM    2  C5  UNL     1      23.290   4.866  50.594  1.00  0.00     0.075 A 
HETATM    3  C6  UNL     1      23.635   5.878  51.620  1.00  0.00     0.011 A 
HETATM    4  C7  UNL     1      24.719   6.543  51.225  1.00  0.00     0.041 A 
HETATM    5  C8  UNL     1      25.158   6.020  49.924  1.00  0.00     0.115 A 
HETATM    6  F1  UNL     1      26.265   6.639  49.436  1.00  0.00    -0.206 F 
HETATM    7  C9  UNL     1      24.336   5.047  49.550  1.00  0.00     0.050 A 
HETATM    8  C10 UNL     1      21.954   5.077  49.972  1.00  0.00     0.043 C 
HETATM    9  C11 UNL     1      21.571   3.662  49.578  1.00  0.00     0.039 C 
HETATM   10  C12 UNL     1      22.050   2.913  50.828  1.00  0.00     0.057 A 
HETATM   11  C13 UNL     1      22.234   1.475  50.571  1.00  0.00     0.007 A 
HETATM   12  C14 UNL     1      21.607   0.503  51.217  1.00  0.00     0.035 A 
HETATM   13  C15 UNL     1      20.643   0.773  52.281  1.00  0.00     0.072 A 
HETATM   14  C17 UNL     1      20.451   2.055  52.542  1.00  0.00     0.013 A 
HETATM   15  C18 UNL     1      21.073   3.228  51.908  1.00  0.00     0.065 A 
ENDROOT
BRANCH   1  16
HETATM   16  C4  UNL     1      24.524   3.021  51.722  1.00  0.00     0.173 A 
HETATM   17  S1  UNL     1      26.097   2.667  50.703  1.00  0.00    -0.060 SA
HETATM   18  C3  UNL     1      27.071   2.069  52.236  1.00  0.00     0.111 A 
HETATM   19  C2  UNL     1      26.006   2.257  53.217  1.00  0.00     0.173 A 
HETATM   20  N3  UNL     1      24.816   2.719  52.878  1.00  0.00    -0.200 NA
BRANCH  19  21
HETATM   21  O1  UNL     1      26.428   1.887  54.511  1.00  0.00    -0.339 OA
HETATM   22  C1  UNL     1      26.816   0.553  54.742  1.00  0.00     0.211 C 
ENDBRANCH  19  21
ENDBRANCH   1  16
BRANCH  13  23
HETATM   23  O2  UNL     1      19.977  -0.228  52.969  1.00  0.00    -0.305 OA
BRANCH  23  24
HETATM   24  C16 UNL     1      18.654  -0.574  52.723  1.00  0.00     0.249 C 
HETATM   25  N2  UNL     1      18.881  -1.246  53.819  1.00  0.00    -0.289 NA
HETATM   26  H15 UNL     1      18.146  -1.834  54.253  1.00  0.00     0.188 HD
ENDBRANCH  23  24
ENDBRANCH  13  23
TORSDOF 4
ENDMDL
