MODEL 1
REMARK VINA RESULT:      -8.4      0.000      0.000
REMARK  4 active torsions:
REMARK  status: ('A' for Active; 'I' for Inactive)
REMARK    1  A    between atoms: C3_3  and  C4_4 
REMARK       I    between atoms: C4_4  and  N1_6 
REMARK    2  A    between atoms: N1_6  and  C5_7 
REMARK    3  A    between atoms: C10_14  and  N4_15 
REMARK    4  A    between atoms: N4_15  and  C11_16 
ROOT
HETATM    1  C1  UNL     1      28.575   6.967  47.706  1.00  0.00     0.112 C 
HETATM    2  C2  UNL     1      27.805   5.891  48.341  1.00  0.00    -0.101 C 
HETATM    3  C3  UNL     1      27.174   4.991  48.855  1.00  0.00    -0.006 C 
ENDROOT
BRANCH   3   4
HETATM    4  C4  UNL     1      26.419   3.934  49.482  1.00  0.00     0.300 C 
HETATM    5  O1  UNL     1      27.008   3.102  50.245  1.00  0.00    -0.258 OA
HETATM    6  N1  UNL     1      25.021   3.886  49.200  1.00  0.00    -0.316 N 
HETATM    7  H4  UNL     1      24.585   4.591  48.567  1.00  0.00     0.170 HD
BRANCH   6   8
HETATM    8  C5  UNL     1      23.978   3.013  49.622  1.00  0.00     0.036 A 
HETATM    9  C6  UNL     1      22.934   2.793  48.739  1.00  0.00     0.032 A 
HETATM   10  C7  UNL     1      21.917   1.949  49.134  1.00  0.00     0.035 A 
HETATM   11  C8  UNL     1      21.964   1.355  50.377  1.00  0.00     0.072 A 
HETATM   12  N2  UNL     1      20.927   0.550  50.670  1.00  0.00    -0.241 NA
HETATM   13  C17 UNL     1      22.978   1.539  51.293  1.00  0.00     0.041 A 
HETATM   14  C9  UNL     1      20.917  -0.056  51.868  1.00  0.00     0.236 A 
HETATM   15  N3  UNL     1      21.918   0.146  52.730  1.00  0.00    -0.224 NA
HETATM   16  C10 UNL     1      22.981   0.928  52.516  1.00  0.00     0.142 A 
HETATM   17  C18 UNL     1      23.962   2.391  50.840  1.00  0.00     0.047 A 
BRANCH  16  18
HETATM   18  N4  UNL     1      24.055   1.162  53.406  1.00  0.00    -0.340 N 
HETATM   19  H8  UNL     1      23.966   1.796  54.199  1.00  0.00     0.167 HD
BRANCH  18  20
HETATM   20  C11 UNL     1      25.353   0.596  53.360  1.00  0.00     0.035 A 
HETATM   21  C12 UNL     1      25.584  -0.693  52.943  1.00  0.00     0.029 A 
HETATM   22  C13 UNL     1      26.838  -1.258  52.884  1.00  0.00     0.004 A 
HETATM   23  C14 UNL     1      27.956  -0.540  53.249  1.00  0.00     0.019 A 
HETATM   24  C15 UNL     1      27.764   0.755  53.672  1.00  0.00     0.013 A 
HETATM   25 BR1  UNL     1      29.249   1.815  54.193  1.00  0.00    -0.051 Br
HETATM   26  C16 UNL     1      26.495   1.268  53.712  1.00  0.00     0.048 A 
ENDBRANCH  18  20
ENDBRANCH  16  18
ENDBRANCH   6   8
ENDBRANCH   3   4
TORSDOF 4
ENDMDL
MODEL 2
REMARK VINA RESULT:      -8.2      3.023      7.158
REMARK  4 active torsions:
REMARK  status: ('A' for Active; 'I' for Inactive)
REMARK    1  A    between atoms: C3_3  and  C4_4 
REMARK       I    between atoms: C4_4  and  N1_6 
REMARK    2  A    between atoms: N1_6  and  C5_7 
REMARK    3  A    between atoms: C10_14  and  N4_15 
REMARK    4  A    between atoms: N4_15  and  C11_16 
ROOT
HETATM    1  C1  UNL     1      17.030  -0.331  50.525  1.00  0.00     0.112 C 
HETATM    2  C2  UNL     1      18.261  -0.034  51.266  1.00  0.00    -0.101 C 
HETATM    3  C3  UNL     1      19.276   0.228  51.877  1.00  0.00    -0.006 C 
ENDROOT
BRANCH   3   4
HETATM    4  C4  UNL     1      20.485   0.518  52.608  1.00  0.00     0.300 C 
HETATM    5  O1  UNL     1      20.415   0.918  53.816  1.00  0.00    -0.258 OA
HETATM    6  N1  UNL     1      21.718   0.335  51.914  1.00  0.00    -0.316 N 
HETATM    7  H4  UNL     1      21.723   0.005  50.924  1.00  0.00     0.170 HD
BRANCH   6   8
HETATM    8  C5  UNL     1      23.079   0.514  52.293  1.00  0.00     0.036 A 
HETATM    9  C6  UNL     1      23.545  -0.230  53.364  1.00  0.00     0.032 A 
HETATM   10  C7  UNL     1      24.862  -0.067  53.743  1.00  0.00     0.035 A 
HETATM   11  C8  UNL     1      25.668   0.815  53.057  1.00  0.00     0.072 A 
HETATM   12  N2  UNL     1      26.934   0.904  53.502  1.00  0.00    -0.241 NA
HETATM   13  C17 UNL     1      25.255   1.579  51.986  1.00  0.00     0.041 A 
HETATM   14  C9  UNL     1      27.766   1.750  52.873  1.00  0.00     0.236 A 
HETATM   15  N3  UNL     1      27.330   2.473  51.837  1.00  0.00    -0.224 NA
HETATM   16  C10 UNL     1      26.091   2.444  51.336  1.00  0.00     0.142 A 
HETATM   17  C18 UNL     1      23.933   1.372  51.657  1.00  0.00     0.047 A 
BRANCH  16  18
HETATM   18  N4  UNL     1      25.600   3.196  50.244  1.00  0.00    -0.340 N 
HETATM   19  H8  UNL     1      24.773   2.909  49.723  1.00  0.00     0.167 HD
BRANCH  18  20
HETATM   20  C11 UNL     1      26.131   4.400  49.717  1.00  0.00     0.035 A 
HETATM   21  C12 UNL     1      27.263   4.430  48.937  1.00  0.00     0.029 A 
HETATM   22  C13 UNL     1      27.790   5.588  48.410  1.00  0.00     0.004 A 
HETATM   23  C14 UNL     1      27.194   6.808  48.644  1.00  0.00     0.019 A 
HETATM   24  C15 UNL     1      26.058   6.816  49.421  1.00  0.00     0.013 A 
HETATM   25 BR1  UNL     1      25.174   8.454  49.792  1.00  0.00    -0.051 Br
HETATM   26  C16 UNL     1      25.576   5.636  49.920  1.00  0.00     0.048 A 
ENDBRANCH  18  20
ENDBRANCH  16  18
ENDBRANCH   6   8
ENDBRANCH   3   4
TORSDOF 4
ENDMDL
MODEL 3
REMARK VINA RESULT:      -7.9      2.749      5.890
REMARK  4 active torsions:
REMARK  status: ('A' for Active; 'I' for Inactive)
REMARK    1  A    between atoms: C3_3  and  C4_4 
REMARK       I    between atoms: C4_4  and  N1_6 
REMARK    2  A    between atoms: N1_6  and  C5_7 
REMARK    3  A    between atoms: C10_14  and  N4_15 
REMARK    4  A    between atoms: N4_15  and  C11_16 
ROOT
HETATM    1  C1  UNL     1      30.140  -1.386  53.705  1.00  0.00     0.112 C 
HETATM    2  C2  UNL     1      28.905  -0.597  53.754  1.00  0.00    -0.101 C 
HETATM    3  C3  UNL     1      27.875   0.043  53.801  1.00  0.00    -0.006 C 
ENDROOT
BRANCH   3   4
HETATM    4  C4  UNL     1      26.661   0.821  53.851  1.00  0.00     0.300 C 
HETATM    5  O1  UNL     1      26.627   1.899  54.529  1.00  0.00    -0.258 OA
HETATM    6  N1  UNL     1      25.544   0.320  53.118  1.00  0.00    -0.316 N 
HETATM    7  H4  UNL     1      25.622  -0.568  52.578  1.00  0.00     0.170 HD
BRANCH   6   8
HETATM    8  C5  UNL     1      24.215   0.798  52.933  1.00  0.00     0.036 A 
HETATM    9  C6  UNL     1      23.182  -0.107  53.112  1.00  0.00     0.032 A 
HETATM   10  C7  UNL     1      21.889   0.342  52.937  1.00  0.00     0.035 A 
HETATM   11  C8  UNL     1      21.661   1.657  52.594  1.00  0.00     0.072 A 
HETATM   12  N2  UNL     1      20.368   1.997  52.445  1.00  0.00    -0.241 NA
HETATM   13  C17 UNL     1      22.651   2.597  52.402  1.00  0.00     0.041 A 
HETATM   14  C9  UNL     1      20.085   3.266  52.109  1.00  0.00     0.236 A 
HETATM   15  N3  UNL     1      21.071   4.150  51.933  1.00  0.00    -0.224 NA
HETATM   16  C10 UNL     1      22.376   3.892  52.061  1.00  0.00     0.142 A 
HETATM   17  C18 UNL     1      23.918   2.089  52.592  1.00  0.00     0.047 A 
BRANCH  16  18
HETATM   18  N4  UNL     1      23.443   4.804  51.881  1.00  0.00    -0.340 N 
HETATM   19  H8  UNL     1      23.979   5.165  52.669  1.00  0.00     0.167 HD
BRANCH  18  20
HETATM   20  C11 UNL     1      23.924   5.338  50.660  1.00  0.00     0.035 A 
HETATM   21  C12 UNL     1      23.126   6.053  49.799  1.00  0.00     0.029 A 
HETATM   22  C13 UNL     1      23.577   6.586  48.612  1.00  0.00     0.004 A 
HETATM   23  C14 UNL     1      24.887   6.425  48.216  1.00  0.00     0.019 A 
HETATM   24  C15 UNL     1      25.717   5.714  49.054  1.00  0.00     0.013 A 
HETATM   25 BR1  UNL     1      27.536   5.446  48.586  1.00  0.00    -0.051 Br
HETATM   26  C16 UNL     1      25.217   5.206  50.222  1.00  0.00     0.048 A 
ENDBRANCH  18  20
ENDBRANCH  16  18
ENDBRANCH   6   8
ENDBRANCH   3   4
TORSDOF 4
ENDMDL
MODEL 4
REMARK VINA RESULT:      -7.9      1.371      1.761
REMARK  4 active torsions:
REMARK  status: ('A' for Active; 'I' for Inactive)
REMARK    1  A    between atoms: C3_3  and  C4_4 
REMARK       I    between atoms: C4_4  and  N1_6 
REMARK    2  A    between atoms: N1_6  and  C5_7 
REMARK    3  A    between atoms: C10_14  and  N4_15 
REMARK    4  A    between atoms: N4_15  and  C11_16 
ROOT
HETATM    1  C1  UNL     1      27.485   7.775  47.960  1.00  0.00     0.112 C 
HETATM    2  C2  UNL     1      27.038   6.478  48.480  1.00  0.00    -0.101 C 
HETATM    3  C3  UNL     1      26.675   5.397  48.896  1.00  0.00    -0.006 C 
ENDROOT
BRANCH   3   4
HETATM    4  C4  UNL     1      26.238   4.122  49.409  1.00  0.00     0.300 C 
HETATM    5  O1  UNL     1      27.057   3.149  49.470  1.00  0.00    -0.258 OA
HETATM    6  N1  UNL     1      24.877   4.029  49.828  1.00  0.00    -0.316 N 
HETATM    7  H4  UNL     1      24.244   4.855  49.758  1.00  0.00     0.170 HD
BRANCH   6   8
HETATM    8  C5  UNL     1      24.103   2.965  50.374  1.00  0.00     0.036 A 
HETATM    9  C6  UNL     1      22.994   2.550  49.656  1.00  0.00     0.032 A 
HETATM   10  C7  UNL     1      22.235   1.520  50.172  1.00  0.00     0.035 A 
HETATM   11  C8  UNL     1      22.594   0.938  51.369  1.00  0.00     0.072 A 
HETATM   12  N2  UNL     1      21.792  -0.057  51.789  1.00  0.00    -0.241 NA
HETATM   13  C17 UNL     1      23.686   1.312  52.123  1.00  0.00     0.041 A 
HETATM   14  C9  UNL     1      22.091  -0.661  52.950  1.00  0.00     0.236 A 
HETATM   15  N3  UNL     1      23.158  -0.271  53.653  1.00  0.00    -0.224 NA
HETATM   16  C10 UNL     1      24.002   0.705  53.307  1.00  0.00     0.142 A 
HETATM   17  C18 UNL     1      24.402   2.344  51.555  1.00  0.00     0.047 A 
BRANCH  16  18
HETATM   18  N4  UNL     1      25.138   1.141  54.028  1.00  0.00    -0.340 N 
HETATM   19  H8  UNL     1      25.058   1.754  54.838  1.00  0.00     0.167 HD
BRANCH  18  20
HETATM   20  C11 UNL     1      26.495   0.822  53.773  1.00  0.00     0.035 A 
HETATM   21  C12 UNL     1      27.477   1.781  53.684  1.00  0.00     0.029 A 
HETATM   22  C13 UNL     1      28.801   1.492  53.444  1.00  0.00     0.004 A 
HETATM   23  C14 UNL     1      29.222   0.190  53.278  1.00  0.00     0.019 A 
HETATM   24  C15 UNL     1      28.267  -0.798  53.361  1.00  0.00     0.013 A 
HETATM   25 BR1  UNL     1      28.761  -2.617  53.144  1.00  0.00    -0.051 Br
HETATM   26  C16 UNL     1      26.964  -0.454  53.601  1.00  0.00     0.048 A 
ENDBRANCH  18  20
ENDBRANCH  16  18
ENDBRANCH   6   8
ENDBRANCH   3   4
TORSDOF 4
ENDMDL
MODEL 5
REMARK VINA RESULT:      -7.9      3.039      5.346
REMARK  4 active torsions:
REMARK  status: ('A' for Active; 'I' for Inactive)
REMARK    1  A    between atoms: C3_3  and  C4_4 
REMARK       I    between atoms: C4_4  and  N1_6 
REMARK    2  A    between atoms: N1_6  and  C5_7 
REMARK    3  A    between atoms: C10_14  and  N4_15 
REMARK    4  A    between atoms: N4_15  and  C11_16 
ROOT
HETATM    1  C1  UNL     1      27.545   6.983  47.939  1.00  0.00     0.112 C 
HETATM    2  C2  UNL     1      26.987   5.812  48.624  1.00  0.00    -0.101 C 
HETATM    3  C3  UNL     1      26.518   4.853  49.201  1.00  0.00    -0.006 C 
ENDROOT
BRANCH   3   4
HETATM    4  C4  UNL     1      25.967   3.701  49.872  1.00  0.00     0.300 C 
HETATM    5  O1  UNL     1      24.955   3.104  49.380  1.00  0.00    -0.258 OA
HETATM    6  N1  UNL     1      26.610   3.291  51.078  1.00  0.00    -0.316 N 
HETATM    7  H4  UNL     1      27.436   3.813  51.441  1.00  0.00     0.170 HD
BRANCH   6   8
HETATM    8  C5  UNL     1      26.361   2.229  51.994  1.00  0.00     0.036 A 
HETATM    9  C6  UNL     1      27.460   1.604  52.559  1.00  0.00     0.032 A 
HETATM   10  C7  UNL     1      27.234   0.574  53.449  1.00  0.00     0.035 A 
HETATM   11  C8  UNL     1      25.943   0.199  53.750  1.00  0.00     0.072 A 
HETATM   12  N2  UNL     1      25.826  -0.814  54.627  1.00  0.00    -0.241 NA
HETATM   13  C17 UNL     1      24.815   0.787  53.216  1.00  0.00     0.041 A 
HETATM   14  C9  UNL     1      24.591  -1.224  54.957  1.00  0.00     0.236 A 
HETATM   15  N3  UNL     1      23.521  -0.630  54.420  1.00  0.00    -0.224 NA
HETATM   16  C10 UNL     1      23.551   0.379  53.545  1.00  0.00     0.142 A 
HETATM   17  C18 UNL     1      25.106   1.807  52.337  1.00  0.00     0.047 A 
BRANCH  16  18
HETATM   18  N4  UNL     1      22.439   1.028  52.959  1.00  0.00    -0.340 N 
HETATM   19  H8  UNL     1      22.500   1.980  52.602  1.00  0.00     0.167 HD
BRANCH  18  20
HETATM   20  C11 UNL     1      21.135   0.506  52.774  1.00  0.00     0.035 A 
HETATM   21  C12 UNL     1      20.548  -0.355  53.672  1.00  0.00     0.029 A 
HETATM   22  C13 UNL     1      19.280  -0.867  53.514  1.00  0.00     0.004 A 
HETATM   23  C14 UNL     1      18.513  -0.534  52.419  1.00  0.00     0.019 A 
HETATM   24  C15 UNL     1      19.068   0.326  51.498  1.00  0.00     0.013 A 
HETATM   25 BR1  UNL     1      18.080   0.838  49.961  1.00  0.00    -0.051 Br
HETATM   26  C16 UNL     1      20.333   0.806  51.704  1.00  0.00     0.048 A 
ENDBRANCH  18  20
ENDBRANCH  16  18
ENDBRANCH   6   8
ENDBRANCH   3   4
TORSDOF 4
ENDMDL
MODEL 6
REMARK VINA RESULT:      -7.8      3.030      5.504
REMARK  4 active torsions:
REMARK  status: ('A' for Active; 'I' for Inactive)
REMARK    1  A    between atoms: C3_3  and  C4_4 
REMARK       I    between atoms: C4_4  and  N1_6 
REMARK    2  A    between atoms: N1_6  and  C5_7 
REMARK    3  A    between atoms: C10_14  and  N4_15 
REMARK    4  A    between atoms: N4_15  and  C11_16 
ROOT
HETATM    1  C1  UNL     1      34.701   3.728  46.472  1.00  0.00     0.112 C 
HETATM    2  C2  UNL     1      33.525   4.245  47.181  1.00  0.00    -0.101 C 
HETATM    3  C3  UNL     1      32.553   4.686  47.758  1.00  0.00    -0.006 C 
ENDROOT
BRANCH   3   4
HETATM    4  C4  UNL     1      31.396   5.192  48.454  1.00  0.00     0.300 C 
HETATM    5  O1  UNL     1      31.477   5.480  49.693  1.00  0.00    -0.258 OA
HETATM    6  N1  UNL     1      30.200   5.342  47.691  1.00  0.00    -0.316 N 
HETATM    7  H4  UNL     1      30.184   5.092  46.679  1.00  0.00     0.170 HD
BRANCH   6   8
HETATM    8  C5  UNL     1      28.892   5.800  48.022  1.00  0.00     0.036 A 
HETATM    9  C6  UNL     1      28.596   7.127  47.762  1.00  0.00     0.032 A 
HETATM   10  C7  UNL     1      27.333   7.584  48.076  1.00  0.00     0.035 A 
HETATM   11  C8  UNL     1      26.411   6.723  48.630  1.00  0.00     0.072 A 
HETATM   12  N2  UNL     1      25.209   7.262  48.901  1.00  0.00    -0.241 NA
HETATM   13  C17 UNL     1      26.653   5.394  48.910  1.00  0.00     0.041 A 
HETATM   14  C9  UNL     1      24.270   6.471  49.444  1.00  0.00     0.236 A 
HETATM   15  N3  UNL     1      24.541   5.188  49.700  1.00  0.00    -0.224 NA
HETATM   16  C10 UNL     1      25.706   4.577  49.462  1.00  0.00     0.142 A 
HETATM   17  C18 UNL     1      27.930   4.999  48.574  1.00  0.00     0.047 A 
BRANCH  16  18
HETATM   18  N4  UNL     1      26.023   3.224  49.721  1.00  0.00    -0.340 N 
HETATM   19  H8  UNL     1      26.286   2.581  48.975  1.00  0.00     0.167 HD
BRANCH  18  20
HETATM   20  C11 UNL     1      26.035   2.566  50.976  1.00  0.00     0.035 A 
HETATM   21  C12 UNL     1      24.920   1.962  51.506  1.00  0.00     0.029 A 
HETATM   22  C13 UNL     1      24.913   1.312  52.720  1.00  0.00     0.004 A 
HETATM   23  C14 UNL     1      26.056   1.231  53.486  1.00  0.00     0.019 A 
HETATM   24  C15 UNL     1      27.193   1.825  52.988  1.00  0.00     0.013 A 
HETATM   25 BR1  UNL     1      28.811   1.761  53.978  1.00  0.00    -0.051 Br
HETATM   26  C16 UNL     1      27.144   2.458  51.775  1.00  0.00     0.048 A 
ENDBRANCH  18  20
ENDBRANCH  16  18
ENDBRANCH   6   8
ENDBRANCH   3   4
TORSDOF 4
ENDMDL
MODEL 7
REMARK VINA RESULT:      -7.8      2.411      3.065
REMARK  4 active torsions:
REMARK  status: ('A' for Active; 'I' for Inactive)
REMARK    1  A    between atoms: C3_3  and  C4_4 
REMARK       I    between atoms: C4_4  and  N1_6 
REMARK    2  A    between atoms: N1_6  and  C5_7 
REMARK    3  A    between atoms: C10_14  and  N4_15 
REMARK    4  A    between atoms: N4_15  and  C11_16 
ROOT
HETATM    1  C1  UNL     1      31.166   6.414  47.389  1.00  0.00     0.112 C 
HETATM    2  C2  UNL     1      29.882   5.875  47.851  1.00  0.00    -0.101 C 
HETATM    3  C3  UNL     1      28.829   5.420  48.245  1.00  0.00    -0.006 C 
ENDROOT
BRANCH   3   4
HETATM    4  C4  UNL     1      27.566   4.892  48.700  1.00  0.00     0.300 C 
HETATM    5  O1  UNL     1      27.462   3.656  48.987  1.00  0.00    -0.258 OA
HETATM    6  N1  UNL     1      26.482   5.815  48.803  1.00  0.00    -0.316 N 
HETATM    7  H4  UNL     1      26.617   6.819  48.556  1.00  0.00     0.170 HD
BRANCH   6   8
HETATM    8  C5  UNL     1      25.123   5.671  49.205  1.00  0.00     0.036 A 
HETATM    9  C6  UNL     1      24.149   6.130  48.335  1.00  0.00     0.032 A 
HETATM   10  C7  UNL     1      22.828   5.996  48.710  1.00  0.00     0.035 A 
HETATM   11  C8  UNL     1      22.515   5.418  49.921  1.00  0.00     0.072 A 
HETATM   12  N2  UNL     1      21.202   5.333  50.197  1.00  0.00    -0.241 NA
HETATM   13  C17 UNL     1      23.445   4.944  50.823  1.00  0.00     0.041 A 
HETATM   14  C9  UNL     1      20.836   4.779  51.364  1.00  0.00     0.236 A 
HETATM   15  N3  UNL     1      21.766   4.330  52.213  1.00  0.00    -0.224 NA
HETATM   16  C10 UNL     1      23.086   4.378  52.015  1.00  0.00     0.142 A 
HETATM   17  C18 UNL     1      24.743   5.106  50.391  1.00  0.00     0.047 A 
BRANCH  16  18
HETATM   18  N4  UNL     1      24.093   3.913  52.893  1.00  0.00    -0.340 N 
HETATM   19  H8  UNL     1      24.650   4.552  53.458  1.00  0.00     0.167 HD
BRANCH  18  20
HETATM   20  C11 UNL     1      24.479   2.570  53.129  1.00  0.00     0.035 A 
HETATM   21  C12 UNL     1      23.629   1.508  52.923  1.00  0.00     0.029 A 
HETATM   22  C13 UNL     1      23.987   0.197  53.139  1.00  0.00     0.004 A 
HETATM   23  C14 UNL     1      25.250  -0.128  53.586  1.00  0.00     0.019 A 
HETATM   24  C15 UNL     1      26.128   0.909  53.803  1.00  0.00     0.013 A 
HETATM   25 BR1  UNL     1      27.887   0.550  54.418  1.00  0.00    -0.051 Br
HETATM   26  C16 UNL     1      25.721   2.195  53.572  1.00  0.00     0.048 A 
ENDBRANCH  18  20
ENDBRANCH  16  18
ENDBRANCH   6   8
ENDBRANCH   3   4
TORSDOF 4
ENDMDL
MODEL 8
REMARK VINA RESULT:      -7.7      2.985      5.410
REMARK  4 active torsions:
REMARK  status: ('A' for Active; 'I' for Inactive)
REMARK    1  A    between atoms: C3_3  and  C4_4 
REMARK       I    between atoms: C4_4  and  N1_6 
REMARK    2  A    between atoms: N1_6  and  C5_7 
REMARK    3  A    between atoms: C10_14  and  N4_15 
REMARK    4  A    between atoms: N4_15  and  C11_16 
ROOT
HETATM    1  C1  UNL     1      28.332   5.438  48.278  1.00  0.00     0.112 C 
HETATM    2  C2  UNL     1      27.356   4.583  48.963  1.00  0.00    -0.101 C 
HETATM    3  C3  UNL     1      26.537   3.887  49.525  1.00  0.00    -0.006 C 
ENDROOT
BRANCH   3   4
HETATM    4  C4  UNL     1      25.578   3.044  50.197  1.00  0.00     0.300 C 
HETATM    5  O1  UNL     1      24.371   3.008  49.790  1.00  0.00    -0.258 OA
HETATM    6  N1  UNL     1      26.055   2.282  51.305  1.00  0.00    -0.316 N 
HETATM    7  H4  UNL     1      27.053   2.346  51.600  1.00  0.00     0.170 HD
BRANCH   6   8
HETATM    8  C5  UNL     1      25.423   1.363  52.191  1.00  0.00     0.036 A 
HETATM    9  C6  UNL     1      26.222   0.404  52.790  1.00  0.00     0.032 A 
HETATM   10  C7  UNL     1      25.624  -0.493  53.652  1.00  0.00     0.035 A 
HETATM   11  C8  UNL     1      24.269  -0.413  53.891  1.00  0.00     0.072 A 
HETATM   12  N2  UNL     1      23.780  -1.331  54.744  1.00  0.00    -0.241 NA
HETATM   13  C17 UNL     1      23.429   0.520  53.321  1.00  0.00     0.041 A 
HETATM   14  C9  UNL     1      22.465  -1.303  55.015  1.00  0.00     0.236 A 
HETATM   15  N3  UNL     1      21.682  -0.383  54.444  1.00  0.00    -0.224 NA
HETATM   16  C10 UNL     1      22.089   0.560  53.589  1.00  0.00     0.142 A 
HETATM   17  C18 UNL     1      24.085   1.385  52.473  1.00  0.00     0.047 A 
BRANCH  16  18
HETATM   18  N4  UNL     1      21.286   1.546  52.969  1.00  0.00    -0.340 N 
HETATM   19  H8  UNL     1      21.310   2.520  53.263  1.00  0.00     0.167 HD
BRANCH  18  20
HETATM   20  C11 UNL     1      20.372   1.367  51.900  1.00  0.00     0.035 A 
HETATM   21  C12 UNL     1      19.308   0.500  51.974  1.00  0.00     0.029 A 
HETATM   22  C13 UNL     1      18.406   0.318  50.950  1.00  0.00     0.004 A 
HETATM   23  C14 UNL     1      18.526   1.015  49.767  1.00  0.00     0.019 A 
HETATM   24  C15 UNL     1      19.580   1.893  49.658  1.00  0.00     0.013 A 
HETATM   25 BR1  UNL     1      19.820   2.894  48.063  1.00  0.00    -0.051 Br
HETATM   26  C16 UNL     1      20.449   2.036  50.706  1.00  0.00     0.048 A 
ENDBRANCH  18  20
ENDBRANCH  16  18
ENDBRANCH   6   8
ENDBRANCH   3   4
TORSDOF 4
ENDMDL
MODEL 9
REMARK VINA RESULT:      -7.3      3.177      5.311
REMARK  4 active torsions:
REMARK  status: ('A' for Active; 'I' for Inactive)
REMARK    1  A    between atoms: C3_3  and  C4_4 
REMARK       I    between atoms: C4_4  and  N1_6 
REMARK    2  A    between atoms: N1_6  and  C5_7 
REMARK    3  A    between atoms: C10_14  and  N4_15 
REMARK    4  A    between atoms: N4_15  and  C11_16 
ROOT
HETATM    1  C1  UNL     1      26.004   8.093  46.967  1.00  0.00     0.112 C 
HETATM    2  C2  UNL     1      25.698   7.177  48.071  1.00  0.00    -0.101 C 
HETATM    3  C3  UNL     1      25.458   6.426  48.993  1.00  0.00    -0.006 C 
ENDROOT
BRANCH   3   4
HETATM    4  C4  UNL     1      25.154   5.526  50.079  1.00  0.00     0.300 C 
HETATM    5  O1  UNL     1      24.434   5.927  51.051  1.00  0.00    -0.258 OA
HETATM    6  N1  UNL     1      25.695   4.208  49.994  1.00  0.00    -0.316 N 
HETATM    7  H4  UNL     1      26.279   3.929  49.177  1.00  0.00     0.170 HD
BRANCH   6   8
HETATM    8  C5  UNL     1      25.615   3.073  50.850  1.00  0.00     0.036 A 
HETATM    9  C6  UNL     1      26.792   2.401  51.130  1.00  0.00     0.032 A 
HETATM   10  C7  UNL     1      26.730   1.300  51.959  1.00  0.00     0.035 A 
HETATM   11  C8  UNL     1      25.518   0.901  52.478  1.00  0.00     0.072 A 
HETATM   12  N2  UNL     1      25.560  -0.183  53.273  1.00  0.00    -0.241 NA
HETATM   13  C17 UNL     1      24.317   1.532  52.231  1.00  0.00     0.041 A 
HETATM   14  C9  UNL     1      24.408  -0.620  53.807  1.00  0.00     0.236 A 
HETATM   15  N3  UNL     1      23.264   0.018  53.545  1.00  0.00    -0.224 NA
HETATM   16  C10 UNL     1      23.137   1.098  52.769  1.00  0.00     0.142 A 
HETATM   17  C18 UNL     1      24.445   2.623  51.399  1.00  0.00     0.047 A 
BRANCH  16  18
HETATM   18  N4  UNL     1      21.942   1.795  52.473  1.00  0.00    -0.340 N 
HETATM   19  H8  UNL     1      21.844   2.793  52.650  1.00  0.00     0.167 HD
BRANCH  18  20
HETATM   20  C11 UNL     1      20.752   1.267  51.913  1.00  0.00     0.035 A 
HETATM   21  C12 UNL     1      20.326   1.583  50.645  1.00  0.00     0.029 A 
HETATM   22  C13 UNL     1      19.177   1.075  50.081  1.00  0.00     0.004 A 
HETATM   23  C14 UNL     1      18.374   0.199  50.779  1.00  0.00     0.019 A 
HETATM   24  C15 UNL     1      18.769  -0.141  52.052  1.00  0.00     0.013 A 
HETATM   25 BR1  UNL     1      17.721  -1.342  53.083  1.00  0.00    -0.051 Br
HETATM   26  C16 UNL     1      19.920   0.393  52.565  1.00  0.00     0.048 A 
ENDBRANCH  18  20
ENDBRANCH  16  18
ENDBRANCH   6   8
ENDBRANCH   3   4
TORSDOF 4
ENDMDL
