MODEL 1
REMARK VINA RESULT:      -9.2      0.000      0.000
REMARK  10 active torsions:
REMARK  status: ('A' for Active; 'I' for Inactive)
REMARK    1  A    between atoms: N1_1  and  C1_2 
REMARK    2  A    between atoms: C1_2  and  C15_23 
REMARK    3  A    between atoms: C2_3  and  C3_4 
REMARK    4  A    between atoms: C5_7  and  N3_8 
REMARK    5  A    between atoms: C6_10  and  N5_11 
REMARK    6  A    between atoms: N5_11  and  C7_12 
REMARK    7  A    between atoms: C11_17  and  C12_18 
REMARK    8  A    between atoms: C12_18  and  C13_20 
REMARK    9  A    between atoms: C15_23  and  C16_24 
REMARK   10  A    between atoms: C16_24  and  C17_25 
ROOT
HETATM    1  C3  UNL     1      23.273   1.267  52.383  1.00  0.00     0.020 C 
HETATM    2  C4  UNL     1      22.085   1.727  52.747  1.00  0.00     0.116 C 
HETATM    3  N2  UNL     1      21.271   0.819  53.124  1.00  0.00    -0.061 NA
HETATM    4  C5  UNL     1      21.769  -0.214  53.993  1.00  0.00     0.718 C 
HETATM    5  N4  UNL     1      23.043  -0.415  54.028  1.00  0.00    -0.075 NA
HETATM    6  C6  UNL     1      24.020   0.319  53.258  1.00  0.00     0.262 C 
ENDROOT
BRANCH   1   7
HETATM    7  C2  UNL     1      23.818   1.718  51.106  1.00  0.00     0.038 C 
HETATM    8  C1  UNL     1      24.590   2.771  51.004  1.00  0.00     0.003 C 
BRANCH   8   9
HETATM    9  N1  UNL     1      24.938   3.533  52.154  1.00  0.00    -0.402 N 
HETATM   10  H1  UNL     1      25.859   3.926  52.509  1.00  0.00     0.156 HD
HETATM   11  H2  UNL     1      24.189   3.812  52.854  1.00  0.00     0.156 HD
ENDBRANCH   8   9
BRANCH   8  12
HETATM   12  C15 UNL     1      25.119   3.191  49.698  1.00  0.00     0.061 C 
BRANCH  12  13
HETATM   13  C16 UNL     1      26.595   3.428  49.712  1.00  0.00     0.044 C 
BRANCH  13  14
HETATM   14  C17 UNL     1      26.887   4.733  49.070  1.00  0.00    -0.058 A 
HETATM   15  C18 UNL     1      25.842   5.640  48.985  1.00  0.00     0.007 A 
HETATM   16  C19 UNL     1      26.063   6.868  48.397  1.00  0.00     0.001 A 
HETATM   17  C20 UNL     1      27.315   7.178  47.902  1.00  0.00     0.000 A 
HETATM   18  C21 UNL     1      28.366   6.271  47.985  1.00  0.00     0.001 A 
HETATM   19  C22 UNL     1      28.155   5.028  48.577  1.00  0.00     0.007 A 
ENDBRANCH  13  14
ENDBRANCH  12  13
ENDBRANCH   8  12
ENDBRANCH   1   7
BRANCH   6  20
HETATM   20  N5  UNL     1      24.825  -0.606  52.490  1.00  0.00    -0.363 N 
HETATM   21  H7  UNL     1      24.362  -1.093  51.669  1.00  0.00     0.162 HD
BRANCH  20  22
HETATM   22  C7  UNL     1      26.195  -0.925  52.738  1.00  0.00     0.030 A 
HETATM   23  C8  UNL     1      26.752  -2.167  52.518  1.00  0.00     0.032 A 
HETATM   24  C9  UNL     1      28.097  -2.379  52.791  1.00  0.00     0.045 A 
HETATM   25  C10 UNL     1      28.879  -1.360  53.280  1.00  0.00     0.125 A 
HETATM   26  F1  UNL     1      30.189  -1.570  53.544  1.00  0.00    -0.205 F 
HETATM   27  C11 UNL     1      28.325  -0.103  53.504  1.00  0.00     0.018 A 
HETATM   28  C14 UNL     1      26.988   0.115  53.235  1.00  0.00     0.042 A 
BRANCH  27  29
HETATM   29  C12 UNL     1      29.131   1.035  54.032  1.00  0.00     0.234 C 
HETATM   30  F2  UNL     1      29.070   1.019  55.417  1.00  0.00    -0.242 F 
BRANCH  29  31
HETATM   31  C13 UNL     1      28.444   2.309  53.587  1.00  0.00     0.264 C 
HETATM   32  F3  UNL     1      29.410   3.249  53.284  1.00  0.00    -0.252 F 
ENDBRANCH  29  31
ENDBRANCH  27  29
ENDBRANCH  20  22
ENDBRANCH   6  20
BRANCH   4  33
HETATM   33  N3  UNL     1      21.017  -1.057  54.836  1.00  0.00    -0.231 N 
HETATM   34  H4  UNL     1      20.230  -0.850  55.487  1.00  0.00     0.174 HD
HETATM   35  H5  UNL     1      21.311  -2.067  54.791  1.00  0.00     0.174 HD
ENDBRANCH   4  33
TORSDOF 10
ENDMDL
MODEL 2
REMARK VINA RESULT:      -8.8      3.650      5.653
REMARK  10 active torsions:
REMARK  status: ('A' for Active; 'I' for Inactive)
REMARK    1  A    between atoms: N1_1  and  C1_2 
REMARK    2  A    between atoms: C1_2  and  C15_23 
REMARK    3  A    between atoms: C2_3  and  C3_4 
REMARK    4  A    between atoms: C5_7  and  N3_8 
REMARK    5  A    between atoms: C6_10  and  N5_11 
REMARK    6  A    between atoms: N5_11  and  C7_12 
REMARK    7  A    between atoms: C11_17  and  C12_18 
REMARK    8  A    between atoms: C12_18  and  C13_20 
REMARK    9  A    between atoms: C15_23  and  C16_24 
REMARK   10  A    between atoms: C16_24  and  C17_25 
ROOT
HETATM    1  C3  UNL     1      25.710  -0.116  52.838  1.00  0.00     0.020 C 
HETATM    2  C4  UNL     1      26.711  -0.678  53.501  1.00  0.00     0.116 C 
HETATM    3  N2  UNL     1      26.593  -0.614  54.771  1.00  0.00    -0.061 NA
HETATM    4  C5  UNL     1      25.304  -0.900  55.342  1.00  0.00     0.718 C 
HETATM    5  N4  UNL     1      24.268  -0.809  54.579  1.00  0.00    -0.075 NA
HETATM    6  C6  UNL     1      24.297  -0.440  53.182  1.00  0.00     0.262 C 
ENDROOT
BRANCH   1   7
HETATM    7  C2  UNL     1      26.040   0.823  51.771  1.00  0.00     0.038 C 
HETATM    8  C1  UNL     1      26.466   2.038  52.010  1.00  0.00     0.003 C 
BRANCH   8   9
HETATM    9  N1  UNL     1      26.629   2.502  53.345  1.00  0.00    -0.402 N 
HETATM   10  H1  UNL     1      26.371   2.089  54.290  1.00  0.00     0.156 HD
HETATM   11  H2  UNL     1      27.094   3.439  53.531  1.00  0.00     0.156 HD
ENDBRANCH   8   9
BRANCH   8  12
HETATM   12  C15 UNL     1      26.788   2.953  50.905  1.00  0.00     0.061 C 
BRANCH  12  13
HETATM   13  C16 UNL     1      25.602   3.288  50.058  1.00  0.00     0.044 C 
BRANCH  13  14
HETATM   14  C17 UNL     1      25.845   4.577  49.366  1.00  0.00    -0.058 A 
HETATM   15  C18 UNL     1      27.147   4.844  48.972  1.00  0.00     0.007 A 
HETATM   16  C19 UNL     1      27.424   6.030  48.323  1.00  0.00     0.001 A 
HETATM   17  C20 UNL     1      26.408   6.932  48.075  1.00  0.00     0.000 A 
HETATM   18  C21 UNL     1      25.100   6.668  48.469  1.00  0.00     0.001 A 
HETATM   19  C22 UNL     1      24.808   5.474  49.124  1.00  0.00     0.007 A 
ENDBRANCH  13  14
ENDBRANCH  12  13
ENDBRANCH   8  12
ENDBRANCH   1   7
BRANCH   6  20
HETATM   20  N5  UNL     1      23.415   0.685  52.961  1.00  0.00    -0.363 N 
HETATM   21  H7  UNL     1      23.701   1.620  53.374  1.00  0.00     0.162 HD
BRANCH  20  22
HETATM   22  C7  UNL     1      22.186   0.653  52.233  1.00  0.00     0.030 A 
HETATM   23  C8  UNL     1      20.997   0.177  52.742  1.00  0.00     0.032 A 
HETATM   24  C9  UNL     1      19.854   0.188  51.954  1.00  0.00     0.045 A 
HETATM   25  C10 UNL     1      19.898   0.670  50.667  1.00  0.00     0.125 A 
HETATM   26  F1  UNL     1      18.783   0.679  49.902  1.00  0.00    -0.205 F 
HETATM   27  C11 UNL     1      21.095   1.153  50.145  1.00  0.00     0.018 A 
HETATM   28  C14 UNL     1      22.235   1.145  50.924  1.00  0.00     0.042 A 
BRANCH  27  29
HETATM   29  C12 UNL     1      21.195   1.687  48.757  1.00  0.00     0.234 C 
HETATM   30  F2  UNL     1      21.940   0.802  47.993  1.00  0.00    -0.242 F 
BRANCH  29  31
HETATM   31  C13 UNL     1      21.996   2.970  48.831  1.00  0.00     0.264 C 
HETATM   32  F3  UNL     1      23.069   2.872  47.966  1.00  0.00    -0.252 F 
ENDBRANCH  29  31
ENDBRANCH  27  29
ENDBRANCH  20  22
ENDBRANCH   6  20
BRANCH   4  33
HETATM   33  N3  UNL     1      25.023  -1.278  56.671  1.00  0.00    -0.231 N 
HETATM   34  H4  UNL     1      24.124  -1.321  57.196  1.00  0.00     0.174 HD
HETATM   35  H5  UNL     1      25.877  -1.563  57.217  1.00  0.00     0.174 HD
ENDBRANCH   4  33
TORSDOF 10
ENDMDL
MODEL 3
REMARK VINA RESULT:      -8.8      2.470      6.179
REMARK  10 active torsions:
REMARK  status: ('A' for Active; 'I' for Inactive)
REMARK    1  A    between atoms: N1_1  and  C1_2 
REMARK    2  A    between atoms: C1_2  and  C15_23 
REMARK    3  A    between atoms: C2_3  and  C3_4 
REMARK    4  A    between atoms: C5_7  and  N3_8 
REMARK    5  A    between atoms: C6_10  and  N5_11 
REMARK    6  A    between atoms: N5_11  and  C7_12 
REMARK    7  A    between atoms: C11_17  and  C12_18 
REMARK    8  A    between atoms: C12_18  and  C13_20 
REMARK    9  A    between atoms: C15_23  and  C16_24 
REMARK   10  A    between atoms: C16_24  and  C17_25 
ROOT
HETATM    1  C3  UNL     1      24.976   3.937  49.795  1.00  0.00     0.020 C 
HETATM    2  C4  UNL     1      24.665   4.851  48.887  1.00  0.00     0.116 C 
HETATM    3  N2  UNL     1      25.416   5.883  48.913  1.00  0.00    -0.061 NA
HETATM    4  C5  UNL     1      26.833   5.682  49.052  1.00  0.00     0.718 C 
HETATM    5  N4  UNL     1      27.242   4.558  49.536  1.00  0.00    -0.075 NA
HETATM    6  C6  UNL     1      26.384   3.474  49.955  1.00  0.00     0.262 C 
ENDROOT
BRANCH   1   7
HETATM    7  C2  UNL     1      23.900   3.406  50.626  1.00  0.00     0.038 C 
HETATM    8  C1  UNL     1      23.442   4.043  51.675  1.00  0.00     0.003 C 
BRANCH   8   9
HETATM    9  N1  UNL     1      23.983   5.303  52.055  1.00  0.00    -0.402 N 
HETATM   10  H1  UNL     1      24.891   5.801  51.814  1.00  0.00     0.156 HD
HETATM   11  H2  UNL     1      23.439   5.942  52.705  1.00  0.00     0.156 HD
ENDBRANCH   8   9
BRANCH   8  12
HETATM   12  C15 UNL     1      22.355   3.473  52.485  1.00  0.00     0.061 C 
BRANCH  12  13
HETATM   13  C16 UNL     1      21.790   2.216  51.905  1.00  0.00     0.044 C 
BRANCH  13  14
HETATM   14  C17 UNL     1      21.913   1.121  52.898  1.00  0.00    -0.058 A 
HETATM   15  C18 UNL     1      23.156   0.516  53.016  1.00  0.00     0.007 A 
HETATM   16  C19 UNL     1      23.322  -0.507  53.926  1.00  0.00     0.001 A 
HETATM   17  C20 UNL     1      22.256  -0.915  54.705  1.00  0.00     0.000 A 
HETATM   18  C21 UNL     1      21.008  -0.310  54.590  1.00  0.00     0.001 A 
HETATM   19  C22 UNL     1      20.828   0.724  53.674  1.00  0.00     0.007 A 
ENDBRANCH  13  14
ENDBRANCH  12  13
ENDBRANCH   8  12
ENDBRANCH   1   7
BRANCH   6  20
HETATM   20  N5  UNL     1      26.685   3.119  51.324  1.00  0.00    -0.363 N 
HETATM   21  H7  UNL     1      26.758   3.910  52.029  1.00  0.00     0.162 HD
BRANCH  20  22
HETATM   22  C7  UNL     1      26.895   1.796  51.817  1.00  0.00     0.030 A 
HETATM   23  C8  UNL     1      26.218   0.684  51.364  1.00  0.00     0.032 A 
HETATM   24  C9  UNL     1      26.493  -0.563  51.908  1.00  0.00     0.045 A 
HETATM   25  C10 UNL     1      27.439  -0.699  52.898  1.00  0.00     0.125 A 
HETATM   26  F1  UNL     1      27.705  -1.915  53.425  1.00  0.00    -0.205 F 
HETATM   27  C11 UNL     1      28.128   0.418  53.361  1.00  0.00     0.018 A 
HETATM   28  C14 UNL     1      27.858   1.661  52.824  1.00  0.00     0.042 A 
BRANCH  27  29
HETATM   29  C12 UNL     1      29.161   0.323  54.431  1.00  0.00     0.234 C 
HETATM   30  F2  UNL     1      29.476   1.603  54.860  1.00  0.00    -0.242 F 
BRANCH  29  31
HETATM   31  C13 UNL     1      30.414  -0.236  53.791  1.00  0.00     0.264 C 
HETATM   32  F3  UNL     1      30.541  -1.563  54.153  1.00  0.00    -0.252 F 
ENDBRANCH  29  31
ENDBRANCH  27  29
ENDBRANCH  20  22
ENDBRANCH   6  20
BRANCH   4  33
HETATM   33  N3  UNL     1      27.862   6.586  48.715  1.00  0.00    -0.231 N 
HETATM   34  H4  UNL     1      28.893   6.535  48.859  1.00  0.00     0.174 HD
HETATM   35  H5  UNL     1      27.516   7.457  48.237  1.00  0.00     0.174 HD
ENDBRANCH   4  33
TORSDOF 10
ENDMDL
MODEL 4
REMARK VINA RESULT:      -8.7      0.979      2.471
REMARK  10 active torsions:
REMARK  status: ('A' for Active; 'I' for Inactive)
REMARK    1  A    between atoms: N1_1  and  C1_2 
REMARK    2  A    between atoms: C1_2  and  C15_23 
REMARK    3  A    between atoms: C2_3  and  C3_4 
REMARK    4  A    between atoms: C5_7  and  N3_8 
REMARK    5  A    between atoms: C6_10  and  N5_11 
REMARK    6  A    between atoms: N5_11  and  C7_12 
REMARK    7  A    between atoms: C11_17  and  C12_18 
REMARK    8  A    between atoms: C12_18  and  C13_20 
REMARK    9  A    between atoms: C15_23  and  C16_24 
REMARK   10  A    between atoms: C16_24  and  C17_25 
ROOT
HETATM    1  C3  UNL     1      22.705   1.201  52.036  1.00  0.00     0.020 C 
HETATM    2  C4  UNL     1      21.381   1.142  52.015  1.00  0.00     0.116 C 
HETATM    3  N2  UNL     1      20.907   0.013  52.375  1.00  0.00    -0.061 NA
HETATM    4  C5  UNL     1      21.484  -0.623  53.528  1.00  0.00     0.718 C 
HETATM    5  N4  UNL     1      22.666  -0.258  53.895  1.00  0.00    -0.075 NA
HETATM    6  C6  UNL     1      23.466   0.747  53.235  1.00  0.00     0.262 C 
ENDROOT
BRANCH   1   7
HETATM    7  C2  UNL     1      23.384   1.721  50.853  1.00  0.00     0.038 C 
HETATM    8  C1  UNL     1      23.792   2.962  50.765  1.00  0.00     0.003 C 
BRANCH   8   9
HETATM    9  N1  UNL     1      23.588   3.872  51.840  1.00  0.00    -0.402 N 
HETATM   10  H1  UNL     1      23.779   3.812  52.883  1.00  0.00     0.156 HD
HETATM   11  H2  UNL     1      23.168   4.830  51.654  1.00  0.00     0.156 HD
ENDBRANCH   8   9
BRANCH   8  12
HETATM   12  C15 UNL     1      24.473   3.446  49.555  1.00  0.00     0.061 C 
BRANCH  12  13
HETATM   13  C16 UNL     1      24.412   4.932  49.404  1.00  0.00     0.044 C 
BRANCH  13  14
HETATM   14  C17 UNL     1      25.737   5.432  48.962  1.00  0.00    -0.058 A 
HETATM   15  C18 UNL     1      26.790   4.529  48.982  1.00  0.00     0.007 A 
HETATM   16  C19 UNL     1      28.041   4.946  48.580  1.00  0.00     0.001 A 
HETATM   17  C20 UNL     1      28.232   6.250  48.166  1.00  0.00     0.000 A 
HETATM   18  C21 UNL     1      27.179   7.159  48.144  1.00  0.00     0.001 A 
HETATM   19  C22 UNL     1      25.910   6.750  48.548  1.00  0.00     0.007 A 
ENDBRANCH  13  14
ENDBRANCH  12  13
ENDBRANCH   8  12
ENDBRANCH   1   7
BRANCH   6  20
HETATM   20  N5  UNL     1      24.751   0.187  52.880  1.00  0.00    -0.363 N 
HETATM   21  H7  UNL     1      24.755  -0.698  52.294  1.00  0.00     0.162 HD
BRANCH  20  22
HETATM   22  C7  UNL     1      26.024   0.719  53.249  1.00  0.00     0.030 A 
HETATM   23  C8  UNL     1      26.262   2.053  53.502  1.00  0.00     0.032 A 
HETATM   24  C9  UNL     1      27.538   2.473  53.854  1.00  0.00     0.045 A 
HETATM   25  C10 UNL     1      28.568   1.568  53.953  1.00  0.00     0.125 A 
HETATM   26  F1  UNL     1      29.809   1.980  54.296  1.00  0.00    -0.205 F 
HETATM   27  C11 UNL     1      28.337   0.219  53.700  1.00  0.00     0.018 A 
HETATM   28  C14 UNL     1      27.070  -0.205  53.348  1.00  0.00     0.042 A 
BRANCH  27  29
HETATM   29  C12 UNL     1      29.420  -0.802  53.793  1.00  0.00     0.234 C 
HETATM   30  F2  UNL     1      30.519  -0.351  53.079  1.00  0.00    -0.242 F 
BRANCH  29  31
HETATM   31  C13 UNL     1      28.923  -2.042  53.080  1.00  0.00     0.264 C 
HETATM   32  F3  UNL     1      29.420  -3.154  53.732  1.00  0.00    -0.252 F 
ENDBRANCH  29  31
ENDBRANCH  27  29
ENDBRANCH  20  22
ENDBRANCH   6  20
BRANCH   4  33
HETATM   33  N3  UNL     1      20.903  -1.625  54.332  1.00  0.00    -0.231 N 
HETATM   34  H4  UNL     1      20.737  -2.638  54.152  1.00  0.00     0.174 HD
HETATM   35  H5  UNL     1      20.585  -1.278  55.274  1.00  0.00     0.174 HD
ENDBRANCH   4  33
TORSDOF 10
ENDMDL
MODEL 5
REMARK VINA RESULT:      -8.6      3.441      7.198
REMARK  10 active torsions:
REMARK  status: ('A' for Active; 'I' for Inactive)
REMARK    1  A    between atoms: N1_1  and  C1_2 
REMARK    2  A    between atoms: C1_2  and  C15_23 
REMARK    3  A    between atoms: C2_3  and  C3_4 
REMARK    4  A    between atoms: C5_7  and  N3_8 
REMARK    5  A    between atoms: C6_10  and  N5_11 
REMARK    6  A    between atoms: N5_11  and  C7_12 
REMARK    7  A    between atoms: C11_17  and  C12_18 
REMARK    8  A    between atoms: C12_18  and  C13_20 
REMARK    9  A    between atoms: C15_23  and  C16_24 
REMARK   10  A    between atoms: C16_24  and  C17_25 
ROOT
HETATM    1  C3  UNL     1      24.121   3.253  50.679  1.00  0.00     0.020 C 
HETATM    2  C4  UNL     1      24.766   4.323  50.235  1.00  0.00     0.116 C 
HETATM    3  N2  UNL     1      24.536   4.594  49.008  1.00  0.00    -0.061 NA
HETATM    4  C5  UNL     1      23.176   4.520  48.546  1.00  0.00     0.718 C 
HETATM    5  N4  UNL     1      22.338   3.821  49.234  1.00  0.00    -0.075 NA
HETATM    6  C6  UNL     1      22.657   3.099  50.444  1.00  0.00     0.262 C 
ENDROOT
BRANCH   1   7
HETATM    7  C2  UNL     1      24.889   2.243  51.400  1.00  0.00     0.038 C 
HETATM    8  C1  UNL     1      25.095   2.307  52.692  1.00  0.00     0.003 C 
BRANCH   8   9
HETATM    9  N1  UNL     1      24.569   3.382  53.461  1.00  0.00    -0.402 N 
HETATM   10  H1  UNL     1      24.115   4.305  53.195  1.00  0.00     0.156 HD
HETATM   11  H2  UNL     1      24.591   3.339  54.522  1.00  0.00     0.156 HD
ENDBRANCH   8   9
BRANCH   8  12
HETATM   12  C15 UNL     1      25.875   1.267  53.380  1.00  0.00     0.061 C 
BRANCH  12  13
HETATM   13  C16 UNL     1      25.917  -0.026  52.630  1.00  0.00     0.044 C 
BRANCH  13  14
HETATM   14  C17 UNL     1      27.208  -0.706  52.901  1.00  0.00    -0.058 A 
HETATM   15  C18 UNL     1      28.256   0.087  53.344  1.00  0.00     0.007 A 
HETATM   16  C19 UNL     1      29.476  -0.498  53.611  1.00  0.00     0.001 A 
HETATM   17  C20 UNL     1      29.639  -1.859  53.435  1.00  0.00     0.000 A 
HETATM   18  C21 UNL     1      28.590  -2.658  52.991  1.00  0.00     0.001 A 
HETATM   19  C22 UNL     1      27.353  -2.078  52.719  1.00  0.00     0.007 A 
ENDBRANCH  13  14
ENDBRANCH  12  13
ENDBRANCH   8  12
ENDBRANCH   1   7
BRANCH   6  20
HETATM   20  N5  UNL     1      22.277   1.711  50.293  1.00  0.00    -0.363 N 
HETATM   21  H7  UNL     1      22.789   1.140  49.559  1.00  0.00     0.162 HD
BRANCH  20  22
HETATM   22  C7  UNL     1      21.270   1.035  51.047  1.00  0.00     0.030 A 
HETATM   23  C8  UNL     1      19.971   0.857  50.619  1.00  0.00     0.032 A 
HETATM   24  C9  UNL     1      19.064   0.184  51.426  1.00  0.00     0.045 A 
HETATM   25  C10 UNL     1      19.450  -0.308  52.650  1.00  0.00     0.125 A 
HETATM   26  F1  UNL     1      18.563  -0.964  53.434  1.00  0.00    -0.205 F 
HETATM   27  C11 UNL     1      20.759  -0.134  53.090  1.00  0.00     0.018 A 
HETATM   28  C14 UNL     1      21.666   0.535  52.292  1.00  0.00     0.042 A 
BRANCH  27  29
HETATM   29  C12 UNL     1      21.227  -0.649  54.409  1.00  0.00     0.234 C 
HETATM   30  F2  UNL     1      21.027   0.334  55.366  1.00  0.00    -0.242 F 
BRANCH  29  31
HETATM   31  C13 UNL     1      22.724  -0.847  54.301  1.00  0.00     0.264 C 
HETATM   32  F3  UNL     1      23.212  -1.202  55.544  1.00  0.00    -0.252 F 
ENDBRANCH  29  31
ENDBRANCH  27  29
ENDBRANCH  20  22
ENDBRANCH   6  20
BRANCH   4  33
HETATM   33  N3  UNL     1      22.628   5.134  47.401  1.00  0.00    -0.231 N 
HETATM   34  H4  UNL     1      22.637   6.128  47.086  1.00  0.00     0.174 HD
HETATM   35  H5  UNL     1      22.127   4.464  46.763  1.00  0.00     0.174 HD
ENDBRANCH   4  33
TORSDOF 10
ENDMDL
MODEL 6
REMARK VINA RESULT:      -8.6      2.174      3.323
REMARK  10 active torsions:
REMARK  status: ('A' for Active; 'I' for Inactive)
REMARK    1  A    between atoms: N1_1  and  C1_2 
REMARK    2  A    between atoms: C1_2  and  C15_23 
REMARK    3  A    between atoms: C2_3  and  C3_4 
REMARK    4  A    between atoms: C5_7  and  N3_8 
REMARK    5  A    between atoms: C6_10  and  N5_11 
REMARK    6  A    between atoms: N5_11  and  C7_12 
REMARK    7  A    between atoms: C11_17  and  C12_18 
REMARK    8  A    between atoms: C12_18  and  C13_20 
REMARK    9  A    between atoms: C15_23  and  C16_24 
REMARK   10  A    between atoms: C16_24  and  C17_25 
ROOT
HETATM    1  C3  UNL     1      20.359   0.642  51.952  1.00  0.00     0.020 C 
HETATM    2  C4  UNL     1      19.071   0.866  51.735  1.00  0.00     0.116 C 
HETATM    3  N2  UNL     1      18.322  -0.141  51.970  1.00  0.00    -0.061 NA
HETATM    4  C5  UNL     1      18.572  -0.900  53.167  1.00  0.00     0.718 C 
HETATM    5  N4  UNL     1      19.733  -0.799  53.718  1.00  0.00    -0.075 NA
HETATM    6  C6  UNL     1      20.816   0.022  53.228  1.00  0.00     0.262 C 
ENDROOT
BRANCH   1   7
HETATM    7  C2  UNL     1      21.303   1.020  50.906  1.00  0.00     0.038 C 
HETATM    8  C1  UNL     1      21.962   2.152  50.929  1.00  0.00     0.003 C 
BRANCH   8   9
HETATM    9  N1  UNL     1      21.782   3.076  51.995  1.00  0.00    -0.402 N 
HETATM   10  H1  UNL     1      21.782   4.138  52.039  1.00  0.00     0.156 HD
HETATM   11  H2  UNL     1      21.604   2.724  52.981  1.00  0.00     0.156 HD
ENDBRANCH   8   9
BRANCH   8  12
HETATM   12  C15 UNL     1      22.906   2.495  49.854  1.00  0.00     0.061 C 
BRANCH  12  13
HETATM   13  C16 UNL     1      23.041   3.969  49.642  1.00  0.00     0.044 C 
BRANCH  13  14
HETATM   14  C17 UNL     1      24.464   4.296  49.384  1.00  0.00    -0.058 A 
HETATM   15  C18 UNL     1      25.393   3.291  49.611  1.00  0.00     0.007 A 
HETATM   16  C19 UNL     1      26.729   3.546  49.385  1.00  0.00     0.001 A 
HETATM   17  C20 UNL     1      27.126   4.792  48.938  1.00  0.00     0.000 A 
HETATM   18  C21 UNL     1      26.198   5.803  48.709  1.00  0.00     0.001 A 
HETATM   19  C22 UNL     1      24.845   5.557  48.934  1.00  0.00     0.007 A 
ENDBRANCH  13  14
ENDBRANCH  12  13
ENDBRANCH   8  12
ENDBRANCH   1   7
BRANCH   6  20
HETATM   20  N5  UNL     1      21.996  -0.794  53.041  1.00  0.00    -0.363 N 
HETATM   21  H7  UNL     1      21.942  -1.575  52.323  1.00  0.00     0.162 HD
BRANCH  20  22
HETATM   22  C7  UNL     1      23.233  -0.645  53.737  1.00  0.00     0.030 A 
HETATM   23  C8  UNL     1      23.532  -1.272  54.929  1.00  0.00     0.032 A 
HETATM   24  C9  UNL     1      24.766  -1.063  55.529  1.00  0.00     0.045 A 
HETATM   25  C10 UNL     1      25.695  -0.234  54.945  1.00  0.00     0.125 A 
HETATM   26  F1  UNL     1      26.896  -0.033  55.533  1.00  0.00    -0.205 F 
HETATM   27  C11 UNL     1      25.403   0.401  53.742  1.00  0.00     0.018 A 
HETATM   28  C14 UNL     1      24.176   0.198  53.139  1.00  0.00     0.042 A 
BRANCH  27  29
HETATM   29  C12 UNL     1      26.375   1.309  53.068  1.00  0.00     0.234 C 
HETATM   30  F2  UNL     1      25.723   2.481  52.721  1.00  0.00    -0.242 F 
BRANCH  29  31
HETATM   31  C13 UNL     1      26.780   0.641  51.771  1.00  0.00     0.264 C 
HETATM   32  F3  UNL     1      27.121  -0.671  52.038  1.00  0.00    -0.252 F 
ENDBRANCH  29  31
ENDBRANCH  27  29
ENDBRANCH  20  22
ENDBRANCH   6  20
BRANCH   4  33
HETATM   33  N3  UNL     1      17.678  -1.765  53.831  1.00  0.00    -0.231 N 
HETATM   34  H4  UNL     1      17.111  -2.566  53.480  1.00  0.00     0.174 HD
HETATM   35  H5  UNL     1      17.576  -1.556  54.858  1.00  0.00     0.174 HD
ENDBRANCH   4  33
TORSDOF 10
ENDMDL
MODEL 7
REMARK VINA RESULT:      -8.6      4.044      6.027
REMARK  10 active torsions:
REMARK  status: ('A' for Active; 'I' for Inactive)
REMARK    1  A    between atoms: N1_1  and  C1_2 
REMARK    2  A    between atoms: C1_2  and  C15_23 
REMARK    3  A    between atoms: C2_3  and  C3_4 
REMARK    4  A    between atoms: C5_7  and  N3_8 
REMARK    5  A    between atoms: C6_10  and  N5_11 
REMARK    6  A    between atoms: N5_11  and  C7_12 
REMARK    7  A    between atoms: C11_17  and  C12_18 
REMARK    8  A    between atoms: C12_18  and  C13_20 
REMARK    9  A    between atoms: C15_23  and  C16_24 
REMARK   10  A    between atoms: C16_24  and  C17_25 
ROOT
HETATM    1  C3  UNL     1      25.724  -0.129  52.814  1.00  0.00     0.020 C 
HETATM    2  C4  UNL     1      26.700  -0.736  53.473  1.00  0.00     0.116 C 
HETATM    3  N2  UNL     1      26.579  -0.682  54.743  1.00  0.00    -0.061 NA
HETATM    4  C5  UNL     1      25.278  -0.924  55.307  1.00  0.00     0.718 C 
HETATM    5  N4  UNL     1      24.249  -0.786  54.541  1.00  0.00    -0.075 NA
HETATM    6  C6  UNL     1      24.297  -0.402  53.149  1.00  0.00     0.262 C 
ENDROOT
BRANCH   1   7
HETATM    7  C2  UNL     1      26.093   0.809  51.758  1.00  0.00     0.038 C 
HETATM    8  C1  UNL     1      26.490   2.032  52.011  1.00  0.00     0.003 C 
BRANCH   8   9
HETATM    9  N1  UNL     1      26.580   2.505  53.350  1.00  0.00    -0.402 N 
HETATM   10  H1  UNL     1      25.853   2.845  54.046  1.00  0.00     0.156 HD
HETATM   11  H2  UNL     1      27.524   2.561  53.832  1.00  0.00     0.156 HD
ENDBRANCH   8   9
BRANCH   8  12
HETATM   12  C15 UNL     1      26.853   2.945  50.917  1.00  0.00     0.061 C 
BRANCH  12  13
HETATM   13  C16 UNL     1      25.696   3.292  50.036  1.00  0.00     0.044 C 
BRANCH  13  14
HETATM   14  C17 UNL     1      25.983   4.568  49.335  1.00  0.00    -0.058 A 
HETATM   15  C18 UNL     1      24.911   5.422  49.119  1.00  0.00     0.007 A 
HETATM   16  C19 UNL     1      25.126   6.621  48.472  1.00  0.00     0.001 A 
HETATM   17  C20 UNL     1      26.398   6.955  48.048  1.00  0.00     0.000 A 
HETATM   18  C21 UNL     1      27.476   6.102  48.263  1.00  0.00     0.001 A 
HETATM   19  C22 UNL     1      27.271   4.888  48.916  1.00  0.00     0.007 A 
ENDBRANCH  13  14
ENDBRANCH  12  13
ENDBRANCH   8  12
ENDBRANCH   1   7
BRANCH   6  20
HETATM   20  N5  UNL     1      23.459   0.757  52.937  1.00  0.00    -0.363 N 
HETATM   21  H7  UNL     1      23.631   1.604  53.554  1.00  0.00     0.162 HD
BRANCH  20  22
HETATM   22  C7  UNL     1      22.416   0.868  51.969  1.00  0.00     0.030 A 
HETATM   23  C8  UNL     1      22.568   1.453  50.729  1.00  0.00     0.032 A 
HETATM   24  C9  UNL     1      21.491   1.513  49.856  1.00  0.00     0.045 A 
HETATM   25  C10 UNL     1      20.270   0.992  50.217  1.00  0.00     0.125 A 
HETATM   26  F1  UNL     1      19.223   1.052  49.364  1.00  0.00    -0.205 F 
HETATM   27  C11 UNL     1      20.107   0.400  51.465  1.00  0.00     0.018 A 
HETATM   28  C14 UNL     1      21.175   0.338  52.339  1.00  0.00     0.042 A 
BRANCH  27  29
HETATM   29  C12 UNL     1      18.805  -0.179  51.904  1.00  0.00     0.234 C 
HETATM   30  F2  UNL     1      17.879   0.846  52.018  1.00  0.00    -0.242 F 
BRANCH  29  31
HETATM   31  C13 UNL     1      19.011  -0.729  53.299  1.00  0.00     0.264 C 
HETATM   32  F3  UNL     1      18.562  -2.035  53.329  1.00  0.00    -0.252 F 
ENDBRANCH  29  31
ENDBRANCH  27  29
ENDBRANCH  20  22
ENDBRANCH   6  20
BRANCH   4  33
HETATM   33  N3  UNL     1      24.978  -1.307  56.630  1.00  0.00    -0.231 N 
HETATM   34  H4  UNL     1      24.077  -1.582  57.077  1.00  0.00     0.174 HD
HETATM   35  H5  UNL     1      25.816  -1.310  57.268  1.00  0.00     0.174 HD
ENDBRANCH   4  33
TORSDOF 10
ENDMDL
MODEL 8
REMARK VINA RESULT:      -8.5      3.433      6.917
REMARK  10 active torsions:
REMARK  status: ('A' for Active; 'I' for Inactive)
REMARK    1  A    between atoms: N1_1  and  C1_2 
REMARK    2  A    between atoms: C1_2  and  C15_23 
REMARK    3  A    between atoms: C2_3  and  C3_4 
REMARK    4  A    between atoms: C5_7  and  N3_8 
REMARK    5  A    between atoms: C6_10  and  N5_11 
REMARK    6  A    between atoms: N5_11  and  C7_12 
REMARK    7  A    between atoms: C11_17  and  C12_18 
REMARK    8  A    between atoms: C12_18  and  C13_20 
REMARK    9  A    between atoms: C15_23  and  C16_24 
REMARK   10  A    between atoms: C16_24  and  C17_25 
ROOT
HETATM    1  C3  UNL     1      26.129  -0.367  53.896  1.00  0.00     0.020 C 
HETATM    2  C4  UNL     1      26.944  -1.376  53.621  1.00  0.00     0.116 C 
HETATM    3  N2  UNL     1      28.041  -1.021  53.072  1.00  0.00    -0.061 NA
HETATM    4  C5  UNL     1      28.721   0.127  53.609  1.00  0.00     0.718 C 
HETATM    5  N4  UNL     1      28.038   0.962  54.316  1.00  0.00    -0.075 NA
HETATM    6  C6  UNL     1      26.630   0.838  54.616  1.00  0.00     0.262 C 
ENDROOT
BRANCH   1   7
HETATM    7  C2  UNL     1      24.737  -0.479  53.473  1.00  0.00     0.038 C 
HETATM    8  C1  UNL     1      23.795  -0.930  54.264  1.00  0.00     0.003 C 
BRANCH   8   9
HETATM    9  N1  UNL     1      24.096  -1.336  55.594  1.00  0.00    -0.402 N 
HETATM   10  H1  UNL     1      24.148  -0.809  56.515  1.00  0.00     0.156 HD
HETATM   11  H2  UNL     1      24.325  -2.352  55.802  1.00  0.00     0.156 HD
ENDBRANCH   8   9
BRANCH   8  12
HETATM   12  C15 UNL     1      22.404  -1.027  53.798  1.00  0.00     0.061 C 
BRANCH  12  13
HETATM   13  C16 UNL     1      21.690   0.287  53.812  1.00  0.00     0.044 C 
BRANCH  13  14
HETATM   14  C17 UNL     1      21.063   0.516  52.488  1.00  0.00    -0.058 A 
HETATM   15  C18 UNL     1      21.911   0.580  51.392  1.00  0.00     0.007 A 
HETATM   16  C19 UNL     1      21.376   0.791  50.139  1.00  0.00     0.001 A 
HETATM   17  C20 UNL     1      20.010   0.936  49.989  1.00  0.00     0.000 A 
HETATM   18  C21 UNL     1      19.155   0.871  51.085  1.00  0.00     0.001 A 
HETATM   19  C22 UNL     1      19.684   0.658  52.356  1.00  0.00     0.007 A 
ENDBRANCH  13  14
ENDBRANCH  12  13
ENDBRANCH   8  12
ENDBRANCH   1   7
BRANCH   6  20
HETATM   20  N5  UNL     1      25.940   2.041  54.204  1.00  0.00    -0.363 N 
HETATM   21  H7  UNL     1      25.549   2.666  54.967  1.00  0.00     0.162 HD
BRANCH  20  22
HETATM   22  C7  UNL     1      25.734   2.466  52.856  1.00  0.00     0.030 A 
HETATM   23  C8  UNL     1      26.667   2.329  51.850  1.00  0.00     0.032 A 
HETATM   24  C9  UNL     1      26.372   2.775  50.569  1.00  0.00     0.045 A 
HETATM   25  C10 UNL     1      25.155   3.352  50.294  1.00  0.00     0.125 A 
HETATM   26  F1  UNL     1      24.871   3.785  49.044  1.00  0.00    -0.205 F 
HETATM   27  C11 UNL     1      24.207   3.493  51.303  1.00  0.00     0.018 A 
HETATM   28  C14 UNL     1      24.494   3.053  52.580  1.00  0.00     0.042 A 
BRANCH  27  29
HETATM   29  C12 UNL     1      22.873   4.112  51.056  1.00  0.00     0.234 C 
HETATM   30  F2  UNL     1      23.060   5.426  50.655  1.00  0.00    -0.242 F 
BRANCH  29  31
HETATM   31  C13 UNL     1      22.156   4.166  52.388  1.00  0.00     0.264 C 
HETATM   32  F3  UNL     1      20.829   3.835  52.189  1.00  0.00    -0.252 F 
ENDBRANCH  29  31
ENDBRANCH  27  29
ENDBRANCH  20  22
ENDBRANCH   6  20
BRANCH   4  33
HETATM   33  N3  UNL     1      30.082   0.463  53.455  1.00  0.00    -0.231 N 
HETATM   34  H4  UNL     1      30.779   0.185  52.731  1.00  0.00     0.174 HD
HETATM   35  H5  UNL     1      30.445   1.106  54.205  1.00  0.00     0.174 HD
ENDBRANCH   4  33
TORSDOF 10
ENDMDL
MODEL 9
REMARK VINA RESULT:      -8.5      3.707      5.753
REMARK  10 active torsions:
REMARK  status: ('A' for Active; 'I' for Inactive)
REMARK    1  A    between atoms: N1_1  and  C1_2 
REMARK    2  A    between atoms: C1_2  and  C15_23 
REMARK    3  A    between atoms: C2_3  and  C3_4 
REMARK    4  A    between atoms: C5_7  and  N3_8 
REMARK    5  A    between atoms: C6_10  and  N5_11 
REMARK    6  A    between atoms: N5_11  and  C7_12 
REMARK    7  A    between atoms: C11_17  and  C12_18 
REMARK    8  A    between atoms: C12_18  and  C13_20 
REMARK    9  A    between atoms: C15_23  and  C16_24 
REMARK   10  A    between atoms: C16_24  and  C17_25 
ROOT
HETATM    1  C3  UNL     1      25.667   0.531  52.289  1.00  0.00     0.020 C 
HETATM    2  C4  UNL     1      26.951   0.583  51.964  1.00  0.00     0.116 C 
HETATM    3  N2  UNL     1      27.732   0.732  52.962  1.00  0.00    -0.061 NA
HETATM    4  C5  UNL     1      27.477  -0.053  54.140  1.00  0.00     0.718 C 
HETATM    5  N4  UNL     1      26.296  -0.547  54.296  1.00  0.00    -0.075 NA
HETATM    6  C6  UNL     1      25.196  -0.373  53.376  1.00  0.00     0.262 C 
ENDROOT
BRANCH   1   7
HETATM    7  C2  UNL     1      24.740   1.383  51.550  1.00  0.00     0.038 C 
HETATM    8  C1  UNL     1      24.538   2.639  51.864  1.00  0.00     0.003 C 
BRANCH   8   9
HETATM    9  N1  UNL     1      25.225   3.235  52.957  1.00  0.00    -0.402 N 
HETATM   10  H1  UNL     1      26.045   3.910  53.014  1.00  0.00     0.156 HD
HETATM   11  H2  UNL     1      24.927   3.022  53.954  1.00  0.00     0.156 HD
ENDBRANCH   8   9
BRANCH   8  12
HETATM   12  C15 UNL     1      23.595   3.463  51.094  1.00  0.00     0.061 C 
BRANCH  12  13
HETATM   13  C16 UNL     1      23.829   3.396  49.618  1.00  0.00     0.044 C 
BRANCH  13  14
HETATM   14  C17 UNL     1      24.941   4.310  49.259  1.00  0.00    -0.058 A 
HETATM   15  C18 UNL     1      26.222   3.778  49.273  1.00  0.00     0.007 A 
HETATM   16  C19 UNL     1      27.290   4.587  48.945  1.00  0.00     0.001 A 
HETATM   17  C20 UNL     1      27.073   5.910  48.609  1.00  0.00     0.000 A 
HETATM   18  C21 UNL     1      25.790   6.447  48.594  1.00  0.00     0.001 A 
HETATM   19  C22 UNL     1      24.703   5.640  48.923  1.00  0.00     0.007 A 
ENDBRANCH  13  14
ENDBRANCH  12  13
ENDBRANCH   8  12
ENDBRANCH   1   7
BRANCH   6  20
HETATM   20  N5  UNL     1      24.057   0.174  54.080  1.00  0.00    -0.363 N 
HETATM   21  H7  UNL     1      24.236   0.982  54.746  1.00  0.00     0.162 HD
BRANCH  20  22
HETATM   22  C7  UNL     1      22.707  -0.274  53.962  1.00  0.00     0.030 A 
HETATM   23  C8  UNL     1      22.229  -1.447  54.509  1.00  0.00     0.032 A 
HETATM   24  C9  UNL     1      20.897  -1.797  54.339  1.00  0.00     0.045 A 
HETATM   25  C10 UNL     1      20.047  -0.983  53.627  1.00  0.00     0.125 A 
HETATM   26  F1  UNL     1      18.750  -1.327  53.463  1.00  0.00    -0.205 F 
HETATM   27  C11 UNL     1      20.520   0.203  53.072  1.00  0.00     0.018 A 
HETATM   28  C14 UNL     1      21.845   0.556  53.237  1.00  0.00     0.042 A 
BRANCH  27  29
HETATM   29  C12 UNL     1      19.640   1.119  52.292  1.00  0.00     0.234 C 
HETATM   30  F2  UNL     1      19.662   0.732  50.961  1.00  0.00    -0.242 F 
BRANCH  29  31
HETATM   31  C13 UNL     1      20.269   2.495  52.350  1.00  0.00     0.264 C 
HETATM   32  F3  UNL     1      19.296   3.437  52.078  1.00  0.00    -0.252 F 
ENDBRANCH  29  31
ENDBRANCH  27  29
ENDBRANCH  20  22
ENDBRANCH   6  20
BRANCH   4  33
HETATM   33  N3  UNL     1      28.384  -0.361  55.175  1.00  0.00    -0.231 N 
HETATM   34  H4  UNL     1      28.335  -0.190  56.202  1.00  0.00     0.174 HD
HETATM   35  H5  UNL     1      29.257  -0.845  54.840  1.00  0.00     0.174 HD
ENDBRANCH   4  33
TORSDOF 10
ENDMDL
