MODEL 1
REMARK VINA RESULT:      -8.5      0.000      0.000
REMARK  2 active torsions:
REMARK  status: ('A' for Active; 'I' for Inactive)
REMARK    1  A    between atoms: C2_2  and  O1_3 
REMARK    2  A    between atoms: O1_3  and  C3_4 
ROOT
HETATM    1  C3  UNL     1      19.948  -0.501  53.622  1.00  0.00     0.073 A 
HETATM    2  C4  UNL     1      20.564   0.074  52.530  1.00  0.00     0.074 A 
HETATM    3  C5  UNL     1      21.924   0.167  52.379  1.00  0.00     0.087 A 
HETATM    4  C6  UNL     1      22.768  -0.329  53.354  1.00  0.00     0.072 A 
HETATM    5  C7  UNL     1      24.157  -0.357  53.447  1.00  0.00     0.140 A 
HETATM    6  N1  UNL     1      24.780  -0.896  54.499  1.00  0.00    -0.224 NA
HETATM    7  C8  UNL     1      24.131  -1.446  55.539  1.00  0.00     0.236 A 
HETATM    8  N2  UNL     1      22.787  -1.471  55.553  1.00  0.00    -0.241 NA
HETATM    9  C9  UNL     1      22.170  -0.915  54.468  1.00  0.00     0.077 A 
HETATM   10  C10 UNL     1      20.796  -0.993  54.588  1.00  0.00     0.069 A 
HETATM   11  N3  UNL     1      25.081   0.197  52.481  1.00  0.00    -0.374 N 
HETATM   12  C11 UNL     1      25.691   1.438  52.924  1.00  0.00     0.122 C 
HETATM   13  C12 UNL     1      25.857   2.356  51.769  1.00  0.00    -0.002 C 
HETATM   14  C13 UNL     1      26.749   3.119  51.009  1.00  0.00     0.046 C 
HETATM   15  C14 UNL     1      26.368   3.958  49.799  1.00  0.00    -0.025 C 
HETATM   16  C15 UNL     1      25.400   4.394  48.920  1.00  0.00    -0.028 C 
HETATM   17  C16 UNL     1      24.068   3.792  49.231  1.00  0.00     0.053 C 
HETATM   18  C17 UNL     1      22.977   4.670  49.646  1.00  0.00     0.171 C 
HETATM   19  O2  UNL     1      21.774   4.048  50.060  1.00  0.00    -0.389 OA
HETATM   20  C18 UNL     1      21.997   3.087  51.049  1.00  0.00     0.194 C 
HETATM   21  C19 UNL     1      22.214   1.733  50.501  1.00  0.00     0.201 C 
HETATM   22  O3  UNL     1      22.535   0.706  51.344  1.00  0.00    -0.348 OA
HETATM   23  H9  UNL     1      24.918  -0.568  51.831  1.00  0.00     0.161 HD
ENDROOT
BRANCH   1  24
HETATM   24  O1  UNL     1      18.568  -0.486  53.564  1.00  0.00    -0.351 OA
BRANCH  24  25
HETATM   25  C2  UNL     1      17.878  -1.494  52.894  1.00  0.00     0.171 C 
HETATM   26  C1  UNL     1      17.751  -2.786  53.653  1.00  0.00     0.034 C 
ENDBRANCH  24  25
ENDBRANCH   1  24
TORSDOF 2
ENDMDL
MODEL 2
REMARK VINA RESULT:      -8.2      2.546      5.132
REMARK  2 active torsions:
REMARK  status: ('A' for Active; 'I' for Inactive)
REMARK    1  A    between atoms: C2_2  and  O1_3 
REMARK    2  A    between atoms: O1_3  and  C3_4 
ROOT
HETATM    1  C3  UNL     1      26.006  -0.210  54.445  1.00  0.00     0.073 A 
HETATM    2  C4  UNL     1      25.973   1.010  53.804  1.00  0.00     0.074 A 
HETATM    3  C5  UNL     1      24.860   1.522  53.190  1.00  0.00     0.087 A 
HETATM    4  C6  UNL     1      23.677   0.809  53.183  1.00  0.00     0.072 A 
HETATM    5  C7  UNL     1      22.429   1.094  52.637  1.00  0.00     0.140 A 
HETATM    6  N1  UNL     1      21.402   0.245  52.751  1.00  0.00    -0.224 NA
HETATM    7  C8  UNL     1      21.487  -0.934  53.389  1.00  0.00     0.236 A 
HETATM    8  N2  UNL     1      22.648  -1.310  53.952  1.00  0.00    -0.241 NA
HETATM    9  C9  UNL     1      23.684  -0.429  53.825  1.00  0.00     0.077 A 
HETATM   10  C10 UNL     1      24.824  -0.915  54.436  1.00  0.00     0.069 A 
HETATM   11  N3  UNL     1      22.088   2.276  51.877  1.00  0.00    -0.374 N 
HETATM   12  C11 UNL     1      21.969   2.021  50.452  1.00  0.00     0.122 C 
HETATM   13  C12 UNL     1      22.490   3.183  49.688  1.00  0.00    -0.002 C 
HETATM   14  C13 UNL     1      22.215   4.159  48.726  1.00  0.00     0.046 C 
HETATM   15  C14 UNL     1      23.194   5.226  48.262  1.00  0.00    -0.025 C 
HETATM   16  C15 UNL     1      24.436   5.814  48.361  1.00  0.00    -0.028 C 
HETATM   17  C16 UNL     1      25.273   5.153  49.407  1.00  0.00     0.053 C 
HETATM   18  C17 UNL     1      26.495   4.463  49.002  1.00  0.00     0.171 C 
HETATM   19  O2  UNL     1      27.185   3.738  50.003  1.00  0.00    -0.389 OA
HETATM   20  C18 UNL     1      26.347   2.840  50.668  1.00  0.00     0.194 C 
HETATM   21  C19 UNL     1      25.720   3.418  51.874  1.00  0.00     0.201 C 
HETATM   22  O3  UNL     1      24.803   2.687  52.576  1.00  0.00    -0.348 OA
HETATM   23  H9  UNL     1      22.067   2.853  52.713  1.00  0.00     0.161 HD
ENDROOT
BRANCH   1  24
HETATM   24  O1  UNL     1      27.233  -0.527  54.996  1.00  0.00    -0.351 OA
BRANCH  24  25
HETATM   25  C2  UNL     1      28.374   0.187  54.636  1.00  0.00     0.171 C 
HETATM   26  C1  UNL     1      29.415  -0.613  53.901  1.00  0.00     0.034 C 
ENDBRANCH  24  25
ENDBRANCH   1  24
TORSDOF 2
ENDMDL
MODEL 3
REMARK VINA RESULT:      -8.2      1.575      2.499
REMARK  2 active torsions:
REMARK  status: ('A' for Active; 'I' for Inactive)
REMARK    1  A    between atoms: C2_2  and  O1_3 
REMARK    2  A    between atoms: O1_3  and  C3_4 
ROOT
HETATM    1  C3  UNL     1      22.712  -0.473  54.217  1.00  0.00     0.073 A 
HETATM    2  C4  UNL     1      22.560   0.307  53.090  1.00  0.00     0.074 A 
HETATM    3  C5  UNL     1      23.604   0.746  52.317  1.00  0.00     0.087 A 
HETATM    4  C6  UNL     1      24.903   0.414  52.647  1.00  0.00     0.072 A 
HETATM    5  C7  UNL     1      26.119   0.727  52.045  1.00  0.00     0.140 A 
HETATM    6  N1  UNL     1      27.281   0.292  52.543  1.00  0.00    -0.224 NA
HETATM    7  C8  UNL     1      27.374  -0.468  53.645  1.00  0.00     0.236 A 
HETATM    8  N2  UNL     1      26.260  -0.829  54.307  1.00  0.00    -0.241 NA
HETATM    9  C9  UNL     1      25.083  -0.375  53.783  1.00  0.00     0.077 A 
HETATM   10  C10 UNL     1      24.009  -0.800  54.539  1.00  0.00     0.069 A 
HETATM   11  N3  UNL     1      26.293   1.556  50.872  1.00  0.00    -0.374 N 
HETATM   12  C11 UNL     1      26.807   2.878  51.182  1.00  0.00     0.122 C 
HETATM   13  C12 UNL     1      26.184   3.882  50.283  1.00  0.00    -0.002 C 
HETATM   14  C13 UNL     1      26.400   4.891  49.340  1.00  0.00     0.046 C 
HETATM   15  C14 UNL     1      25.305   5.685  48.646  1.00  0.00    -0.025 C 
HETATM   16  C15 UNL     1      23.962   5.923  48.446  1.00  0.00    -0.028 C 
HETATM   17  C16 UNL     1      23.116   4.989  49.249  1.00  0.00     0.053 C 
HETATM   18  C17 UNL     1      22.258   5.538  50.296  1.00  0.00     0.171 C 
HETATM   19  O2  UNL     1      21.577   4.610  51.121  1.00  0.00    -0.389 OA
HETATM   20  C18 UNL     1      22.448   3.672  51.681  1.00  0.00     0.194 C 
HETATM   21  C19 UNL     1      22.593   2.454  50.859  1.00  0.00     0.201 C 
HETATM   22  O3  UNL     1      23.483   1.487  51.234  1.00  0.00    -0.348 OA
HETATM   23  H9  UNL     1      25.960   0.819  50.257  1.00  0.00     0.161 HD
ENDROOT
BRANCH   1  24
HETATM   24  O1  UNL     1      21.524  -0.800  54.843  1.00  0.00    -0.351 OA
BRANCH  24  25
HETATM   25  C2  UNL     1      20.586  -1.605  54.201  1.00  0.00     0.171 C 
HETATM   26  C1  UNL     1      19.428  -0.864  53.590  1.00  0.00     0.034 C 
ENDBRANCH  24  25
ENDBRANCH   1  24
TORSDOF 2
ENDMDL
MODEL 4
REMARK VINA RESULT:      -8.1      1.818      6.059
REMARK  2 active torsions:
REMARK  status: ('A' for Active; 'I' for Inactive)
REMARK    1  A    between atoms: C2_2  and  O1_3 
REMARK    2  A    between atoms: O1_3  and  C3_4 
ROOT
HETATM    1  C3  UNL     1      25.564   1.067  52.268  1.00  0.00     0.073 A 
HETATM    2  C4  UNL     1      24.260   1.471  52.070  1.00  0.00     0.074 A 
HETATM    3  C5  UNL     1      23.196   1.005  52.800  1.00  0.00     0.087 A 
HETATM    4  C6  UNL     1      23.392   0.074  53.801  1.00  0.00     0.072 A 
HETATM    5  C7  UNL     1      22.502  -0.552  54.669  1.00  0.00     0.140 A 
HETATM    6  N1  UNL     1      22.915  -1.439  55.580  1.00  0.00    -0.224 NA
HETATM    7  C8  UNL     1      24.200  -1.796  55.732  1.00  0.00     0.236 A 
HETATM    8  N2  UNL     1      25.145  -1.253  54.944  1.00  0.00    -0.241 NA
HETATM    9  C9  UNL     1      24.703  -0.350  54.020  1.00  0.00     0.077 A 
HETATM   10  C10 UNL     1      25.751   0.141  53.267  1.00  0.00     0.069 A 
HETATM   11  N3  UNL     1      21.067  -0.367  54.687  1.00  0.00    -0.374 N 
HETATM   12  C11 UNL     1      20.342  -1.489  54.117  1.00  0.00     0.122 C 
HETATM   13  C12 UNL     1      19.158  -0.995  53.370  1.00  0.00    -0.002 C 
HETATM   14  C13 UNL     1      17.768  -1.052  53.224  1.00  0.00     0.046 C 
HETATM   15  C14 UNL     1      16.965  -0.258  52.205  1.00  0.00    -0.025 C 
HETATM   16  C15 UNL     1      16.935   0.670  51.187  1.00  0.00    -0.028 C 
HETATM   17  C16 UNL     1      18.299   1.204  50.893  1.00  0.00     0.053 C 
HETATM   18  C17 UNL     1      18.893   0.943  49.585  1.00  0.00     0.171 C 
HETATM   19  O2  UNL     1      20.236   1.350  49.396  1.00  0.00    -0.389 OA
HETATM   20  C18 UNL     1      21.077   0.851  50.393  1.00  0.00     0.194 C 
HETATM   21  C19 UNL     1      21.223   1.771  51.539  1.00  0.00     0.201 C 
HETATM   22  O3  UNL     1      21.943   1.379  52.633  1.00  0.00    -0.348 OA
HETATM   23  H9  UNL     1      21.152   0.545  55.126  1.00  0.00     0.161 HD
ENDROOT
BRANCH   1  24
HETATM   24  O1  UNL     1      26.475   1.667  51.419  1.00  0.00    -0.351 OA
BRANCH  24  25
HETATM   25  C2  UNL     1      26.303   2.990  51.019  1.00  0.00     0.171 C 
HETATM   26  C1  UNL     1      26.434   3.225  49.539  1.00  0.00     0.034 C 
ENDBRANCH  24  25
ENDBRANCH   1  24
TORSDOF 2
ENDMDL
MODEL 5
REMARK VINA RESULT:      -8.1      2.186      6.266
REMARK  2 active torsions:
REMARK  status: ('A' for Active; 'I' for Inactive)
REMARK    1  A    between atoms: C2_2  and  O1_3 
REMARK    2  A    between atoms: O1_3  and  C3_4 
ROOT
HETATM    1  C3  UNL     1      26.402   2.744  50.796  1.00  0.00     0.073 A 
HETATM    2  C4  UNL     1      25.063   3.072  50.776  1.00  0.00     0.074 A 
HETATM    3  C5  UNL     1      24.107   2.429  51.518  1.00  0.00     0.087 A 
HETATM    4  C6  UNL     1      24.456   1.383  52.349  1.00  0.00     0.072 A 
HETATM    5  C7  UNL     1      23.695   0.575  53.189  1.00  0.00     0.140 A 
HETATM    6  N1  UNL     1      24.249  -0.399  53.918  1.00  0.00    -0.224 NA
HETATM    7  C8  UNL     1      25.563  -0.677  53.902  1.00  0.00     0.236 A 
HETATM    8  N2  UNL     1      26.391   0.042  53.124  1.00  0.00    -0.241 NA
HETATM    9  C9  UNL     1      25.806   1.032  52.387  1.00  0.00     0.077 A 
HETATM   10  C10 UNL     1      26.743   1.702  51.626  1.00  0.00     0.069 A 
HETATM   11  N3  UNL     1      22.261   0.647  53.360  1.00  0.00    -0.374 N 
HETATM   12  C11 UNL     1      21.554  -0.434  52.696  1.00  0.00     0.122 C 
HETATM   13  C12 UNL     1      20.274   0.071  52.138  1.00  0.00    -0.002 C 
HETATM   14  C13 UNL     1      18.883  -0.070  52.107  1.00  0.00     0.046 C 
HETATM   15  C14 UNL     1      17.937   0.798  51.292  1.00  0.00    -0.025 C 
HETATM   16  C15 UNL     1      17.751   1.856  50.429  1.00  0.00    -0.028 C 
HETATM   17  C16 UNL     1      19.044   2.528  50.100  1.00  0.00     0.053 C 
HETATM   18  C17 UNL     1      19.522   2.501  48.720  1.00  0.00     0.171 C 
HETATM   19  O2  UNL     1      20.812   3.031  48.477  1.00  0.00    -0.389 OA
HETATM   20  C18 UNL     1      21.776   2.460  49.311  1.00  0.00     0.194 C 
HETATM   21  C19 UNL     1      21.977   3.216  50.564  1.00  0.00     0.201 C 
HETATM   22  O3  UNL     1      22.823   2.727  51.520  1.00  0.00    -0.348 OA
HETATM   23  H9  UNL     1      22.332   1.491  53.921  1.00  0.00     0.161 HD
ENDROOT
BRANCH   1  24
HETATM   24  O1  UNL     1      27.187   3.525  49.969  1.00  0.00    -0.351 OA
BRANCH  24  25
HETATM   25  C2  UNL     1      26.623   4.567  49.236  1.00  0.00     0.171 C 
HETATM   26  C1  UNL     1      27.610   5.424  48.493  1.00  0.00     0.034 C 
ENDBRANCH  24  25
ENDBRANCH   1  24
TORSDOF 2
ENDMDL
MODEL 6
REMARK VINA RESULT:      -7.8      2.628      4.845
REMARK  2 active torsions:
REMARK  status: ('A' for Active; 'I' for Inactive)
REMARK    1  A    between atoms: C2_2  and  O1_3 
REMARK    2  A    between atoms: O1_3  and  C3_4 
ROOT
HETATM    1  C3  UNL     1      24.473  -0.286  53.658  1.00  0.00     0.073 A 
HETATM    2  C4  UNL     1      24.836   0.960  53.192  1.00  0.00     0.074 A 
HETATM    3  C5  UNL     1      23.974   1.824  52.567  1.00  0.00     0.087 A 
HETATM    4  C6  UNL     1      22.654   1.470  52.368  1.00  0.00     0.072 A 
HETATM    5  C7  UNL     1      21.595   2.146  51.769  1.00  0.00     0.140 A 
HETATM    6  N1  UNL     1      20.376   1.605  51.683  1.00  0.00    -0.224 NA
HETATM    7  C8  UNL     1      20.074   0.385  52.156  1.00  0.00     0.236 A 
HETATM    8  N2  UNL     1      21.024  -0.356  52.753  1.00  0.00    -0.241 NA
HETATM    9  C9  UNL     1      22.262   0.214  52.831  1.00  0.00     0.077 A 
HETATM   10  C10 UNL     1      23.157  -0.632  53.457  1.00  0.00     0.069 A 
HETATM   11  N3  UNL     1      21.666   3.453  51.155  1.00  0.00    -0.374 N 
HETATM   12  C11 UNL     1      21.647   3.401  49.703  1.00  0.00     0.122 C 
HETATM   13  C12 UNL     1      22.539   4.453  49.151  1.00  0.00    -0.002 C 
HETATM   14  C13 UNL     1      22.642   5.568  48.315  1.00  0.00     0.046 C 
HETATM   15  C14 UNL     1      23.913   6.369  48.082  1.00  0.00    -0.025 C 
HETATM   16  C15 UNL     1      25.247   6.577  48.359  1.00  0.00    -0.028 C 
HETATM   17  C16 UNL     1      25.755   5.599  49.367  1.00  0.00     0.053 C 
HETATM   18  C17 UNL     1      26.791   4.649  48.970  1.00  0.00     0.171 C 
HETATM   19  O2  UNL     1      27.148   3.655  49.912  1.00  0.00    -0.389 OA
HETATM   20  C18 UNL     1      26.032   2.954  50.378  1.00  0.00     0.194 C 
HETATM   21  C19 UNL     1      25.447   3.545  51.598  1.00  0.00     0.201 C 
HETATM   22  O3  UNL     1      24.296   3.021  52.117  1.00  0.00    -0.348 OA
HETATM   23  H9  UNL     1      21.702   3.917  52.058  1.00  0.00     0.161 HD
ENDROOT
BRANCH   1  24
HETATM   24  O1  UNL     1      25.503  -0.987  54.255  1.00  0.00    -0.351 OA
BRANCH  24  25
HETATM   25  C2  UNL     1      26.766  -1.024  53.669  1.00  0.00     0.171 C 
HETATM   26  C1  UNL     1      26.891  -1.955  52.494  1.00  0.00     0.034 C 
ENDBRANCH  24  25
ENDBRANCH   1  24
TORSDOF 2
ENDMDL
MODEL 7
REMARK VINA RESULT:      -7.7      1.806      6.640
REMARK  2 active torsions:
REMARK  status: ('A' for Active; 'I' for Inactive)
REMARK    1  A    between atoms: C2_2  and  O1_3 
REMARK    2  A    between atoms: O1_3  and  C3_4 
ROOT
HETATM    1  C3  UNL     1      24.747   4.380  49.636  1.00  0.00     0.073 A 
HETATM    2  C4  UNL     1      23.598   3.957  50.272  1.00  0.00     0.074 A 
HETATM    3  C5  UNL     1      23.586   3.069  51.316  1.00  0.00     0.087 A 
HETATM    4  C6  UNL     1      24.768   2.537  51.794  1.00  0.00     0.072 A 
HETATM    5  C7  UNL     1      25.028   1.632  52.819  1.00  0.00     0.140 A 
HETATM    6  N1  UNL     1      26.273   1.247  53.118  1.00  0.00    -0.224 NA
HETATM    7  C8  UNL     1      27.359   1.692  52.466  1.00  0.00     0.236 A 
HETATM    8  N2  UNL     1      27.223   2.570  51.457  1.00  0.00    -0.241 NA
HETATM    9  C9  UNL     1      25.943   2.950  51.167  1.00  0.00     0.077 A 
HETATM   10  C10 UNL     1      25.920   3.848  50.117  1.00  0.00     0.069 A 
HETATM   11  N3  UNL     1      24.034   0.982  53.645  1.00  0.00    -0.374 N 
HETATM   12  C11 UNL     1      23.828  -0.413  53.297  1.00  0.00     0.122 C 
HETATM   13  C12 UNL     1      22.393  -0.762  53.447  1.00  0.00    -0.002 C 
HETATM   14  C13 UNL     1      21.459  -1.604  54.058  1.00  0.00     0.046 C 
HETATM   15  C14 UNL     1      19.954  -1.527  53.858  1.00  0.00    -0.025 C 
HETATM   16  C15 UNL     1      18.868  -0.908  53.277  1.00  0.00    -0.028 C 
HETATM   17  C16 UNL     1      19.286   0.258  52.441  1.00  0.00     0.053 C 
HETATM   18  C17 UNL     1      19.044   0.217  51.001  1.00  0.00     0.171 C 
HETATM   19  O2  UNL     1      19.575   1.279  50.230  1.00  0.00    -0.389 OA
HETATM   20  C18 UNL     1      20.940   1.463  50.465  1.00  0.00     0.194 C 
HETATM   21  C19 UNL     1      21.215   2.438  51.539  1.00  0.00     0.201 C 
HETATM   22  O3  UNL     1      22.503   2.653  51.943  1.00  0.00    -0.348 OA
HETATM   23  H9  UNL     1      23.868   1.831  54.178  1.00  0.00     0.161 HD
ENDROOT
BRANCH   1  24
HETATM   24  O1  UNL     1      24.525   5.278  48.609  1.00  0.00    -0.351 OA
BRANCH  24  25
HETATM   25  C2  UNL     1      25.187   6.503  48.587  1.00  0.00     0.171 C 
HETATM   26  C1  UNL     1      24.909   7.394  49.767  1.00  0.00     0.034 C 
ENDBRANCH  24  25
ENDBRANCH   1  24
TORSDOF 2
ENDMDL
MODEL 8
REMARK VINA RESULT:      -7.7      4.601      9.622
REMARK  2 active torsions:
REMARK  status: ('A' for Active; 'I' for Inactive)
REMARK    1  A    between atoms: C2_2  and  O1_3 
REMARK    2  A    between atoms: O1_3  and  C3_4 
ROOT
HETATM    1  C3  UNL     1      29.214   5.814  48.260  1.00  0.00     0.073 A 
HETATM    2  C4  UNL     1      28.242   4.868  48.513  1.00  0.00     0.074 A 
HETATM    3  C5  UNL     1      26.958   5.172  48.885  1.00  0.00     0.087 A 
HETATM    4  C6  UNL     1      26.568   6.489  49.030  1.00  0.00     0.072 A 
HETATM    5  C7  UNL     1      25.350   7.058  49.395  1.00  0.00     0.140 A 
HETATM    6  N1  UNL     1      25.190   8.383  49.475  1.00  0.00    -0.224 NA
HETATM    7  C8  UNL     1      26.172   9.262  49.217  1.00  0.00     0.236 A 
HETATM    8  N2  UNL     1      27.390   8.820  48.857  1.00  0.00    -0.241 NA
HETATM    9  C9  UNL     1      27.533   7.464  48.781  1.00  0.00     0.077 A 
HETATM   10  C10 UNL     1      28.818   7.123  48.407  1.00  0.00     0.069 A 
HETATM   11  N3  UNL     1      24.152   6.332  49.755  1.00  0.00    -0.374 N 
HETATM   12  C11 UNL     1      23.885   6.347  51.183  1.00  0.00     0.122 C 
HETATM   13  C12 UNL     1      23.320   5.040  51.601  1.00  0.00    -0.002 C 
HETATM   14  C13 UNL     1      22.253   4.378  52.218  1.00  0.00     0.046 C 
HETATM   15  C14 UNL     1      22.153   2.872  52.405  1.00  0.00    -0.025 C 
HETATM   16  C15 UNL     1      22.690   1.618  52.211  1.00  0.00    -0.028 C 
HETATM   17  C16 UNL     1      23.977   1.685  51.455  1.00  0.00     0.053 C 
HETATM   18  C17 UNL     1      25.206   1.254  52.115  1.00  0.00     0.171 C 
HETATM   19  O2  UNL     1      26.419   1.459  51.413  1.00  0.00    -0.389 OA
HETATM   20  C18 UNL     1      26.559   2.784  50.992  1.00  0.00     0.194 C 
HETATM   21  C19 UNL     1      26.026   3.020  49.635  1.00  0.00     0.201 C 
HETATM   22  O3  UNL     1      26.011   4.288  49.126  1.00  0.00    -0.348 OA
HETATM   23  H9  UNL     1      23.965   6.086  48.787  1.00  0.00     0.161 HD
ENDROOT
BRANCH   1  24
HETATM   24  O1  UNL     1      30.438   5.283  47.899  1.00  0.00    -0.351 OA
BRANCH  24  25
HETATM   25  C2  UNL     1      31.616   5.793  48.439  1.00  0.00     0.171 C 
HETATM   26  C1  UNL     1      32.554   6.413  47.439  1.00  0.00     0.034 C 
ENDBRANCH  24  25
ENDBRANCH   1  24
TORSDOF 2
ENDMDL
MODEL 9
REMARK VINA RESULT:      -7.6      2.558      5.285
REMARK  2 active torsions:
REMARK  status: ('A' for Active; 'I' for Inactive)
REMARK    1  A    between atoms: C2_2  and  O1_3 
REMARK    2  A    between atoms: O1_3  and  C3_4 
ROOT
HETATM    1  C3  UNL     1      25.162   0.493  53.556  1.00  0.00     0.073 A 
HETATM    2  C4  UNL     1      24.540   1.521  52.878  1.00  0.00     0.074 A 
HETATM    3  C5  UNL     1      23.186   1.601  52.684  1.00  0.00     0.087 A 
HETATM    4  C6  UNL     1      22.352   0.616  53.175  1.00  0.00     0.072 A 
HETATM    5  C7  UNL     1      20.970   0.458  53.114  1.00  0.00     0.140 A 
HETATM    6  N1  UNL     1      20.358  -0.593  53.669  1.00  0.00    -0.224 NA
HETATM    7  C8  UNL     1      21.011  -1.569  54.320  1.00  0.00     0.236 A 
HETATM    8  N2  UNL     1      22.349  -1.517  54.438  1.00  0.00    -0.241 NA
HETATM    9  C9  UNL     1      22.956  -0.436  53.865  1.00  0.00     0.077 A 
HETATM   10  C10 UNL     1      24.325  -0.484  54.043  1.00  0.00     0.069 A 
HETATM   11  N3  UNL     1      20.046   1.347  52.444  1.00  0.00    -0.374 N 
HETATM   12  C11 UNL     1      19.546   0.808  51.191  1.00  0.00     0.122 C 
HETATM   13  C12 UNL     1      19.395   1.902  50.199  1.00  0.00    -0.002 C 
HETATM   14  C13 UNL     1      18.527   2.576  49.334  1.00  0.00     0.046 C 
HETATM   15  C14 UNL     1      18.913   3.756  48.455  1.00  0.00    -0.025 C 
HETATM   16  C15 UNL     1      19.870   4.655  48.037  1.00  0.00    -0.028 C 
HETATM   17  C16 UNL     1      21.168   4.442  48.745  1.00  0.00     0.053 C 
HETATM   18  C17 UNL     1      22.336   4.033  47.970  1.00  0.00     0.171 C 
HETATM   19  O2  UNL     1      23.509   3.712  48.695  1.00  0.00    -0.389 OA
HETATM   20  C18 UNL     1      23.262   2.766  49.694  1.00  0.00     0.194 C 
HETATM   21  C19 UNL     1      22.925   3.376  50.996  1.00  0.00     0.201 C 
HETATM   22  O3  UNL     1      22.569   2.575  52.045  1.00  0.00    -0.348 OA
HETATM   23  H9  UNL     1      20.126   2.044  53.178  1.00  0.00     0.161 HD
ENDROOT
BRANCH   1  24
HETATM   24  O1  UNL     1      26.535   0.616  53.632  1.00  0.00    -0.351 OA
BRANCH  24  25
HETATM   25  C2  UNL     1      27.219   0.204  54.774  1.00  0.00     0.171 C 
HETATM   26  C1  UNL     1      28.718   0.208  54.650  1.00  0.00     0.034 C 
ENDBRANCH  24  25
ENDBRANCH   1  24
TORSDOF 2
ENDMDL
