MODEL 1
REMARK VINA RESULT:      -8.2      0.000      0.000
REMARK  8 active torsions:
REMARK  status: ('A' for Active; 'I' for Inactive)
REMARK    1  A    between atoms: C2_2  and  C3_3 
REMARK    2  A    between atoms: C4_4  and  C5_5 
REMARK    3  A    between atoms: C5_5  and  C22_28 
REMARK    4  A    between atoms: C6_6  and  C7_7 
REMARK    5  A    between atoms: C7_7  and  N1_8 
REMARK    6  A    between atoms: N1_8  and  C8_9 
REMARK    7  A    between atoms: C8_9  and  N2_11 
REMARK    8  A    between atoms: N2_11  and  C10_12 
ROOT
HETATM    1  C10 UNL     1      29.573   6.192  48.283  1.00  0.00     0.021 C 
HETATM    2  C11 UNL     1      30.225   5.146  47.795  1.00  0.00     0.009 C 
HETATM    3  C12 UNL     1      31.127   4.181  47.222  1.00  0.00     0.043 C 
HETATM    4  C13 UNL     1      32.325   4.083  46.723  1.00  0.00    -0.021 C 
HETATM    5  O1  UNL     1      33.648   4.634  46.316  1.00  0.00     0.000 OA
HETATM    6  C14 UNL     1      34.140   5.540  47.328  1.00  0.00    -0.022 A 
HETATM    7  C15 UNL     1      35.340   5.304  48.024  1.00  0.00     0.027 A 
HETATM    8  C16 UNL     1      35.436   6.394  48.915  1.00  0.00     0.088 A 
HETATM    9  N3  UNL     1      34.301   6.841  48.426  1.00  0.00    -0.356 N 
HETATM   10  C17 UNL     1      33.536   7.849  48.635  1.00  0.00     0.176 A 
HETATM   11  C18 UNL     1      33.488   6.710  47.731  1.00  0.00     0.160 A 
HETATM   12  C19 UNL     1      32.281   8.091  48.035  1.00  0.00     0.254 C 
HETATM   13  O2  UNL     1      32.461   8.764  47.056  1.00  0.00    -0.270 OA
HETATM   14  N4  UNL     1      30.912   8.093  47.763  1.00  0.00    -0.349 N 
HETATM   15  C20 UNL     1      30.563   8.772  46.499  1.00  0.00     0.153 C 
HETATM   16  C21 UNL     1      29.729   7.678  48.453  1.00  0.00     0.181 C 
ENDROOT
BRANCH   1  17
HETATM   17  N2  UNL     1      28.244   5.826  48.764  1.00  0.00    -0.363 N 
HETATM   18  H16 UNL     1      28.088   6.726  49.323  1.00  0.00     0.161 HD
BRANCH  17  19
HETATM   19  C8  UNL     1      27.077   4.885  48.887  1.00  0.00     0.315 C 
HETATM   20  C9  UNL     1      25.852   5.726  48.953  1.00  0.00     0.066 C 
BRANCH  19  21
HETATM   21  N1  UNL     1      27.295   4.012  49.966  1.00  0.00     0.109 NA
HETATM   22  H11 UNL     1      28.046   3.286  49.735  1.00  0.00     0.318 HD
BRANCH  21  23
HETATM   23  C7  UNL     1      26.275   3.327  50.632  1.00  0.00     0.300 C 
BRANCH  23  24
HETATM   24  C6  UNL     1      26.496   1.940  51.045  1.00  0.00     0.012 C 
HETATM   25  C5  UNL     1      26.238   1.148  52.115  1.00  0.00    -0.032 C 
BRANCH  25  26
HETATM   26  C4  UNL     1      26.660  -0.265  52.109  1.00  0.00     0.005 C 
HETATM   27  C3  UNL     1      27.596  -0.713  52.904  1.00  0.00    -0.026 C 
BRANCH  27  28
HETATM   28  C2  UNL     1      28.616  -0.639  53.941  1.00  0.00     0.022 C 
HETATM   29  C1  UNL     1      29.869   0.131  53.512  1.00  0.00     0.009 C 
ENDBRANCH  27  28
ENDBRANCH  25  26
BRANCH  25  30
HETATM   30  C22 UNL     1      25.444   1.774  53.167  1.00  0.00     0.260 C 
HETATM   31  F1  UNL     1      26.357   2.369  54.043  1.00  0.00    -0.251 F 
ENDBRANCH  25  30
ENDBRANCH  23  24
ENDBRANCH  21  23
ENDBRANCH  19  21
ENDBRANCH  17  19
ENDBRANCH   1  17
TORSDOF 8
ENDMDL
MODEL 2
REMARK VINA RESULT:      -8.2      2.556      3.684
REMARK  8 active torsions:
REMARK  status: ('A' for Active; 'I' for Inactive)
REMARK    1  A    between atoms: C2_2  and  C3_3 
REMARK    2  A    between atoms: C4_4  and  C5_5 
REMARK    3  A    between atoms: C5_5  and  C22_28 
REMARK    4  A    between atoms: C6_6  and  C7_7 
REMARK    5  A    between atoms: C7_7  and  N1_8 
REMARK    6  A    between atoms: N1_8  and  C8_9 
REMARK    7  A    between atoms: C8_9  and  N2_11 
REMARK    8  A    between atoms: N2_11  and  C10_12 
ROOT
HETATM    1  C10 UNL     1      26.745   5.731  48.887  1.00  0.00     0.021 C 
HETATM    2  C11 UNL     1      27.993   5.440  48.549  1.00  0.00     0.009 C 
HETATM    3  C12 UNL     1      29.364   5.377  48.115  1.00  0.00     0.043 C 
HETATM    4  C13 UNL     1      30.312   6.130  47.637  1.00  0.00    -0.021 C 
HETATM    5  O1  UNL     1      30.874   7.425  47.163  1.00  0.00     0.000 OA
HETATM    6  C14 UNL     1      30.465   8.495  48.043  1.00  0.00    -0.022 A 
HETATM    7  C15 UNL     1      31.394   9.264  48.769  1.00  0.00     0.027 A 
HETATM    8  C16 UNL     1      30.591  10.162  49.504  1.00  0.00     0.088 A 
HETATM    9  N3  UNL     1      29.536   9.604  48.955  1.00  0.00    -0.356 N 
HETATM   10  C17 UNL     1      28.265   9.762  49.022  1.00  0.00     0.176 A 
HETATM   11  C18 UNL     1      29.137   8.863  48.282  1.00  0.00     0.160 A 
HETATM   12  C19 UNL     1      27.284   8.965  48.392  1.00  0.00     0.254 C 
HETATM   13  O2  UNL     1      27.026   9.468  47.331  1.00  0.00    -0.270 OA
HETATM   14  N4  UNL     1      26.363   7.954  48.118  1.00  0.00    -0.349 N 
HETATM   15  C20 UNL     1      25.763   8.050  46.772  1.00  0.00     0.153 C 
HETATM   16  C21 UNL     1      25.772   6.878  48.854  1.00  0.00     0.181 C 
ENDROOT
BRANCH   1  17
HETATM   17  N2  UNL     1      26.039   4.564  49.410  1.00  0.00    -0.363 N 
HETATM   18  H16 UNL     1      25.058   4.976  49.284  1.00  0.00     0.161 HD
BRANCH  17  19
HETATM   19  C8  UNL     1      25.992   3.189  50.016  1.00  0.00     0.315 C 
HETATM   20  C9  UNL     1      24.587   2.956  50.444  1.00  0.00     0.066 C 
BRANCH  19  21
HETATM   21  N1  UNL     1      26.974   3.086  51.015  1.00  0.00     0.109 NA
HETATM   22  H11 UNL     1      27.916   2.785  50.606  1.00  0.00     0.318 HD
BRANCH  21  23
HETATM   23  C7  UNL     1      26.809   2.364  52.200  1.00  0.00     0.300 C 
BRANCH  23  24
HETATM   24  C6  UNL     1      26.823   0.901  52.154  1.00  0.00     0.012 C 
HETATM   25  C5  UNL     1      26.466  -0.141  52.944  1.00  0.00    -0.032 C 
BRANCH  25  26
HETATM   26  C4  UNL     1      26.668  -1.526  52.481  1.00  0.00     0.005 C 
HETATM   27  C3  UNL     1      27.778  -2.178  52.704  1.00  0.00    -0.026 C 
BRANCH  27  28
HETATM   28  C2  UNL     1      29.127  -2.383  53.212  1.00  0.00     0.022 C 
HETATM   29  C1  UNL     1      29.829  -1.085  53.622  1.00  0.00     0.009 C 
ENDBRANCH  27  28
ENDBRANCH  25  26
BRANCH  25  30
HETATM   30  C22 UNL     1      25.795   0.231  54.187  1.00  0.00     0.260 C 
HETATM   31  F1  UNL     1      26.776   0.207  55.183  1.00  0.00    -0.251 F 
ENDBRANCH  25  30
ENDBRANCH  23  24
ENDBRANCH  21  23
ENDBRANCH  19  21
ENDBRANCH  17  19
ENDBRANCH   1  17
TORSDOF 8
ENDMDL
MODEL 3
REMARK VINA RESULT:      -8.0      4.082      5.775
REMARK  8 active torsions:
REMARK  status: ('A' for Active; 'I' for Inactive)
REMARK    1  A    between atoms: C2_2  and  C3_3 
REMARK    2  A    between atoms: C4_4  and  C5_5 
REMARK    3  A    between atoms: C5_5  and  C22_28 
REMARK    4  A    between atoms: C6_6  and  C7_7 
REMARK    5  A    between atoms: C7_7  and  N1_8 
REMARK    6  A    between atoms: N1_8  and  C8_9 
REMARK    7  A    between atoms: C8_9  and  N2_11 
REMARK    8  A    between atoms: N2_11  and  C10_12 
ROOT
HETATM    1  C10 UNL     1      24.403   4.440  49.878  1.00  0.00     0.021 C 
HETATM    2  C11 UNL     1      25.673   4.311  49.522  1.00  0.00     0.009 C 
HETATM    3  C12 UNL     1      27.029   4.418  49.048  1.00  0.00     0.043 C 
HETATM    4  C13 UNL     1      27.841   5.261  48.480  1.00  0.00    -0.021 C 
HETATM    5  O1  UNL     1      28.190   6.582  47.885  1.00  0.00     0.000 OA
HETATM    6  C14 UNL     1      27.642   7.648  48.691  1.00  0.00    -0.022 A 
HETATM    7  C15 UNL     1      28.459   8.606  49.321  1.00  0.00     0.027 A 
HETATM    8  C16 UNL     1      27.545   9.433  50.008  1.00  0.00     0.088 A 
HETATM    9  N3  UNL     1      26.575   8.679  49.542  1.00  0.00    -0.356 N 
HETATM   10  C17 UNL     1      25.296   8.650  49.639  1.00  0.00     0.176 A 
HETATM   11  C18 UNL     1      26.279   7.833  48.944  1.00  0.00     0.160 A 
HETATM   12  C19 UNL     1      24.435   7.666  49.107  1.00  0.00     0.254 C 
HETATM   13  O2  UNL     1      24.080   8.033  48.019  1.00  0.00    -0.270 OA
HETATM   14  N4  UNL     1      23.672   6.508  48.946  1.00  0.00    -0.349 N 
HETATM   15  C20 UNL     1      23.035   6.401  47.618  1.00  0.00     0.153 C 
HETATM   16  C21 UNL     1      23.267   5.422  49.786  1.00  0.00     0.181 C 
ENDROOT
BRANCH   1  17
HETATM   17  N2  UNL     1      23.893   3.229  50.515  1.00  0.00    -0.363 N 
HETATM   18  H16 UNL     1      24.266   3.465  51.492  1.00  0.00     0.161 HD
BRANCH  17  19
HETATM   19  C8  UNL     1      23.186   1.902  50.494  1.00  0.00     0.315 C 
HETATM   20  C9  UNL     1      22.156   1.983  49.423  1.00  0.00     0.066 C 
BRANCH  19  21
HETATM   21  N1  UNL     1      22.723   1.600  51.785  1.00  0.00     0.109 NA
HETATM   22  H11 UNL     1      21.977   2.299  52.105  1.00  0.00     0.318 HD
BRANCH  21  23
HETATM   23  C7  UNL     1      23.559   1.385  52.883  1.00  0.00     0.300 C 
BRANCH  23  24
HETATM   24  C6  UNL     1      24.597   0.357  52.802  1.00  0.00     0.012 C 
HETATM   25  C5  UNL     1      25.916   0.269  52.499  1.00  0.00    -0.032 C 
BRANCH  25  26
HETATM   26  C4  UNL     1      26.602  -1.035  52.545  1.00  0.00     0.005 C 
HETATM   27  C3  UNL     1      27.813  -1.167  53.018  1.00  0.00    -0.026 C 
BRANCH  27  28
HETATM   28  C2  UNL     1      29.068  -0.731  53.613  1.00  0.00     0.022 C 
HETATM   29  C1  UNL     1      28.884   0.228  54.794  1.00  0.00     0.009 C 
ENDBRANCH  27  28
ENDBRANCH  25  26
BRANCH  25  30
HETATM   30  C22 UNL     1      26.575   1.546  52.245  1.00  0.00     0.260 C 
HETATM   31  F1  UNL     1      26.865   1.572  50.878  1.00  0.00    -0.251 F 
ENDBRANCH  25  30
ENDBRANCH  23  24
ENDBRANCH  21  23
ENDBRANCH  19  21
ENDBRANCH  17  19
ENDBRANCH   1  17
TORSDOF 8
ENDMDL
MODEL 4
REMARK VINA RESULT:      -7.9      5.501     10.035
REMARK  8 active torsions:
REMARK  status: ('A' for Active; 'I' for Inactive)
REMARK    1  A    between atoms: C2_2  and  C3_3 
REMARK    2  A    between atoms: C4_4  and  C5_5 
REMARK    3  A    between atoms: C5_5  and  C22_28 
REMARK    4  A    between atoms: C6_6  and  C7_7 
REMARK    5  A    between atoms: C7_7  and  N1_8 
REMARK    6  A    between atoms: N1_8  and  C8_9 
REMARK    7  A    between atoms: C8_9  and  N2_11 
REMARK    8  A    between atoms: N2_11  and  C10_12 
ROOT
HETATM    1  C10 UNL     1      25.211   3.472  50.613  1.00  0.00     0.021 C 
HETATM    2  C11 UNL     1      24.255   3.215  49.732  1.00  0.00     0.009 C 
HETATM    3  C12 UNL     1      23.157   2.736  48.934  1.00  0.00     0.043 C 
HETATM    4  C13 UNL     1      22.246   1.806  48.915  1.00  0.00    -0.021 C 
HETATM    5  O1  UNL     1      21.545   0.615  49.472  1.00  0.00     0.000 OA
HETATM    6  C14 UNL     1      21.362   0.770  50.897  1.00  0.00    -0.022 A 
HETATM    7  C15 UNL     1      20.085   0.812  51.488  1.00  0.00     0.027 A 
HETATM    8  C16 UNL     1      20.352   0.992  52.862  1.00  0.00     0.088 A 
HETATM    9  N3  UNL     1      21.633   0.989  52.571  1.00  0.00    -0.356 N 
HETATM   10  C17 UNL     1      22.731   1.105  53.225  1.00  0.00     0.176 A 
HETATM   11  C18 UNL     1      22.403   0.911  51.821  1.00  0.00     0.160 A 
HETATM   12  C19 UNL     1      24.033   1.161  52.680  1.00  0.00     0.254 C 
HETATM   13  O2  UNL     1      24.472   0.043  52.653  1.00  0.00    -0.270 OA
HETATM   14  N4  UNL     1      25.223   1.624  52.118  1.00  0.00    -0.349 N 
HETATM   15  C20 UNL     1      26.170   0.546  51.770  1.00  0.00     0.153 C 
HETATM   16  C21 UNL     1      25.810   2.906  51.871  1.00  0.00     0.181 C 
ENDROOT
BRANCH   1  17
HETATM   17  N2  UNL     1      25.995   4.645  50.236  1.00  0.00    -0.363 N 
HETATM   18  H16 UNL     1      26.449   4.776  51.197  1.00  0.00     0.161 HD
BRANCH  17  19
HETATM   19  C8  UNL     1      26.436   5.703  49.262  1.00  0.00     0.315 C 
HETATM   20  C9  UNL     1      27.612   5.153  48.535  1.00  0.00     0.066 C 
BRANCH  19  21
HETATM   21  N1  UNL     1      26.635   6.913  49.947  1.00  0.00     0.109 NA
HETATM   22  H11 UNL     1      26.764   6.750  50.997  1.00  0.00     0.318 HD
BRANCH  21  23
HETATM   23  C7  UNL     1      25.802   8.027  49.820  1.00  0.00     0.300 C 
BRANCH  23  24
HETATM   24  C6  UNL     1      24.396   7.918  50.212  1.00  0.00     0.012 C 
HETATM   25  C5  UNL     1      23.194   7.692  49.625  1.00  0.00    -0.032 C 
BRANCH  25  26
HETATM   26  C4  UNL     1      21.965   7.666  50.438  1.00  0.00     0.005 C 
HETATM   27  C3  UNL     1      21.446   6.550  50.877  1.00  0.00    -0.026 C 
BRANCH  27  28
HETATM   28  C2  UNL     1      21.345   5.111  51.072  1.00  0.00     0.022 C 
HETATM   29  C1  UNL     1      22.060   4.612  52.331  1.00  0.00     0.009 C 
ENDBRANCH  27  28
ENDBRANCH  25  26
BRANCH  25  30
HETATM   30  C22 UNL     1      23.255   7.382  48.199  1.00  0.00     0.260 C 
HETATM   31  F1  UNL     1      23.384   5.993  48.106  1.00  0.00    -0.251 F 
ENDBRANCH  25  30
ENDBRANCH  23  24
ENDBRANCH  21  23
ENDBRANCH  19  21
ENDBRANCH  17  19
ENDBRANCH   1  17
TORSDOF 8
ENDMDL
MODEL 5
REMARK VINA RESULT:      -7.8      1.310      2.137
REMARK  8 active torsions:
REMARK  status: ('A' for Active; 'I' for Inactive)
REMARK    1  A    between atoms: C2_2  and  C3_3 
REMARK    2  A    between atoms: C4_4  and  C5_5 
REMARK    3  A    between atoms: C5_5  and  C22_28 
REMARK    4  A    between atoms: C6_6  and  C7_7 
REMARK    5  A    between atoms: C7_7  and  N1_8 
REMARK    6  A    between atoms: N1_8  and  C8_9 
REMARK    7  A    between atoms: C8_9  and  N2_11 
REMARK    8  A    between atoms: N2_11  and  C10_12 
ROOT
HETATM    1  C10 UNL     1      29.758   6.400  48.284  1.00  0.00     0.021 C 
HETATM    2  C11 UNL     1      30.354   5.312  47.818  1.00  0.00     0.009 C 
HETATM    3  C12 UNL     1      31.206   4.290  47.269  1.00  0.00     0.043 C 
HETATM    4  C13 UNL     1      32.403   4.118  46.787  1.00  0.00    -0.021 C 
HETATM    5  O1  UNL     1      33.761   4.587  46.391  1.00  0.00     0.000 OA
HETATM    6  C14 UNL     1      34.291   5.475  47.399  1.00  0.00    -0.022 A 
HETATM    7  C15 UNL     1      35.466   5.180  48.115  1.00  0.00     0.027 A 
HETATM    8  C16 UNL     1      35.613   6.273  48.994  1.00  0.00     0.088 A 
HETATM    9  N3  UNL     1      34.513   6.778  48.484  1.00  0.00    -0.356 N 
HETATM   10  C17 UNL     1      33.804   7.831  48.671  1.00  0.00     0.176 A 
HETATM   11  C18 UNL     1      33.703   6.686  47.780  1.00  0.00     0.160 A 
HETATM   12  C19 UNL     1      32.573   8.137  48.051  1.00  0.00     0.254 C 
HETATM   13  O2  UNL     1      32.805   8.787  47.067  1.00  0.00    -0.270 OA
HETATM   14  N4  UNL     1      31.210   8.215  47.761  1.00  0.00    -0.349 N 
HETATM   15  C20 UNL     1      30.917   8.897  46.484  1.00  0.00     0.153 C 
HETATM   16  C21 UNL     1      29.996   7.877  48.440  1.00  0.00     0.181 C 
ENDROOT
BRANCH   1  17
HETATM   17  N2  UNL     1      28.403   6.117  48.752  1.00  0.00    -0.363 N 
HETATM   18  H16 UNL     1      28.386   6.895  49.489  1.00  0.00     0.161 HD
BRANCH  17  19
HETATM   19  C8  UNL     1      27.122   5.329  48.744  1.00  0.00     0.315 C 
HETATM   20  C9  UNL     1      26.013   6.313  48.872  1.00  0.00     0.066 C 
BRANCH  19  21
HETATM   21  N1  UNL     1      27.185   4.328  49.727  1.00  0.00     0.109 NA
HETATM   22  H11 UNL     1      28.198   4.062  49.948  1.00  0.00     0.318 HD
BRANCH  21  23
HETATM   23  C7  UNL     1      26.467   3.131  49.667  1.00  0.00     0.300 C 
BRANCH  23  24
HETATM   24  C6  UNL     1      25.524   2.807  50.739  1.00  0.00     0.012 C 
HETATM   25  C5  UNL     1      25.463   2.000  51.827  1.00  0.00    -0.032 C 
BRANCH  25  26
HETATM   26  C4  UNL     1      24.258   1.988  52.675  1.00  0.00     0.005 C 
HETATM   27  C3  UNL     1      23.777   0.884  53.184  1.00  0.00    -0.026 C 
BRANCH  27  28
HETATM   28  C2  UNL     1      23.715  -0.545  53.453  1.00  0.00     0.022 C 
HETATM   29  C1  UNL     1      22.292  -1.113  53.414  1.00  0.00     0.009 C 
ENDBRANCH  27  28
ENDBRANCH  25  26
BRANCH  25  30
HETATM   30  C22 UNL     1      26.692   1.267  52.118  1.00  0.00     0.260 C 
HETATM   31  F1  UNL     1      26.519  -0.013  51.583  1.00  0.00    -0.251 F 
ENDBRANCH  25  30
ENDBRANCH  23  24
ENDBRANCH  21  23
ENDBRANCH  19  21
ENDBRANCH  17  19
ENDBRANCH   1  17
TORSDOF 8
ENDMDL
MODEL 6
REMARK VINA RESULT:      -7.8      6.712      9.968
REMARK  8 active torsions:
REMARK  status: ('A' for Active; 'I' for Inactive)
REMARK    1  A    between atoms: C2_2  and  C3_3 
REMARK    2  A    between atoms: C4_4  and  C5_5 
REMARK    3  A    between atoms: C5_5  and  C22_28 
REMARK    4  A    between atoms: C6_6  and  C7_7 
REMARK    5  A    between atoms: C7_7  and  N1_8 
REMARK    6  A    between atoms: N1_8  and  C8_9 
REMARK    7  A    between atoms: C8_9  and  N2_11 
REMARK    8  A    between atoms: N2_11  and  C10_12 
ROOT
HETATM    1  C10 UNL     1      22.078   0.850  52.039  1.00  0.00     0.021 C 
HETATM    2  C11 UNL     1      22.779   1.959  52.225  1.00  0.00     0.009 C 
HETATM    3  C12 UNL     1      23.688   3.015  52.587  1.00  0.00     0.043 C 
HETATM    4  C13 UNL     1      24.744   3.241  53.313  1.00  0.00    -0.021 C 
HETATM    5  O1  UNL     1      25.827   2.835  54.254  1.00  0.00     0.000 OA
HETATM    6  C14 UNL     1      26.363   1.551  53.867  1.00  0.00    -0.022 A 
HETATM    7  C15 UNL     1      27.709   1.383  53.493  1.00  0.00     0.027 A 
HETATM    8  C16 UNL     1      27.806   0.011  53.178  1.00  0.00     0.088 A 
HETATM    9  N3  UNL     1      26.531  -0.105  53.472  1.00  0.00    -0.356 N 
HETATM   10  C17 UNL     1      25.665  -1.052  53.484  1.00  0.00     0.176 A 
HETATM   11  C18 UNL     1      25.620   0.367  53.804  1.00  0.00     0.160 A 
HETATM   12  C19 UNL     1      24.286  -0.927  53.760  1.00  0.00     0.254 C 
HETATM   13  O2  UNL     1      24.125  -1.121  54.935  1.00  0.00    -0.270 OA
HETATM   14  N4  UNL     1      22.913  -0.722  53.623  1.00  0.00    -0.349 N 
HETATM   15  C20 UNL     1      22.179  -0.763  54.904  1.00  0.00     0.153 C 
HETATM   16  C21 UNL     1      22.003  -0.570  52.528  1.00  0.00     0.181 C 
ENDROOT
BRANCH   1  17
HETATM   17  N2  UNL     1      20.973   1.058  51.106  1.00  0.00    -0.363 N 
HETATM   18  H16 UNL     1      20.250   0.518  51.685  1.00  0.00     0.161 HD
BRANCH  17  19
HETATM   19  C8  UNL     1      20.383   1.582  49.827  1.00  0.00     0.315 C 
HETATM   20  C9  UNL     1      18.922   1.303  49.882  1.00  0.00     0.066 C 
BRANCH  19  21
HETATM   21  N1  UNL     1      21.081   1.041  48.735  1.00  0.00     0.109 NA
HETATM   22  H11 UNL     1      21.436   0.054  48.950  1.00  0.00     0.318 HD
BRANCH  21  23
HETATM   23  C7  UNL     1      22.120   1.698  48.070  1.00  0.00     0.300 C 
BRANCH  23  24
HETATM   24  C6  UNL     1      22.755   2.855  48.702  1.00  0.00     0.012 C 
HETATM   25  C5  UNL     1      22.768   4.204  48.565  1.00  0.00    -0.032 C 
BRANCH  25  26
HETATM   26  C4  UNL     1      23.595   5.032  49.462  1.00  0.00     0.005 C 
HETATM   27  C3  UNL     1      24.889   4.875  49.555  1.00  0.00    -0.026 C 
BRANCH  27  28
HETATM   28  C2  UNL     1      26.187   4.287  49.258  1.00  0.00     0.022 C 
HETATM   29  C1  UNL     1      26.476   3.010  50.053  1.00  0.00     0.009 C 
ENDBRANCH  27  28
ENDBRANCH  25  26
BRANCH  25  30
HETATM   30  C22 UNL     1      21.841   4.731  47.567  1.00  0.00     0.260 C 
HETATM   31  F1  UNL     1      22.617   5.064  46.452  1.00  0.00    -0.251 F 
ENDBRANCH  25  30
ENDBRANCH  23  24
ENDBRANCH  21  23
ENDBRANCH  19  21
ENDBRANCH  17  19
ENDBRANCH   1  17
TORSDOF 8
ENDMDL
MODEL 7
REMARK VINA RESULT:      -7.8      3.239      4.696
REMARK  8 active torsions:
REMARK  status: ('A' for Active; 'I' for Inactive)
REMARK    1  A    between atoms: C2_2  and  C3_3 
REMARK    2  A    between atoms: C4_4  and  C5_5 
REMARK    3  A    between atoms: C5_5  and  C22_28 
REMARK    4  A    between atoms: C6_6  and  C7_7 
REMARK    5  A    between atoms: C7_7  and  N1_8 
REMARK    6  A    between atoms: N1_8  and  C8_9 
REMARK    7  A    between atoms: C8_9  and  N2_11 
REMARK    8  A    between atoms: N2_11  and  C10_12 
ROOT
HETATM    1  C10 UNL     1      25.043   6.529  50.417  1.00  0.00     0.021 C 
HETATM    2  C11 UNL     1      25.952   5.794  49.793  1.00  0.00     0.009 C 
HETATM    3  C12 UNL     1      27.026   5.224  49.021  1.00  0.00     0.043 C 
HETATM    4  C13 UNL     1      28.002   5.569  48.233  1.00  0.00    -0.021 C 
HETATM    5  O1  UNL     1      28.830   6.562  47.492  1.00  0.00     0.000 OA
HETATM    6  C14 UNL     1      29.099   7.707  48.331  1.00  0.00    -0.022 A 
HETATM    7  C15 UNL     1      30.407   8.074  48.700  1.00  0.00     0.027 A 
HETATM    8  C16 UNL     1      30.224   9.206  49.520  1.00  0.00     0.088 A 
HETATM    9  N3  UNL     1      28.930   9.082  49.333  1.00  0.00    -0.356 N 
HETATM   10  C17 UNL     1      27.874   9.702  49.717  1.00  0.00     0.176 A 
HETATM   11  C18 UNL     1      28.118   8.544  48.872  1.00  0.00     0.160 A 
HETATM   12  C19 UNL     1      26.538   9.329  49.457  1.00  0.00     0.254 C 
HETATM   13  O2  UNL     1      26.185   9.892  48.455  1.00  0.00    -0.270 OA
HETATM   14  N4  UNL     1      25.278   8.734  49.545  1.00  0.00    -0.349 N 
HETATM   15  C20 UNL     1      24.396   9.048  48.403  1.00  0.00     0.153 C 
HETATM   16  C21 UNL     1      24.578   7.956  50.521  1.00  0.00     0.181 C 
ENDROOT
BRANCH   1  17
HETATM   17  N2  UNL     1      24.147   5.710  51.228  1.00  0.00    -0.363 N 
HETATM   18  H16 UNL     1      23.627   6.536  51.670  1.00  0.00     0.161 HD
BRANCH  17  19
HETATM   19  C8  UNL     1      23.637   4.392  51.742  1.00  0.00     0.315 C 
HETATM   20  C9  UNL     1      22.303   4.654  52.347  1.00  0.00     0.066 C 
BRANCH  19  21
HETATM   21  N1  UNL     1      24.602   3.815  52.584  1.00  0.00     0.109 NA
HETATM   22  H11 UNL     1      25.558   3.769  52.107  1.00  0.00     0.318 HD
BRANCH  21  23
HETATM   23  C7  UNL     1      24.431   2.595  53.245  1.00  0.00     0.300 C 
BRANCH  23  24
HETATM   24  C6  UNL     1      25.253   1.449  52.855  1.00  0.00     0.012 C 
HETATM   25  C5  UNL     1      25.292   0.110  53.068  1.00  0.00    -0.032 C 
BRANCH  25  26
HETATM   26  C4  UNL     1      26.351  -0.708  52.449  1.00  0.00     0.005 C 
HETATM   27  C3  UNL     1      27.609  -0.583  52.780  1.00  0.00    -0.026 C 
BRANCH  27  28
HETATM   28  C2  UNL     1      28.752  -0.041  53.500  1.00  0.00     0.022 C 
HETATM   29  C1  UNL     1      28.491   0.166  54.996  1.00  0.00     0.009 C 
ENDBRANCH  27  28
ENDBRANCH  25  26
BRANCH  25  30
HETATM   30  C22 UNL     1      24.174  -0.423  53.840  1.00  0.00     0.260 C 
HETATM   31  F1  UNL     1      24.730  -1.009  54.981  1.00  0.00    -0.251 F 
ENDBRANCH  25  30
ENDBRANCH  23  24
ENDBRANCH  21  23
ENDBRANCH  19  21
ENDBRANCH  17  19
ENDBRANCH   1  17
TORSDOF 8
ENDMDL
MODEL 8
REMARK VINA RESULT:      -7.7      3.262      4.566
REMARK  8 active torsions:
REMARK  status: ('A' for Active; 'I' for Inactive)
REMARK    1  A    between atoms: C2_2  and  C3_3 
REMARK    2  A    between atoms: C4_4  and  C5_5 
REMARK    3  A    between atoms: C5_5  and  C22_28 
REMARK    4  A    between atoms: C6_6  and  C7_7 
REMARK    5  A    between atoms: C7_7  and  N1_8 
REMARK    6  A    between atoms: N1_8  and  C8_9 
REMARK    7  A    between atoms: C8_9  and  N2_11 
REMARK    8  A    between atoms: N2_11  and  C10_12 
ROOT
HETATM    1  C10 UNL     1      26.537   5.654  48.906  1.00  0.00     0.021 C 
HETATM    2  C11 UNL     1      27.779   5.335  48.572  1.00  0.00     0.009 C 
HETATM    3  C12 UNL     1      29.152   5.242  48.150  1.00  0.00     0.043 C 
HETATM    4  C13 UNL     1      30.128   5.979  47.704  1.00  0.00    -0.021 C 
HETATM    5  O1  UNL     1      30.735   7.270  47.273  1.00  0.00     0.000 OA
HETATM    6  C14 UNL     1      30.349   8.326  48.181  1.00  0.00    -0.022 A 
HETATM    7  C15 UNL     1      31.292   9.045  48.939  1.00  0.00     0.027 A 
HETATM    8  C16 UNL     1      30.509   9.945  49.691  1.00  0.00     0.088 A 
HETATM    9  N3  UNL     1      29.444   9.436  49.116  1.00  0.00    -0.356 N 
HETATM   10  C17 UNL     1      28.177   9.631  49.175  1.00  0.00     0.176 A 
HETATM   11  C18 UNL     1      29.030   8.727  48.417  1.00  0.00     0.160 A 
HETATM   12  C19 UNL     1      27.179   8.883  48.511  1.00  0.00     0.254 C 
HETATM   13  O2  UNL     1      26.948   9.424  47.463  1.00  0.00    -0.270 OA
HETATM   14  N4  UNL     1      26.231   7.908  48.198  1.00  0.00    -0.349 N 
HETATM   15  C20 UNL     1      25.649   8.063  46.850  1.00  0.00     0.153 C 
HETATM   16  C21 UNL     1      25.600   6.831  48.897  1.00  0.00     0.181 C 
ENDROOT
BRANCH   1  17
HETATM   17  N2  UNL     1      25.790   4.495  49.388  1.00  0.00    -0.363 N 
HETATM   18  H16 UNL     1      26.421   3.767  48.919  1.00  0.00     0.161 HD
BRANCH  17  19
HETATM   19  C8  UNL     1      24.652   3.851  50.130  1.00  0.00     0.315 C 
HETATM   20  C9  UNL     1      23.467   3.906  49.231  1.00  0.00     0.066 C 
BRANCH  19  21
HETATM   21  N1  UNL     1      24.511   4.460  51.387  1.00  0.00     0.109 NA
HETATM   22  H11 UNL     1      25.459   4.762  51.782  1.00  0.00     0.318 HD
BRANCH  21  23
HETATM   23  C7  UNL     1      23.800   3.899  52.451  1.00  0.00     0.300 C 
BRANCH  23  24
HETATM   24  C6  UNL     1      24.010   2.490  52.787  1.00  0.00     0.012 C 
HETATM   25  C5  UNL     1      23.380   1.302  52.615  1.00  0.00    -0.032 C 
BRANCH  25  26
HETATM   26  C4  UNL     1      23.976   0.062  53.145  1.00  0.00     0.005 C 
HETATM   27  C3  UNL     1      23.371  -0.671  54.042  1.00  0.00    -0.026 C 
BRANCH  27  28
HETATM   28  C2  UNL     1      22.305  -1.049  54.959  1.00  0.00     0.022 C 
HETATM   29  C1  UNL     1      21.050  -1.574  54.256  1.00  0.00     0.009 C 
ENDBRANCH  27  28
ENDBRANCH  25  26
BRANCH  25  30
HETATM   30  C22 UNL     1      22.172   1.359  51.796  1.00  0.00     0.260 C 
HETATM   31  F1  UNL     1      22.557   0.984  50.505  1.00  0.00    -0.251 F 
ENDBRANCH  25  30
ENDBRANCH  23  24
ENDBRANCH  21  23
ENDBRANCH  19  21
ENDBRANCH  17  19
ENDBRANCH   1  17
TORSDOF 8
ENDMDL
MODEL 9
REMARK VINA RESULT:      -7.5      2.683      4.228
REMARK  8 active torsions:
REMARK  status: ('A' for Active; 'I' for Inactive)
REMARK    1  A    between atoms: C2_2  and  C3_3 
REMARK    2  A    between atoms: C4_4  and  C5_5 
REMARK    3  A    between atoms: C5_5  and  C22_28 
REMARK    4  A    between atoms: C6_6  and  C7_7 
REMARK    5  A    between atoms: C7_7  and  N1_8 
REMARK    6  A    between atoms: N1_8  and  C8_9 
REMARK    7  A    between atoms: C8_9  and  N2_11 
REMARK    8  A    between atoms: N2_11  and  C10_12 
ROOT
HETATM    1  C10 UNL     1      26.283   5.911  48.941  1.00  0.00     0.021 C 
HETATM    2  C11 UNL     1      27.497   5.464  48.653  1.00  0.00     0.009 C 
HETATM    3  C12 UNL     1      28.865   5.228  48.270  1.00  0.00     0.043 C 
HETATM    4  C13 UNL     1      29.914   5.851  47.817  1.00  0.00    -0.021 C 
HETATM    5  O1  UNL     1      30.646   7.060  47.346  1.00  0.00     0.000 OA
HETATM    6  C14 UNL     1      30.340   8.187  48.197  1.00  0.00    -0.022 A 
HETATM    7  C15 UNL     1      31.330   8.851  48.945  1.00  0.00     0.027 A 
HETATM    8  C16 UNL     1      30.617   9.853  49.637  1.00  0.00     0.088 A 
HETATM    9  N3  UNL     1      29.522   9.417  49.058  1.00  0.00    -0.356 N 
HETATM   10  C17 UNL     1      28.278   9.729  49.076  1.00  0.00     0.176 A 
HETATM   11  C18 UNL     1      29.059   8.718  48.381  1.00  0.00     0.160 A 
HETATM   12  C19 UNL     1      27.230   9.046  48.421  1.00  0.00     0.254 C 
HETATM   13  O2  UNL     1      27.071   9.557  47.345  1.00  0.00    -0.270 OA
HETATM   14  N4  UNL     1      26.202   8.149  48.127  1.00  0.00    -0.349 N 
HETATM   15  C20 UNL     1      25.665   8.294  46.759  1.00  0.00     0.153 C 
HETATM   16  C21 UNL     1      25.459   7.167  48.856  1.00  0.00     0.181 C 
ENDROOT
BRANCH   1  17
HETATM   17  N2  UNL     1      25.422   4.848  49.453  1.00  0.00    -0.363 N 
HETATM   18  H16 UNL     1      24.638   5.002  48.740  1.00  0.00     0.161 HD
BRANCH  17  19
HETATM   19  C8  UNL     1      25.089   3.746  50.420  1.00  0.00     0.315 C 
HETATM   20  C9  UNL     1      23.881   4.184  51.170  1.00  0.00     0.066 C 
BRANCH  19  21
HETATM   21  N1  UNL     1      26.224   3.440  51.188  1.00  0.00     0.109 NA
HETATM   22  H11 UNL     1      27.036   4.099  50.963  1.00  0.00     0.318 HD
BRANCH  21  23
HETATM   23  C7  UNL     1      26.773   2.159  51.292  1.00  0.00     0.300 C 
BRANCH  23  24
HETATM   24  C6  UNL     1      26.007   1.103  51.956  1.00  0.00     0.012 C 
HETATM   25  C5  UNL     1      26.140   0.266  53.014  1.00  0.00    -0.032 C 
BRANCH  25  26
HETATM   26  C4  UNL     1      25.068  -0.691  53.342  1.00  0.00     0.005 C 
HETATM   27  C3  UNL     1      23.809  -0.342  53.365  1.00  0.00    -0.026 C 
BRANCH  27  28
HETATM   28  C2  UNL     1      22.670   0.557  53.241  1.00  0.00     0.022 C 
HETATM   29  C1  UNL     1      22.275   0.846  51.790  1.00  0.00     0.009 C 
ENDBRANCH  27  28
ENDBRANCH  25  26
BRANCH  25  30
HETATM   30  C22 UNL     1      27.341   0.476  53.817  1.00  0.00     0.260 C 
HETATM   31  F1  UNL     1      28.378  -0.180  53.147  1.00  0.00    -0.251 F 
ENDBRANCH  25  30
ENDBRANCH  23  24
ENDBRANCH  21  23
ENDBRANCH  19  21
ENDBRANCH  17  19
ENDBRANCH   1  17
TORSDOF 8
ENDMDL
