MODEL 1
REMARK VINA RESULT:      -8.8      0.000      0.000
REMARK  6 active torsions:
REMARK  status: ('A' for Active; 'I' for Inactive)
REMARK    1  A    between atoms: C1_2  and  C2_3 
REMARK       I    between atoms: C1_2  and  N1_10 
REMARK    2  A    between atoms: C2_3  and  O2_4 
REMARK    3  A    between atoms: O2_4  and  C3_5 
REMARK    4  A    between atoms: N1_10  and  C8_11 
REMARK    5  A    between atoms: C13_18  and  N4_19 
REMARK    6  A    between atoms: N4_19  and  C14_20 
ROOT
HETATM    1  C8  UNL     1      22.464   2.953  52.010  1.00  0.00     0.035 A 
HETATM    2  C9  UNL     1      21.103   2.993  52.191  1.00  0.00     0.032 A 
HETATM    3  C10 UNL     1      20.428   1.977  52.832  1.00  0.00     0.035 A 
HETATM    4  C11 UNL     1      21.117   0.881  53.313  1.00  0.00     0.072 A 
HETATM    5  N2  UNL     1      20.608  -0.172  53.937  1.00  0.00    -0.241 NA
HETATM    6  C12 UNL     1      21.308  -1.204  54.371  1.00  0.00     0.236 A 
HETATM    7  N3  UNL     1      22.636  -1.182  54.160  1.00  0.00    -0.224 NA
HETATM    8  C13 UNL     1      23.260  -0.160  53.536  1.00  0.00     0.142 A 
HETATM    9  C20 UNL     1      22.477   0.880  53.110  1.00  0.00     0.041 A 
HETATM   10  C21 UNL     1      23.167   1.883  52.471  1.00  0.00     0.047 A 
ENDROOT
BRANCH   1  11
HETATM   11  N1  UNL     1      22.930   4.099  51.318  1.00  0.00    -0.325 N 
HETATM   12  C1  UNL     1      23.108   3.818  49.946  1.00  0.00     0.246 C 
HETATM   13  O1  UNL     1      22.833   2.615  49.584  1.00  0.00    -0.271 OA
HETATM   14  H6  UNL     1      23.175   5.089  51.514  1.00  0.00     0.169 HD
BRANCH  12  15
HETATM   15  C2  UNL     1      23.545   4.552  48.748  1.00  0.00     0.278 C 
BRANCH  15  16
HETATM   16  O2  UNL     1      24.493   5.569  49.072  1.00  0.00    -0.341 OA
BRANCH  16  17
HETATM   17  C3  UNL     1      25.855   5.395  49.046  1.00  0.00     0.080 C 
HETATM   18  C4  UNL     1      26.554   6.516  48.931  1.00  0.00     0.010 C 
HETATM   19  C5  UNL     1      27.652   6.332  48.200  1.00  0.00     0.015 C 
HETATM   20  C6  UNL     1      27.972   4.945  48.585  1.00  0.00     0.004 C 
HETATM   21  C7  UNL     1      26.887   4.362  49.100  1.00  0.00     0.038 C 
ENDBRANCH  16  17
ENDBRANCH  15  16
ENDBRANCH  12  15
ENDBRANCH   1  11
BRANCH   8  22
HETATM   22  N4  UNL     1      24.602  -0.417  53.444  1.00  0.00    -0.340 N 
HETATM   23  H10 UNL     1      24.776   0.172  52.573  1.00  0.00     0.167 HD
BRANCH  22  24
HETATM   24  C14 UNL     1      25.961  -0.664  53.322  1.00  0.00     0.035 A 
HETATM   25  C15 UNL     1      26.620  -1.821  52.842  1.00  0.00     0.029 A 
HETATM   26  C16 UNL     1      27.975  -1.892  52.799  1.00  0.00     0.004 A 
HETATM   27  C17 UNL     1      28.648  -0.783  53.244  1.00  0.00     0.019 A 
HETATM   28  C18 UNL     1      28.158   0.397  53.729  1.00  0.00     0.013 A 
HETATM   29 BR1  UNL     1      29.185   1.877  54.311  1.00  0.00    -0.051 Br
HETATM   30  C19 UNL     1      26.756   0.409  53.749  1.00  0.00     0.048 A 
ENDBRANCH  22  24
ENDBRANCH   8  22
TORSDOF 6
ENDMDL
MODEL 2
REMARK VINA RESULT:      -8.7      1.471      1.835
REMARK  6 active torsions:
REMARK  status: ('A' for Active; 'I' for Inactive)
REMARK    1  A    between atoms: C1_2  and  C2_3 
REMARK       I    between atoms: C1_2  and  N1_10 
REMARK    2  A    between atoms: C2_3  and  O2_4 
REMARK    3  A    between atoms: O2_4  and  C3_5 
REMARK    4  A    between atoms: N1_10  and  C8_11 
REMARK    5  A    between atoms: C13_18  and  N4_19 
REMARK    6  A    between atoms: N4_19  and  C14_20 
ROOT
HETATM    1  C8  UNL     1      22.072   1.677  50.762  1.00  0.00     0.035 A 
HETATM    2  C9  UNL     1      20.799   1.177  50.896  1.00  0.00     0.032 A 
HETATM    3  C10 UNL     1      20.474   0.287  51.896  1.00  0.00     0.035 A 
HETATM    4  C11 UNL     1      21.434  -0.127  52.798  1.00  0.00     0.072 A 
HETATM    5  N2  UNL     1      21.274  -0.980  53.800  1.00  0.00    -0.241 NA
HETATM    6  C12 UNL     1      22.228  -1.354  54.632  1.00  0.00     0.236 A 
HETATM    7  N3  UNL     1      23.453  -0.829  54.445  1.00  0.00    -0.224 NA
HETATM    8  C13 UNL     1      23.728   0.050  53.457  1.00  0.00     0.142 A 
HETATM    9  C20 UNL     1      22.695   0.397  52.628  1.00  0.00     0.041 A 
HETATM   10  C21 UNL     1      23.039   1.284  51.635  1.00  0.00     0.047 A 
ENDROOT
BRANCH   1  11
HETATM   11  N1  UNL     1      22.169   2.562  49.659  1.00  0.00    -0.325 N 
HETATM   12  C1  UNL     1      22.391   3.886  50.098  1.00  0.00     0.246 C 
HETATM   13  O1  UNL     1      22.455   4.046  51.372  1.00  0.00    -0.271 OA
HETATM   14  H6  UNL     1      22.134   2.532  48.622  1.00  0.00     0.169 HD
BRANCH  12  15
HETATM   15  C2  UNL     1      22.577   5.206  49.474  1.00  0.00     0.278 C 
BRANCH  15  16
HETATM   16  O2  UNL     1      23.695   5.215  48.587  1.00  0.00    -0.341 OA
BRANCH  16  17
HETATM   17  C3  UNL     1      24.991   4.970  48.971  1.00  0.00     0.080 C 
HETATM   18  C4  UNL     1      25.777   6.037  48.977  1.00  0.00     0.010 C 
HETATM   19  C5  UNL     1      27.020   5.728  48.612  1.00  0.00     0.015 C 
HETATM   20  C6  UNL     1      27.110   4.370  49.180  1.00  0.00     0.004 C 
HETATM   21  C7  UNL     1      25.883   3.895  49.402  1.00  0.00     0.038 C 
ENDBRANCH  16  17
ENDBRANCH  15  16
ENDBRANCH  12  15
ENDBRANCH   1  11
BRANCH   8  22
HETATM   22  N4  UNL     1      25.051   0.397  53.495  1.00  0.00    -0.340 N 
HETATM   23  H10 UNL     1      24.905   1.440  53.334  1.00  0.00     0.167 HD
BRANCH  22  24
HETATM   24  C14 UNL     1      26.384   0.777  53.523  1.00  0.00     0.035 A 
HETATM   25  C15 UNL     1      26.943   2.078  53.554  1.00  0.00     0.029 A 
HETATM   26  C16 UNL     1      28.287   2.267  53.573  1.00  0.00     0.004 A 
HETATM   27  C17 UNL     1      29.052   1.129  53.561  1.00  0.00     0.019 A 
HETATM   28  C18 UNL     1      28.664  -0.181  53.535  1.00  0.00     0.013 A 
HETATM   29 BR1  UNL     1      29.814  -1.686  53.530  1.00  0.00    -0.051 Br
HETATM   30  C19 UNL     1      27.269  -0.311  53.516  1.00  0.00     0.048 A 
ENDBRANCH  22  24
ENDBRANCH   8  22
TORSDOF 6
ENDMDL
MODEL 3
REMARK VINA RESULT:      -8.5      2.373      6.180
REMARK  6 active torsions:
REMARK  status: ('A' for Active; 'I' for Inactive)
REMARK    1  A    between atoms: C1_2  and  C2_3 
REMARK       I    between atoms: C1_2  and  N1_10 
REMARK    2  A    between atoms: C2_3  and  O2_4 
REMARK    3  A    between atoms: O2_4  and  C3_5 
REMARK    4  A    between atoms: N1_10  and  C8_11 
REMARK    5  A    between atoms: C13_18  and  N4_19 
REMARK    6  A    between atoms: N4_19  and  C14_20 
ROOT
HETATM    1  C8  UNL     1      22.794   4.339  51.275  1.00  0.00     0.035 A 
HETATM    2  C9  UNL     1      22.444   5.246  50.303  1.00  0.00     0.032 A 
HETATM    3  C10 UNL     1      23.358   5.704  49.380  1.00  0.00     0.035 A 
HETATM    4  C11 UNL     1      24.663   5.256  49.412  1.00  0.00     0.072 A 
HETATM    5  N2  UNL     1      25.651   5.611  48.603  1.00  0.00    -0.241 NA
HETATM    6  C12 UNL     1      26.890   5.161  48.680  1.00  0.00     0.236 A 
HETATM    7  N3  UNL     1      27.167   4.276  49.655  1.00  0.00    -0.224 NA
HETATM    8  C13 UNL     1      26.237   3.844  50.534  1.00  0.00     0.142 A 
HETATM    9  C20 UNL     1      24.972   4.349  50.400  1.00  0.00     0.041 A 
HETATM   10  C21 UNL     1      24.074   3.882  51.331  1.00  0.00     0.047 A 
ENDROOT
BRANCH   1  11
HETATM   11  N1  UNL     1      21.694   4.025  52.112  1.00  0.00    -0.325 N 
HETATM   12  C1  UNL     1      21.149   2.768  51.774  1.00  0.00     0.246 C 
HETATM   13  O1  UNL     1      21.723   2.158  50.797  1.00  0.00    -0.271 OA
HETATM   14  H6  UNL     1      21.169   4.439  52.908  1.00  0.00     0.169 HD
BRANCH  12  15
HETATM   15  C2  UNL     1      20.050   1.912  52.248  1.00  0.00     0.278 C 
BRANCH  15  16
HETATM   16  O2  UNL     1      20.387   1.250  53.466  1.00  0.00    -0.341 OA
BRANCH  16  17
HETATM   17  C3  UNL     1      21.409   0.342  53.598  1.00  0.00     0.080 C 
HETATM   18  C4  UNL     1      21.027  -0.871  53.970  1.00  0.00     0.010 C 
HETATM   19  C5  UNL     1      21.929  -1.443  54.765  1.00  0.00     0.015 C 
HETATM   20  C6  UNL     1      23.161  -0.875  54.185  1.00  0.00     0.004 C 
HETATM   21  C7  UNL     1      22.859   0.213  53.473  1.00  0.00     0.038 C 
ENDBRANCH  16  17
ENDBRANCH  15  16
ENDBRANCH  12  15
ENDBRANCH   1  11
BRANCH   8  22
HETATM   22  N4  UNL     1      26.804   2.969  51.421  1.00  0.00    -0.340 N 
HETATM   23  H10 UNL     1      26.459   2.079  50.947  1.00  0.00     0.167 HD
BRANCH  22  24
HETATM   24  C14 UNL     1      27.362   2.060  52.307  1.00  0.00     0.035 A 
HETATM   25  C15 UNL     1      28.270   2.287  53.369  1.00  0.00     0.029 A 
HETATM   26  C16 UNL     1      28.722   1.266  54.140  1.00  0.00     0.004 A 
HETATM   27  C17 UNL     1      28.246   0.019  53.823  1.00  0.00     0.019 A 
HETATM   28  C18 UNL     1      27.374  -0.355  52.839  1.00  0.00     0.013 A 
HETATM   29 BR1  UNL     1      26.772  -2.117  52.494  1.00  0.00    -0.051 Br
HETATM   30  C19 UNL     1      26.944   0.741  52.080  1.00  0.00     0.048 A 
ENDBRANCH  22  24
ENDBRANCH   8  22
TORSDOF 6
ENDMDL
MODEL 4
REMARK VINA RESULT:      -8.4      2.681      6.292
REMARK  6 active torsions:
REMARK  status: ('A' for Active; 'I' for Inactive)
REMARK    1  A    between atoms: C1_2  and  C2_3 
REMARK       I    between atoms: C1_2  and  N1_10 
REMARK    2  A    between atoms: C2_3  and  O2_4 
REMARK    3  A    between atoms: O2_4  and  C3_5 
REMARK    4  A    between atoms: N1_10  and  C8_11 
REMARK    5  A    between atoms: C13_18  and  N4_19 
REMARK    6  A    between atoms: N4_19  and  C14_20 
ROOT
HETATM    1  C8  UNL     1      22.521   0.381  52.789  1.00  0.00     0.035 A 
HETATM    2  C9  UNL     1      21.255   0.241  53.305  1.00  0.00     0.032 A 
HETATM    3  C10 UNL     1      20.276   1.185  53.082  1.00  0.00     0.035 A 
HETATM    4  C11 UNL     1      20.551   2.306  52.326  1.00  0.00     0.072 A 
HETATM    5  N2  UNL     1      19.720   3.298  52.036  1.00  0.00    -0.241 NA
HETATM    6  C12 UNL     1      20.033   4.359  51.315  1.00  0.00     0.236 A 
HETATM    7  N3  UNL     1      21.290   4.435  50.841  1.00  0.00    -0.224 NA
HETATM    8  C13 UNL     1      22.217   3.482  51.074  1.00  0.00     0.142 A 
HETATM    9  C20 UNL     1      21.829   2.408  51.829  1.00  0.00     0.041 A 
HETATM   10  C21 UNL     1      22.820   1.478  52.042  1.00  0.00     0.047 A 
ENDROOT
BRANCH   1  11
HETATM   11  N1  UNL     1      23.355  -0.704  53.158  1.00  0.00    -0.325 N 
HETATM   12  C1  UNL     1      24.522  -0.242  53.804  1.00  0.00     0.246 C 
HETATM   13  O1  UNL     1      24.620   1.034  53.931  1.00  0.00    -0.271 OA
HETATM   14  H6  UNL     1      23.365  -1.742  53.104  1.00  0.00     0.169 HD
BRANCH  12  15
HETATM   15  C2  UNL     1      25.725  -0.841  54.405  1.00  0.00     0.278 C 
BRANCH  15  16
HETATM   16  O2  UNL     1      26.781   0.111  54.527  1.00  0.00    -0.341 OA
BRANCH  16  17
HETATM   17  C3  UNL     1      28.037  -0.052  53.998  1.00  0.00     0.080 C 
HETATM   18  C4  UNL     1      28.162  -1.087  53.178  1.00  0.00     0.010 C 
HETATM   19  C5  UNL     1      29.364  -1.650  53.285  1.00  0.00     0.015 C 
HETATM   20  C6  UNL     1      30.172  -0.449  53.570  1.00  0.00     0.004 C 
HETATM   21  C7  UNL     1      29.377   0.531  54.007  1.00  0.00     0.038 C 
ENDBRANCH  16  17
ENDBRANCH  15  16
ENDBRANCH  12  15
ENDBRANCH   1  11
BRANCH   8  22
HETATM   22  N4  UNL     1      23.405   3.833  50.490  1.00  0.00    -0.340 N 
HETATM   23  H10 UNL     1      23.938   4.001  51.398  1.00  0.00     0.167 HD
BRANCH  22  24
HETATM   24  C14 UNL     1      24.619   4.197  49.928  1.00  0.00     0.035 A 
HETATM   25  C15 UNL     1      25.830   3.467  49.864  1.00  0.00     0.029 A 
HETATM   26  C16 UNL     1      26.936   3.988  49.273  1.00  0.00     0.004 A 
HETATM   27  C17 UNL     1      26.799   5.249  48.751  1.00  0.00     0.019 A 
HETATM   28  C18 UNL     1      25.706   6.070  48.733  1.00  0.00     0.013 A 
HETATM   29 BR1  UNL     1      25.625   7.801  47.971  1.00  0.00    -0.051 Br
HETATM   30  C19 UNL     1      24.600   5.478  49.356  1.00  0.00     0.048 A 
ENDBRANCH  22  24
ENDBRANCH   8  22
TORSDOF 6
ENDMDL
MODEL 5
REMARK VINA RESULT:      -8.3      2.772      5.087
REMARK  6 active torsions:
REMARK  status: ('A' for Active; 'I' for Inactive)
REMARK    1  A    between atoms: C1_2  and  C2_3 
REMARK       I    between atoms: C1_2  and  N1_10 
REMARK    2  A    between atoms: C2_3  and  O2_4 
REMARK    3  A    between atoms: O2_4  and  C3_5 
REMARK    4  A    between atoms: N1_10  and  C8_11 
REMARK    5  A    between atoms: C13_18  and  N4_19 
REMARK    6  A    between atoms: N4_19  and  C14_20 
ROOT
HETATM    1  C8  UNL     1      25.408   1.750  51.760  1.00  0.00     0.035 A 
HETATM    2  C9  UNL     1      26.628   1.585  52.372  1.00  0.00     0.032 A 
HETATM    3  C10 UNL     1      26.778   0.778  53.478  1.00  0.00     0.035 A 
HETATM    4  C11 UNL     1      25.691   0.110  54.004  1.00  0.00     0.072 A 
HETATM    5  N2  UNL     1      25.678  -0.688  55.064  1.00  0.00    -0.241 NA
HETATM    6  C12 UNL     1      24.608  -1.299  55.536  1.00  0.00     0.236 A 
HETATM    7  N3  UNL     1      23.444  -1.093  54.892  1.00  0.00    -0.224 NA
HETATM    8  C13 UNL     1      23.342  -0.303  53.802  1.00  0.00     0.142 A 
HETATM    9  C20 UNL     1      24.489   0.302  53.363  1.00  0.00     0.041 A 
HETATM   10  C21 UNL     1      24.319   1.104  52.259  1.00  0.00     0.047 A 
ENDROOT
BRANCH   1  11
HETATM   11  N1  UNL     1      25.497   2.630  50.653  1.00  0.00    -0.325 N 
HETATM   12  C1  UNL     1      24.801   3.831  50.909  1.00  0.00     0.246 C 
HETATM   13  O1  UNL     1      24.226   3.905  52.058  1.00  0.00    -0.271 OA
HETATM   14  H6  UNL     1      25.927   2.662  49.707  1.00  0.00     0.169 HD
BRANCH  12  15
HETATM   15  C2  UNL     1      24.532   5.088  50.195  1.00  0.00     0.278 C 
BRANCH  15  16
HETATM   16  O2  UNL     1      25.215   5.138  48.943  1.00  0.00    -0.341 OA
BRANCH  16  17
HETATM   17  C3  UNL     1      26.540   5.468  48.796  1.00  0.00     0.080 C 
HETATM   18  C4  UNL     1      26.782   6.770  48.735  1.00  0.00     0.010 C 
HETATM   19  C5  UNL     1      27.790   7.039  47.907  1.00  0.00     0.015 C 
HETATM   20  C6  UNL     1      28.618   5.838  48.131  1.00  0.00     0.004 C 
HETATM   21  C7  UNL     1      27.869   4.873  48.670  1.00  0.00     0.038 C 
ENDBRANCH  16  17
ENDBRANCH  15  16
ENDBRANCH  12  15
ENDBRANCH   1  11
BRANCH   8  22
HETATM   22  N4  UNL     1      22.043  -0.263  53.373  1.00  0.00    -0.340 N 
HETATM   23  H10 UNL     1      21.919  -1.317  53.275  1.00  0.00     0.167 HD
BRANCH  22  24
HETATM   24  C14 UNL     1      20.728  -0.255  52.932  1.00  0.00     0.035 A 
HETATM   25  C15 UNL     1      19.599  -0.917  53.472  1.00  0.00     0.029 A 
HETATM   26  C16 UNL     1      18.374  -0.799  52.900  1.00  0.00     0.004 A 
HETATM   27  C17 UNL     1      18.307  -0.006  51.783  1.00  0.00     0.019 A 
HETATM   28  C18 UNL     1      19.298   0.692  51.151  1.00  0.00     0.013 A 
HETATM   29 BR1  UNL     1      19.092   1.771  49.608  1.00  0.00    -0.051 Br
HETATM   30  C19 UNL     1      20.536   0.531  51.787  1.00  0.00     0.048 A 
ENDBRANCH  22  24
ENDBRANCH   8  22
TORSDOF 6
ENDMDL
MODEL 6
REMARK VINA RESULT:      -8.3      3.193      5.068
REMARK  6 active torsions:
REMARK  status: ('A' for Active; 'I' for Inactive)
REMARK    1  A    between atoms: C1_2  and  C2_3 
REMARK       I    between atoms: C1_2  and  N1_10 
REMARK    2  A    between atoms: C2_3  and  O2_4 
REMARK    3  A    between atoms: O2_4  and  C3_5 
REMARK    4  A    between atoms: N1_10  and  C8_11 
REMARK    5  A    between atoms: C13_18  and  N4_19 
REMARK    6  A    between atoms: N4_19  and  C14_20 
ROOT
HETATM    1  C8  UNL     1      26.137   5.490  49.302  1.00  0.00     0.035 A 
HETATM    2  C9  UNL     1      25.006   5.821  48.595  1.00  0.00     0.032 A 
HETATM    3  C10 UNL     1      23.853   5.072  48.684  1.00  0.00     0.035 A 
HETATM    4  C11 UNL     1      23.810   3.958  49.498  1.00  0.00     0.072 A 
HETATM    5  N2  UNL     1      22.783   3.138  49.677  1.00  0.00    -0.241 NA
HETATM    6  C12 UNL     1      22.793   2.076  50.461  1.00  0.00     0.236 A 
HETATM    7  N3  UNL     1      23.932   1.807  51.124  1.00  0.00    -0.224 NA
HETATM    8  C13 UNL     1      25.038   2.575  51.017  1.00  0.00     0.142 A 
HETATM    9  C20 UNL     1      24.962   3.662  50.188  1.00  0.00     0.041 A 
HETATM   10  C21 UNL     1      26.123   4.396  50.110  1.00  0.00     0.047 A 
ENDROOT
BRANCH   1  11
HETATM   11  N1  UNL     1      27.196   6.397  49.043  1.00  0.00    -0.325 N 
HETATM   12  C1  UNL     1      28.320   5.719  48.523  1.00  0.00     0.246 C 
HETATM   13  O1  UNL     1      28.189   4.447  48.390  1.00  0.00    -0.271 OA
HETATM   14  H6  UNL     1      27.394   7.414  49.112  1.00  0.00     0.169 HD
BRANCH  12  15
HETATM   15  C2  UNL     1      29.672   6.077  48.067  1.00  0.00     0.278 C 
BRANCH  15  16
HETATM   16  O2  UNL     1      30.576   4.980  48.194  1.00  0.00    -0.341 OA
BRANCH  16  17
HETATM   17  C3  UNL     1      31.601   4.715  47.318  1.00  0.00     0.080 C 
HETATM   18  C4  UNL     1      31.603   3.484  46.826  1.00  0.00     0.010 C 
HETATM   19  C5  UNL     1      32.844   3.034  46.648  1.00  0.00     0.015 C 
HETATM   20  C6  UNL     1      33.513   4.298  46.285  1.00  0.00     0.004 C 
HETATM   21  C7  UNL     1      32.768   5.330  46.690  1.00  0.00     0.038 C 
ENDBRANCH  16  17
ENDBRANCH  15  16
ENDBRANCH  12  15
ENDBRANCH   1  11
BRANCH   8  22
HETATM   22  N4  UNL     1      26.045   2.053  51.783  1.00  0.00    -0.340 N 
HETATM   23  H10 UNL     1      26.848   2.499  51.243  1.00  0.00     0.167 HD
BRANCH  22  24
HETATM   24  C14 UNL     1      27.086   1.535  52.538  1.00  0.00     0.035 A 
HETATM   25  C15 UNL     1      28.028   2.214  53.347  1.00  0.00     0.029 A 
HETATM   26  C16 UNL     1      28.995   1.540  54.020  1.00  0.00     0.004 A 
HETATM   27  C17 UNL     1      28.995   0.177  53.863  1.00  0.00     0.019 A 
HETATM   28  C18 UNL     1      28.159  -0.615  53.126  1.00  0.00     0.013 A 
HETATM   29 BR1  UNL     1      28.243  -2.501  52.988  1.00  0.00    -0.051 Br
HETATM   30  C19 UNL     1      27.184   0.138  52.457  1.00  0.00     0.048 A 
ENDBRANCH  22  24
ENDBRANCH   8  22
TORSDOF 6
ENDMDL
MODEL 7
REMARK VINA RESULT:      -8.2      3.001      7.005
REMARK  6 active torsions:
REMARK  status: ('A' for Active; 'I' for Inactive)
REMARK    1  A    between atoms: C1_2  and  C2_3 
REMARK       I    between atoms: C1_2  and  N1_10 
REMARK    2  A    between atoms: C2_3  and  O2_4 
REMARK    3  A    between atoms: O2_4  and  C3_5 
REMARK    4  A    between atoms: N1_10  and  C8_11 
REMARK    5  A    between atoms: C13_18  and  N4_19 
REMARK    6  A    between atoms: N4_19  and  C14_20 
ROOT
HETATM    1  C8  UNL     1      23.329   2.593  51.443  1.00  0.00     0.035 A 
HETATM    2  C9  UNL     1      22.082   2.806  51.979  1.00  0.00     0.032 A 
HETATM    3  C10 UNL     1      21.473   4.041  51.923  1.00  0.00     0.035 A 
HETATM    4  C11 UNL     1      22.113   5.105  51.319  1.00  0.00     0.072 A 
HETATM    5  N2  UNL     1      21.661   6.346  51.198  1.00  0.00    -0.241 NA
HETATM    6  C12 UNL     1      22.316   7.335  50.619  1.00  0.00     0.236 A 
HETATM    7  N3  UNL     1      23.533   7.059  50.116  1.00  0.00    -0.224 NA
HETATM    8  C13 UNL     1      24.090   5.830  50.182  1.00  0.00     0.142 A 
HETATM    9  C20 UNL     1      23.359   4.849  50.796  1.00  0.00     0.041 A 
HETATM   10  C21 UNL     1      23.983   3.624  50.843  1.00  0.00     0.047 A 
ENDROOT
BRANCH   1  11
HETATM   11  N1  UNL     1      23.752   1.253  51.629  1.00  0.00    -0.325 N 
HETATM   12  C1  UNL     1      24.599   1.146  52.754  1.00  0.00     0.246 C 
HETATM   13  O1  UNL     1      24.832   2.246  53.380  1.00  0.00    -0.271 OA
HETATM   14  H6  UNL     1      23.622   0.320  51.191  1.00  0.00     0.169 HD
BRANCH  12  15
HETATM   15  C2  UNL     1      25.331   0.076  53.448  1.00  0.00     0.278 C 
BRANCH  15  16
HETATM   16  O2  UNL     1      26.516   0.568  54.072  1.00  0.00    -0.341 OA
BRANCH  16  17
HETATM   17  C3  UNL     1      27.791   0.246  53.677  1.00  0.00     0.080 C 
HETATM   18  C4  UNL     1      27.894  -0.903  53.023  1.00  0.00     0.010 C 
HETATM   19  C5  UNL     1      29.037  -1.524  53.307  1.00  0.00     0.015 C 
HETATM   20  C6  UNL     1      29.913  -0.350  53.488  1.00  0.00     0.004 C 
HETATM   21  C7  UNL     1      29.168   0.733  53.716  1.00  0.00     0.038 C 
ENDBRANCH  16  17
ENDBRANCH  15  16
ENDBRANCH  12  15
ENDBRANCH   1  11
BRANCH   8  22
HETATM   22  N4  UNL     1      25.334   5.850  49.611  1.00  0.00    -0.340 N 
HETATM   23  H10 UNL     1      25.110   6.575  48.863  1.00  0.00     0.167 HD
BRANCH  22  24
HETATM   24  C14 UNL     1      26.583   5.886  49.009  1.00  0.00     0.035 A 
HETATM   25  C15 UNL     1      27.515   4.838  48.820  1.00  0.00     0.029 A 
HETATM   26  C16 UNL     1      28.707   5.058  48.208  1.00  0.00     0.004 A 
HETATM   27  C17 UNL     1      28.939   6.345  47.792  1.00  0.00     0.019 A 
HETATM   28  C18 UNL     1      28.144   7.451  47.901  1.00  0.00     0.013 A 
HETATM   29 BR1  UNL     1      28.563   9.190  47.279  1.00  0.00    -0.051 Br
HETATM   30  C19 UNL     1      26.931   7.161  48.539  1.00  0.00     0.048 A 
ENDBRANCH  22  24
ENDBRANCH   8  22
TORSDOF 6
ENDMDL
MODEL 8
REMARK VINA RESULT:      -8.2      4.116      6.809
REMARK  6 active torsions:
REMARK  status: ('A' for Active; 'I' for Inactive)
REMARK    1  A    between atoms: C1_2  and  C2_3 
REMARK       I    between atoms: C1_2  and  N1_10 
REMARK    2  A    between atoms: C2_3  and  O2_4 
REMARK    3  A    between atoms: O2_4  and  C3_5 
REMARK    4  A    between atoms: N1_10  and  C8_11 
REMARK    5  A    between atoms: C13_18  and  N4_19 
REMARK    6  A    between atoms: N4_19  and  C14_20 
ROOT
HETATM    1  C8  UNL     1      23.085  -0.367  53.289  1.00  0.00     0.035 A 
HETATM    2  C9  UNL     1      22.502  -1.023  54.347  1.00  0.00     0.032 A 
HETATM    3  C10 UNL     1      21.139  -1.216  54.415  1.00  0.00     0.035 A 
HETATM    4  C11 UNL     1      20.320  -0.747  53.408  1.00  0.00     0.072 A 
HETATM    5  N2  UNL     1      18.999  -0.847  53.340  1.00  0.00    -0.241 NA
HETATM    6  C12 UNL     1      18.256  -0.373  52.357  1.00  0.00     0.236 A 
HETATM    7  N3  UNL     1      18.889   0.259  51.353  1.00  0.00    -0.224 NA
HETATM    8  C13 UNL     1      20.230   0.417  51.319  1.00  0.00     0.142 A 
HETATM    9  C20 UNL     1      20.943  -0.097  52.368  1.00  0.00     0.041 A 
HETATM   10  C21 UNL     1      22.301   0.106  52.284  1.00  0.00     0.047 A 
ENDROOT
BRANCH   1  11
HETATM   11  N1  UNL     1      24.491  -0.281  53.444  1.00  0.00    -0.325 N 
HETATM   12  C1  UNL     1      24.908   1.067  53.495  1.00  0.00     0.246 C 
HETATM   13  O1  UNL     1      23.972   1.942  53.390  1.00  0.00    -0.271 OA
HETATM   14  H6  UNL     1      25.311  -0.912  53.538  1.00  0.00     0.169 HD
BRANCH  12  15
HETATM   15  C2  UNL     1      26.180   1.792  53.642  1.00  0.00     0.278 C 
BRANCH  15  16
HETATM   16  O2  UNL     1      27.124   1.045  54.409  1.00  0.00    -0.341 OA
BRANCH  16  17
HETATM   17  C3  UNL     1      28.245   0.446  53.888  1.00  0.00     0.080 C 
HETATM   18  C4  UNL     1      28.011  -0.673  53.216  1.00  0.00     0.010 C 
HETATM   19  C5  UNL     1      28.996  -1.554  53.380  1.00  0.00     0.015 C 
HETATM   20  C6  UNL     1      30.138  -0.626  53.486  1.00  0.00     0.004 C 
HETATM   21  C7  UNL     1      29.695   0.594  53.797  1.00  0.00     0.038 C 
ENDBRANCH  16  17
ENDBRANCH  15  16
ENDBRANCH  12  15
ENDBRANCH   1  11
BRANCH   8  22
HETATM   22  N4  UNL     1      20.590   1.113  50.196  1.00  0.00    -0.340 N 
HETATM   23  H10 UNL     1      19.812   0.739  49.571  1.00  0.00     0.167 HD
BRANCH  22  24
HETATM   24  C14 UNL     1      20.935   1.800  49.043  1.00  0.00     0.035 A 
HETATM   25  C15 UNL     1      22.178   1.848  48.368  1.00  0.00     0.029 A 
HETATM   26  C16 UNL     1      22.340   2.587  47.240  1.00  0.00     0.004 A 
HETATM   27  C17 UNL     1      21.232   3.271  46.808  1.00  0.00     0.019 A 
HETATM   28  C18 UNL     1      19.976   3.322  47.345  1.00  0.00     0.013 A 
HETATM   29 BR1  UNL     1      18.508   4.298  46.655  1.00  0.00    -0.051 Br
HETATM   30  C19 UNL     1      19.873   2.541  48.504  1.00  0.00     0.048 A 
ENDBRANCH  22  24
ENDBRANCH   8  22
TORSDOF 6
ENDMDL
MODEL 9
REMARK VINA RESULT:      -8.0      2.662      5.565
REMARK  6 active torsions:
REMARK  status: ('A' for Active; 'I' for Inactive)
REMARK    1  A    between atoms: C1_2  and  C2_3 
REMARK       I    between atoms: C1_2  and  N1_10 
REMARK    2  A    between atoms: C2_3  and  O2_4 
REMARK    3  A    between atoms: O2_4  and  C3_5 
REMARK    4  A    between atoms: N1_10  and  C8_11 
REMARK    5  A    between atoms: C13_18  and  N4_19 
REMARK    6  A    between atoms: N4_19  and  C14_20 
ROOT
HETATM    1  C8  UNL     1      22.237   0.665  53.316  1.00  0.00     0.035 A 
HETATM    2  C9  UNL     1      22.329  -0.427  54.146  1.00  0.00     0.032 A 
HETATM    3  C10 UNL     1      23.543  -1.009  54.442  1.00  0.00     0.035 A 
HETATM    4  C11 UNL     1      24.707  -0.501  53.903  1.00  0.00     0.072 A 
HETATM    5  N2  UNL     1      25.939  -0.956  54.086  1.00  0.00    -0.241 NA
HETATM    6  C12 UNL     1      27.024  -0.441  53.539  1.00  0.00     0.236 A 
HETATM    7  N3  UNL     1      26.864   0.625  52.735  1.00  0.00    -0.224 NA
HETATM    8  C13 UNL     1      25.656   1.173  52.479  1.00  0.00     0.142 A 
HETATM    9  C20 UNL     1      24.571   0.591  53.077  1.00  0.00     0.041 A 
HETATM   10  C21 UNL     1      23.369   1.185  52.769  1.00  0.00     0.047 A 
ENDROOT
BRANCH   1  11
HETATM   11  N1  UNL     1      20.892   1.080  53.151  1.00  0.00    -0.325 N 
HETATM   12  C1  UNL     1      20.395   0.682  51.891  1.00  0.00     0.246 C 
HETATM   13  O1  UNL     1      21.224   0.044  51.143  1.00  0.00    -0.271 OA
HETATM   14  H6  UNL     1      20.155   1.584  53.682  1.00  0.00     0.169 HD
BRANCH  12  15
HETATM   15  C2  UNL     1      19.128   0.799  51.152  1.00  0.00     0.278 C 
BRANCH  15  16
HETATM   16  O2  UNL     1      19.019   2.060  50.493  1.00  0.00    -0.341 OA
BRANCH  16  17
HETATM   17  C3  UNL     1      20.026   2.645  49.765  1.00  0.00     0.080 C 
HETATM   18  C4  UNL     1      20.168   2.168  48.536  1.00  0.00     0.010 C 
HETATM   19  C5  UNL     1      21.447   2.148  48.166  1.00  0.00     0.015 C 
HETATM   20  C6  UNL     1      21.924   3.351  48.874  1.00  0.00     0.004 C 
HETATM   21  C7  UNL     1      21.069   3.664  49.851  1.00  0.00     0.038 C 
ENDBRANCH  16  17
ENDBRANCH  15  16
ENDBRANCH  12  15
ENDBRANCH   1  11
BRANCH   8  22
HETATM   22  N4  UNL     1      25.794   2.227  51.616  1.00  0.00    -0.340 N 
HETATM   23  H10 UNL     1      24.757   2.334  51.394  1.00  0.00     0.167 HD
BRANCH  22  24
HETATM   24  C14 UNL     1      25.903   3.291  50.734  1.00  0.00     0.035 A 
HETATM   25  C15 UNL     1      26.856   3.510  49.710  1.00  0.00     0.029 A 
HETATM   26  C16 UNL     1      26.815   4.625  48.937  1.00  0.00     0.004 A 
HETATM   27  C17 UNL     1      25.802   5.508  49.212  1.00  0.00     0.019 A 
HETATM   28  C18 UNL     1      24.816   5.436  50.156  1.00  0.00     0.013 A 
HETATM   29 BR1  UNL     1      23.452   6.718  50.444  1.00  0.00    -0.051 Br
HETATM   30  C19 UNL     1      24.912   4.265  50.920  1.00  0.00     0.048 A 
ENDBRANCH  22  24
ENDBRANCH   8  22
TORSDOF 6
ENDMDL
