MODEL 1
REMARK VINA RESULT:      -7.2      0.000      0.000
REMARK  9 active torsions:
REMARK  status: ('A' for Active; 'I' for Inactive)
REMARK    1  A    between atoms: O1_2  and  C2_3 
REMARK    2  A    between atoms: C2_3  and  C4_5 
REMARK    3  A    between atoms: C4_5  and  C5_6 
REMARK    4  A    between atoms: C5_6  and  C6_7 
REMARK    5  A    between atoms: C7_8  and  C8_9 
REMARK    6  A    between atoms: C9_10  and  N1_11 
REMARK    7  A    between atoms: C10_12  and  N2_13 
REMARK    8  A    between atoms: S1_14  and  C11_15 
REMARK    9  A    between atoms: C11_15  and  C12_16 
ROOT
HETATM    1  N1  UNL     1      22.754   3.533  51.997  1.00  0.00     0.021 N 
HETATM    2  C10 UNL     1      23.243   4.824  52.107  1.00  0.00     0.322 A 
HETATM    3  S1  UNL     1      24.651   4.045  51.526  1.00  0.00    -0.034 SA
HETATM    4  H14 UNL     1      21.970   4.160  52.351  1.00  0.00     0.303 HD
ENDROOT
BRANCH   1   5
HETATM    5  C9  UNL     1      22.657   2.139  51.750  1.00  0.00     0.216 C 
HETATM    6  C8  UNL     1      22.358   1.430  52.825  1.00  0.00     0.026 C 
BRANCH   6   7
HETATM    7  C7  UNL     1      22.225   0.012  52.744  1.00  0.00     0.001 C 
HETATM    8  C6  UNL     1      22.961  -0.960  53.243  1.00  0.00    -0.000 C 
BRANCH   8   9
HETATM    9  C5  UNL     1      24.141  -0.642  54.035  1.00  0.00    -0.002 C 
BRANCH   9  10
HETATM   10  C4  UNL     1      25.345  -0.766  53.459  1.00  0.00     0.004 C 
BRANCH  10  11
HETATM   11  C2  UNL     1      26.342   0.625  53.661  1.00  0.00     0.139 C 
HETATM   12  C3  UNL     1      26.520   0.749  51.937  1.00  0.00     0.044 C 
BRANCH  11  13
HETATM   13  O1  UNL     1      27.444  -0.090  53.796  1.00  0.00    -0.387 OA
HETATM   14  C1  UNL     1      28.328   0.302  54.800  1.00  0.00     0.202 C 
ENDBRANCH  11  13
ENDBRANCH  10  11
ENDBRANCH   9  10
ENDBRANCH   8   9
ENDBRANCH   6   7
ENDBRANCH   1   5
BRANCH   2  15
HETATM   15  N2  UNL     1      23.951   6.034  52.134  1.00  0.00    -0.386 N 
HETATM   16  H15 UNL     1      24.751   5.375  52.163  1.00  0.00     0.153 HD
HETATM   17  H16 UNL     1      23.842   7.031  52.135  1.00  0.00     0.153 HD
ENDBRANCH   2  15
BRANCH   3  18
HETATM   18  C11 UNL     1      24.650   4.265  49.841  1.00  0.00     0.249 C 
BRANCH  18  19
HETATM   19  C12 UNL     1      25.844   4.864  49.234  1.00  0.00    -0.042 A 
HETATM   20  C13 UNL     1      27.082   4.264  49.121  1.00  0.00     0.008 A 
HETATM   21  C14 UNL     1      28.070   4.998  48.540  1.00  0.00     0.001 A 
HETATM   22  C15 UNL     1      27.809   6.266  48.101  1.00  0.00     0.000 A 
HETATM   23  C16 UNL     1      26.610   6.921  48.181  1.00  0.00     0.001 A 
HETATM   24  C17 UNL     1      25.626   6.154  48.774  1.00  0.00     0.008 A 
ENDBRANCH  18  19
ENDBRANCH   3  18
TORSDOF 9
ENDMDL
MODEL 2
REMARK VINA RESULT:      -7.0      2.978      6.135
REMARK  9 active torsions:
REMARK  status: ('A' for Active; 'I' for Inactive)
REMARK    1  A    between atoms: O1_2  and  C2_3 
REMARK    2  A    between atoms: C2_3  and  C4_5 
REMARK    3  A    between atoms: C4_5  and  C5_6 
REMARK    4  A    between atoms: C5_6  and  C6_7 
REMARK    5  A    between atoms: C7_8  and  C8_9 
REMARK    6  A    between atoms: C9_10  and  N1_11 
REMARK    7  A    between atoms: C10_12  and  N2_13 
REMARK    8  A    between atoms: S1_14  and  C11_15 
REMARK    9  A    between atoms: C11_15  and  C12_16 
ROOT
HETATM    1  N1  UNL     1      20.594   0.385  51.902  1.00  0.00     0.021 N 
HETATM    2  C10 UNL     1      20.426   0.281  53.273  1.00  0.00     0.322 A 
HETATM    3  S1  UNL     1      21.953  -0.475  53.124  1.00  0.00    -0.034 SA
HETATM    4  H14 UNL     1      19.662   0.831  52.162  1.00  0.00     0.303 HD
ENDROOT
BRANCH   1   5
HETATM    5  C9  UNL     1      21.134   0.288  50.593  1.00  0.00     0.216 C 
HETATM    6  C8  UNL     1      21.317   1.459  50.007  1.00  0.00     0.026 C 
BRANCH   6   7
HETATM    7  C7  UNL     1      21.852   1.531  48.687  1.00  0.00     0.001 C 
HETATM    8  C6  UNL     1      22.636   2.423  48.115  1.00  0.00    -0.000 C 
BRANCH   8   9
HETATM    9  C5  UNL     1      23.098   3.576  48.875  1.00  0.00    -0.002 C 
BRANCH   9  10
HETATM   10  C4  UNL     1      24.343   3.553  49.371  1.00  0.00     0.004 C 
BRANCH  10  11
HETATM   11  C2  UNL     1      25.207   5.020  49.106  1.00  0.00     0.139 C 
HETATM   12  C3  UNL     1      26.711   4.167  49.279  1.00  0.00     0.044 C 
BRANCH  11  13
HETATM   13  O1  UNL     1      25.171   5.362  50.381  1.00  0.00    -0.387 OA
HETATM   14  C1  UNL     1      24.766   6.663  50.672  1.00  0.00     0.202 C 
ENDBRANCH  11  13
ENDBRANCH  10  11
ENDBRANCH   9  10
ENDBRANCH   8   9
ENDBRANCH   6   7
ENDBRANCH   1   5
BRANCH   2  15
HETATM   15  N2  UNL     1      20.479   0.065  54.657  1.00  0.00    -0.386 N 
HETATM   16  H15 UNL     1      19.819   0.865  54.642  1.00  0.00     0.153 HD
HETATM   17  H16 UNL     1      20.894  -0.509  55.367  1.00  0.00     0.153 HD
ENDBRANCH   2  15
BRANCH   3  18
HETATM   18  C11 UNL     1      23.109   0.733  53.428  1.00  0.00     0.249 C 
BRANCH  18  19
HETATM   19  C12 UNL     1      24.474   0.506  52.940  1.00  0.00    -0.042 A 
HETATM   20  C13 UNL     1      25.160   1.309  52.051  1.00  0.00     0.008 A 
HETATM   21  C14 UNL     1      26.416   0.913  51.708  1.00  0.00     0.001 A 
HETATM   22  C15 UNL     1      26.938  -0.233  52.240  1.00  0.00     0.000 A 
HETATM   23  C16 UNL     1      26.317  -1.075  53.122  1.00  0.00     0.001 A 
HETATM   24  C17 UNL     1      25.045  -0.649  53.454  1.00  0.00     0.008 A 
ENDBRANCH  18  19
ENDBRANCH   3  18
TORSDOF 9
ENDMDL
MODEL 3
REMARK VINA RESULT:      -6.9      3.273      4.258
REMARK  9 active torsions:
REMARK  status: ('A' for Active; 'I' for Inactive)
REMARK    1  A    between atoms: O1_2  and  C2_3 
REMARK    2  A    between atoms: C2_3  and  C4_5 
REMARK    3  A    between atoms: C4_5  and  C5_6 
REMARK    4  A    between atoms: C5_6  and  C6_7 
REMARK    5  A    between atoms: C7_8  and  C8_9 
REMARK    6  A    between atoms: C9_10  and  N1_11 
REMARK    7  A    between atoms: C10_12  and  N2_13 
REMARK    8  A    between atoms: S1_14  and  C11_15 
REMARK    9  A    between atoms: C11_15  and  C12_16 
ROOT
HETATM    1  N1  UNL     1      19.602  -0.154  52.677  1.00  0.00     0.021 N 
HETATM    2  C10 UNL     1      18.966   0.206  51.501  1.00  0.00     0.322 A 
HETATM    3  S1  UNL     1      19.936   1.597  51.726  1.00  0.00    -0.034 SA
HETATM    4  H14 UNL     1      18.949  -0.944  52.393  1.00  0.00     0.303 HD
ENDROOT
BRANCH   1   5
HETATM    5  C9  UNL     1      20.436  -0.135  53.826  1.00  0.00     0.216 C 
HETATM    6  C8  UNL     1      21.218  -1.195  53.930  1.00  0.00     0.026 C 
BRANCH   6   7
HETATM    7  C7  UNL     1      22.115  -1.327  55.032  1.00  0.00     0.001 C 
HETATM    8  C6  UNL     1      23.404  -1.074  55.139  1.00  0.00    -0.000 C 
BRANCH   8   9
HETATM    9  C5  UNL     1      24.140  -0.566  53.990  1.00  0.00    -0.002 C 
BRANCH   9  10
HETATM   10  C4  UNL     1      25.402  -0.981  53.809  1.00  0.00     0.004 C 
BRANCH  10  11
HETATM   11  C2  UNL     1      26.545   0.309  53.790  1.00  0.00     0.139 C 
HETATM   12  C3  UNL     1      26.800   0.060  52.089  1.00  0.00     0.044 C 
BRANCH  11  13
HETATM   13  O1  UNL     1      27.551  -0.476  54.130  1.00  0.00    -0.387 OA
HETATM   14  C1  UNL     1      28.585   0.107  54.862  1.00  0.00     0.202 C 
ENDBRANCH  11  13
ENDBRANCH  10  11
ENDBRANCH   9  10
ENDBRANCH   8   9
ENDBRANCH   6   7
ENDBRANCH   1   5
BRANCH   2  15
HETATM   15  N2  UNL     1      18.457   0.779  50.327  1.00  0.00    -0.386 N 
HETATM   16  H15 UNL     1      19.417   1.168  50.295  1.00  0.00     0.153 HD
HETATM   17  H16 UNL     1      17.637   0.845  49.754  1.00  0.00     0.153 HD
ENDBRANCH   2  15
BRANCH   3  18
HETATM   18  C11 UNL     1      21.342   1.346  50.805  1.00  0.00     0.249 C 
BRANCH  18  19
HETATM   19  C12 UNL     1      22.576   2.002  51.255  1.00  0.00    -0.042 A 
HETATM   20  C13 UNL     1      22.892   2.323  52.560  1.00  0.00     0.008 A 
HETATM   21  C14 UNL     1      24.082   2.948  52.767  1.00  0.00     0.001 A 
HETATM   22  C15 UNL     1      24.898   3.229  51.708  1.00  0.00     0.000 A 
HETATM   23  C16 UNL     1      24.649   2.942  50.393  1.00  0.00     0.001 A 
HETATM   24  C17 UNL     1      23.436   2.306  50.211  1.00  0.00     0.008 A 
ENDBRANCH  18  19
ENDBRANCH   3  18
TORSDOF 9
ENDMDL
MODEL 4
REMARK VINA RESULT:      -6.9      3.412      5.284
REMARK  9 active torsions:
REMARK  status: ('A' for Active; 'I' for Inactive)
REMARK    1  A    between atoms: O1_2  and  C2_3 
REMARK    2  A    between atoms: C2_3  and  C4_5 
REMARK    3  A    between atoms: C4_5  and  C5_6 
REMARK    4  A    between atoms: C5_6  and  C6_7 
REMARK    5  A    between atoms: C7_8  and  C8_9 
REMARK    6  A    between atoms: C9_10  and  N1_11 
REMARK    7  A    between atoms: C10_12  and  N2_13 
REMARK    8  A    between atoms: S1_14  and  C11_15 
REMARK    9  A    between atoms: C11_15  and  C12_16 
ROOT
HETATM    1  N1  UNL     1      26.180  -0.464  54.916  1.00  0.00     0.021 N 
HETATM    2  C10 UNL     1      27.377   0.233  54.909  1.00  0.00     0.322 A 
HETATM    3  S1  UNL     1      26.906   0.479  53.283  1.00  0.00    -0.034 SA
HETATM    4  H14 UNL     1      26.606  -0.519  55.890  1.00  0.00     0.303 HD
ENDROOT
BRANCH   1   5
HETATM    5  C9  UNL     1      24.953  -1.051  54.510  1.00  0.00     0.216 C 
HETATM    6  C8  UNL     1      23.996  -0.958  55.417  1.00  0.00     0.026 C 
BRANCH   6   7
HETATM    7  C7  UNL     1      22.701  -1.501  55.162  1.00  0.00     0.001 C 
HETATM    8  C6  UNL     1      21.665  -1.007  54.515  1.00  0.00    -0.000 C 
BRANCH   8   9
HETATM    9  C5  UNL     1      21.747   0.317  53.916  1.00  0.00    -0.002 C 
BRANCH   9  10
HETATM   10  C4  UNL     1      21.363   0.463  52.640  1.00  0.00     0.004 C 
BRANCH  10  11
HETATM   11  C2  UNL     1      20.013   1.518  52.453  1.00  0.00     0.139 C 
HETATM   12  C3  UNL     1      19.393   0.503  51.186  1.00  0.00     0.044 C 
BRANCH  11  13
HETATM   13  O1  UNL     1      20.651   2.307  51.607  1.00  0.00    -0.387 OA
HETATM   14  C1  UNL     1      20.591   3.677  51.858  1.00  0.00     0.202 C 
ENDBRANCH  11  13
ENDBRANCH  10  11
ENDBRANCH   9  10
ENDBRANCH   8   9
ENDBRANCH   6   7
ENDBRANCH   1   5
BRANCH   2  15
HETATM   15  N2  UNL     1      28.534   0.985  54.664  1.00  0.00    -0.386 N 
HETATM   16  H15 UNL     1      28.662   0.249  53.945  1.00  0.00     0.153 HD
HETATM   17  H16 UNL     1      29.048   1.793  54.963  1.00  0.00     0.153 HD
ENDBRANCH   2  15
BRANCH   3  18
HETATM   18  C11 UNL     1      26.112   1.981  53.244  1.00  0.00     0.249 C 
BRANCH  18  19
HETATM   19  C12 UNL     1      25.599   2.445  51.950  1.00  0.00    -0.042 A 
HETATM   20  C13 UNL     1      24.268   2.544  51.595  1.00  0.00     0.008 A 
HETATM   21  C14 UNL     1      23.999   2.980  50.335  1.00  0.00     0.001 A 
HETATM   22  C15 UNL     1      25.025   3.295  49.489  1.00  0.00     0.000 A 
HETATM   23  C16 UNL     1      26.362   3.221  49.772  1.00  0.00     0.001 A 
HETATM   24  C17 UNL     1      26.607   2.777  51.057  1.00  0.00     0.008 A 
ENDBRANCH  18  19
ENDBRANCH   3  18
TORSDOF 9
ENDMDL
MODEL 5
REMARK VINA RESULT:      -6.9      3.338      7.862
REMARK  9 active torsions:
REMARK  status: ('A' for Active; 'I' for Inactive)
REMARK    1  A    between atoms: O1_2  and  C2_3 
REMARK    2  A    between atoms: C2_3  and  C4_5 
REMARK    3  A    between atoms: C4_5  and  C5_6 
REMARK    4  A    between atoms: C5_6  and  C6_7 
REMARK    5  A    between atoms: C7_8  and  C8_9 
REMARK    6  A    between atoms: C9_10  and  N1_11 
REMARK    7  A    between atoms: C10_12  and  N2_13 
REMARK    8  A    between atoms: S1_14  and  C11_15 
REMARK    9  A    between atoms: C11_15  and  C12_16 
ROOT
HETATM    1  N1  UNL     1      27.368   1.385  52.575  1.00  0.00     0.021 N 
HETATM    2  C10 UNL     1      27.884   0.364  53.355  1.00  0.00     0.322 A 
HETATM    3  S1  UNL     1      26.412   0.629  54.185  1.00  0.00    -0.034 SA
HETATM    4  H14 UNL     1      28.309   1.096  52.170  1.00  0.00     0.303 HD
ENDROOT
BRANCH   1   5
HETATM    5  C9  UNL     1      26.518   2.401  52.062  1.00  0.00     0.216 C 
HETATM    6  C8  UNL     1      26.627   2.574  50.757  1.00  0.00     0.026 C 
BRANCH   6   7
HETATM    7  C7  UNL     1      25.840   3.559  50.089  1.00  0.00     0.001 C 
HETATM    8  C6  UNL     1      26.180   4.529  49.264  1.00  0.00    -0.000 C 
BRANCH   8   9
HETATM    9  C5  UNL     1      27.578   4.718  48.904  1.00  0.00    -0.002 C 
BRANCH   9  10
HETATM   10  C4  UNL     1      27.906   5.794  48.173  1.00  0.00     0.004 C 
BRANCH  10  11
HETATM   11  C2  UNL     1      29.410   6.496  48.635  1.00  0.00     0.139 C 
HETATM   12  C3  UNL     1      28.677   8.072  48.627  1.00  0.00     0.044 C 
BRANCH  11  13
HETATM   13  O1  UNL     1      29.829   6.605  47.388  1.00  0.00    -0.387 OA
HETATM   14  C1  UNL     1      31.151   6.242  47.135  1.00  0.00     0.202 C 
ENDBRANCH  11  13
ENDBRANCH  10  11
ENDBRANCH   9  10
ENDBRANCH   8   9
ENDBRANCH   6   7
ENDBRANCH   1   5
BRANCH   2  15
HETATM   15  N2  UNL     1      28.197  -0.645  54.276  1.00  0.00    -0.386 N 
HETATM   16  H15 UNL     1      28.420  -1.150  53.399  1.00  0.00     0.153 HD
HETATM   17  H16 UNL     1      28.221  -0.863  55.255  1.00  0.00     0.153 HD
ENDBRANCH   2  15
BRANCH   3  18
HETATM   18  C11 UNL     1      25.308  -0.503  53.560  1.00  0.00     0.249 C 
BRANCH  18  19
HETATM   19  C12 UNL     1      23.880  -0.178  53.647  1.00  0.00    -0.042 A 
HETATM   20  C13 UNL     1      23.226   0.798  52.922  1.00  0.00     0.008 A 
HETATM   21  C14 UNL     1      21.897   0.956  53.163  1.00  0.00     0.001 A 
HETATM   22  C15 UNL     1      21.273   0.166  54.087  1.00  0.00     0.000 A 
HETATM   23  C16 UNL     1      21.856  -0.817  54.840  1.00  0.00     0.001 A 
HETATM   24  C17 UNL     1      23.205  -0.957  54.575  1.00  0.00     0.008 A 
ENDBRANCH  18  19
ENDBRANCH   3  18
TORSDOF 9
ENDMDL
MODEL 6
REMARK VINA RESULT:      -6.9      1.965      3.219
REMARK  9 active torsions:
REMARK  status: ('A' for Active; 'I' for Inactive)
REMARK    1  A    between atoms: O1_2  and  C2_3 
REMARK    2  A    between atoms: C2_3  and  C4_5 
REMARK    3  A    between atoms: C4_5  and  C5_6 
REMARK    4  A    between atoms: C5_6  and  C6_7 
REMARK    5  A    between atoms: C7_8  and  C8_9 
REMARK    6  A    between atoms: C9_10  and  N1_11 
REMARK    7  A    between atoms: C10_12  and  N2_13 
REMARK    8  A    between atoms: S1_14  and  C11_15 
REMARK    9  A    between atoms: C11_15  and  C12_16 
ROOT
HETATM    1  N1  UNL     1      23.050   4.174  52.179  1.00  0.00     0.021 N 
HETATM    2  C10 UNL     1      22.267   5.256  51.815  1.00  0.00     0.322 A 
HETATM    3  S1  UNL     1      23.808   5.892  51.434  1.00  0.00    -0.034 SA
HETATM    4  H14 UNL     1      22.031   3.925  52.356  1.00  0.00     0.303 HD
ENDROOT
BRANCH   1   5
HETATM    5  C9  UNL     1      24.167   3.332  52.423  1.00  0.00     0.216 C 
HETATM    6  C8  UNL     1      24.149   2.212  51.723  1.00  0.00     0.026 C 
BRANCH   6   7
HETATM    7  C7  UNL     1      25.201   1.257  51.856  1.00  0.00     0.001 C 
HETATM    8  C6  UNL     1      25.367   0.258  52.698  1.00  0.00    -0.000 C 
BRANCH   8   9
HETATM    9  C5  UNL     1      24.357  -0.010  53.713  1.00  0.00    -0.002 C 
BRANCH   9  10
HETATM   10  C4  UNL     1      23.249  -0.672  53.348  1.00  0.00     0.004 C 
BRANCH  10  11
HETATM   11  C2  UNL     1      21.799   0.067  53.914  1.00  0.00     0.139 C 
HETATM   12  C3  UNL     1      21.176  -1.493  54.360  1.00  0.00     0.044 C 
BRANCH  11  13
HETATM   13  O1  UNL     1      21.228   0.035  52.723  1.00  0.00    -0.387 OA
HETATM   14  C1  UNL     1      20.575   1.194  52.307  1.00  0.00     0.202 C 
ENDBRANCH  11  13
ENDBRANCH  10  11
ENDBRANCH   9  10
ENDBRANCH   8   9
ENDBRANCH   6   7
ENDBRANCH   1   5
BRANCH   2  15
HETATM   15  N2  UNL     1      21.689   6.459  51.385  1.00  0.00    -0.386 N 
HETATM   16  H15 UNL     1      20.894   6.083  51.935  1.00  0.00     0.153 HD
HETATM   17  H16 UNL     1      21.858   7.285  50.842  1.00  0.00     0.153 HD
ENDBRANCH   2  15
BRANCH   3  18
HETATM   18  C11 UNL     1      24.044   5.596  49.777  1.00  0.00     0.249 C 
BRANCH  18  19
HETATM   19  C12 UNL     1      25.426   5.466  49.300  1.00  0.00    -0.042 A 
HETATM   20  C13 UNL     1      26.203   4.327  49.372  1.00  0.00     0.008 A 
HETATM   21  C14 UNL     1      27.471   4.418  48.888  1.00  0.00     0.001 A 
HETATM   22  C15 UNL     1      27.918   5.598  48.363  1.00  0.00     0.000 A 
HETATM   23  C16 UNL     1      27.205   6.762  48.261  1.00  0.00     0.001 A 
HETATM   24  C17 UNL     1      25.922   6.642  48.758  1.00  0.00     0.008 A 
ENDBRANCH  18  19
ENDBRANCH   3  18
TORSDOF 9
ENDMDL
MODEL 7
REMARK VINA RESULT:      -6.9      3.317      7.398
REMARK  9 active torsions:
REMARK  status: ('A' for Active; 'I' for Inactive)
REMARK    1  A    between atoms: O1_2  and  C2_3 
REMARK    2  A    between atoms: C2_3  and  C4_5 
REMARK    3  A    between atoms: C4_5  and  C5_6 
REMARK    4  A    between atoms: C5_6  and  C6_7 
REMARK    5  A    between atoms: C7_8  and  C8_9 
REMARK    6  A    between atoms: C9_10  and  N1_11 
REMARK    7  A    between atoms: C10_12  and  N2_13 
REMARK    8  A    between atoms: S1_14  and  C11_15 
REMARK    9  A    between atoms: C11_15  and  C12_16 
ROOT
HETATM    1  N1  UNL     1      27.261   0.692  52.539  1.00  0.00     0.021 N 
HETATM    2  C10 UNL     1      27.697   0.212  53.762  1.00  0.00     0.322 A 
HETATM    3  S1  UNL     1      26.118   0.698  54.204  1.00  0.00    -0.034 SA
HETATM    4  H14 UNL     1      28.257   0.336  52.423  1.00  0.00     0.303 HD
ENDROOT
BRANCH   1   5
HETATM    5  C9  UNL     1      26.458   1.263  51.517  1.00  0.00     0.216 C 
HETATM    6  C8  UNL     1      26.841   2.476  51.158  1.00  0.00     0.026 C 
BRANCH   6   7
HETATM    7  C7  UNL     1      26.135   3.187  50.142  1.00  0.00     0.001 C 
HETATM    8  C6  UNL     1      24.947   3.757  50.145  1.00  0.00    -0.000 C 
BRANCH   8   9
HETATM    9  C5  UNL     1      24.125   3.712  51.347  1.00  0.00    -0.002 C 
BRANCH   9  10
HETATM   10  C4  UNL     1      22.800   3.562  51.206  1.00  0.00     0.004 C 
BRANCH  10  11
HETATM   11  C2  UNL     1      21.887   4.745  52.064  1.00  0.00     0.139 C 
HETATM   12  C3  UNL     1      20.538   3.653  52.136  1.00  0.00     0.044 C 
BRANCH  11  13
HETATM   13  O1  UNL     1      21.453   5.322  50.958  1.00  0.00    -0.387 OA
HETATM   14  C1  UNL     1      21.600   6.706  50.872  1.00  0.00     0.202 C 
ENDBRANCH  11  13
ENDBRANCH  10  11
ENDBRANCH   9  10
ENDBRANCH   8   9
ENDBRANCH   6   7
ENDBRANCH   1   5
BRANCH   2  15
HETATM   15  N2  UNL     1      27.913  -0.211  55.081  1.00  0.00    -0.386 N 
HETATM   16  H15 UNL     1      27.012  -0.692  54.901  1.00  0.00     0.153 HD
HETATM   17  H16 UNL     1      28.545  -0.141  55.856  1.00  0.00     0.153 HD
ENDBRANCH   2  15
BRANCH   3  18
HETATM   18  C11 UNL     1      25.146  -0.692  54.085  1.00  0.00     0.249 C 
BRANCH  18  19
HETATM   19  C12 UNL     1      23.713  -0.500  53.833  1.00  0.00    -0.042 A 
HETATM   20  C13 UNL     1      23.164   0.203  52.780  1.00  0.00     0.008 A 
HETATM   21  C14 UNL     1      21.806   0.281  52.735  1.00  0.00     0.001 A 
HETATM   22  C15 UNL     1      21.057  -0.321  53.707  1.00  0.00     0.000 A 
HETATM   23  C16 UNL     1      21.533  -1.030  54.776  1.00  0.00     0.001 A 
HETATM   24  C17 UNL     1      22.912  -1.095  54.797  1.00  0.00     0.008 A 
ENDBRANCH  18  19
ENDBRANCH   3  18
TORSDOF 9
ENDMDL
MODEL 8
REMARK VINA RESULT:      -6.8      2.754      6.602
REMARK  9 active torsions:
REMARK  status: ('A' for Active; 'I' for Inactive)
REMARK    1  A    between atoms: O1_2  and  C2_3 
REMARK    2  A    between atoms: C2_3  and  C4_5 
REMARK    3  A    between atoms: C4_5  and  C5_6 
REMARK    4  A    between atoms: C5_6  and  C6_7 
REMARK    5  A    between atoms: C7_8  and  C8_9 
REMARK    6  A    between atoms: C9_10  and  N1_11 
REMARK    7  A    between atoms: C10_12  and  N2_13 
REMARK    8  A    between atoms: S1_14  and  C11_15 
REMARK    9  A    between atoms: C11_15  and  C12_16 
ROOT
HETATM    1  N1  UNL     1      23.111   1.242  52.560  1.00  0.00     0.021 N 
HETATM    2  C10 UNL     1      22.164   0.762  53.450  1.00  0.00     0.322 A 
HETATM    3  S1  UNL     1      23.107  -0.654  53.259  1.00  0.00    -0.034 SA
HETATM    4  H14 UNL     1      22.435   2.031  52.789  1.00  0.00     0.303 HD
ENDROOT
BRANCH   1   5
HETATM    5  C9  UNL     1      24.226   1.329  51.686  1.00  0.00     0.216 C 
HETATM    6  C8  UNL     1      25.081   2.282  52.011  1.00  0.00     0.026 C 
BRANCH   6   7
HETATM    7  C7  UNL     1      26.255   2.499  51.229  1.00  0.00     0.001 C 
HETATM    8  C6  UNL     1      26.477   3.285  50.195  1.00  0.00    -0.000 C 
BRANCH   8   9
HETATM    9  C5  UNL     1      25.404   4.122  49.677  1.00  0.00    -0.002 C 
BRANCH   9  10
HETATM   10  C4  UNL     1      25.225   5.334  50.221  1.00  0.00     0.004 C 
BRANCH  10  11
HETATM   11  C2  UNL     1      23.564   5.751  50.420  1.00  0.00     0.139 C 
HETATM   12  C3  UNL     1      24.005   7.421  50.612  1.00  0.00     0.044 C 
BRANCH  11  13
HETATM   13  O1  UNL     1      23.583   5.521  51.720  1.00  0.00    -0.387 OA
HETATM   14  C1  UNL     1      22.477   4.867  52.259  1.00  0.00     0.202 C 
ENDBRANCH  11  13
ENDBRANCH  10  11
ENDBRANCH   9  10
ENDBRANCH   8   9
ENDBRANCH   6   7
ENDBRANCH   1   5
BRANCH   2  15
HETATM   15  N2  UNL     1      21.332   0.062  54.334  1.00  0.00    -0.386 N 
HETATM   16  H15 UNL     1      21.848   0.643  55.021  1.00  0.00     0.153 HD
HETATM   17  H16 UNL     1      20.613  -0.635  54.382  1.00  0.00     0.153 HD
ENDBRANCH   2  15
BRANCH   3  18
HETATM   18  C11 UNL     1      24.215  -0.658  54.548  1.00  0.00     0.249 C 
BRANCH  18  19
HETATM   19  C12 UNL     1      25.638  -0.505  54.221  1.00  0.00    -0.042 A 
HETATM   20  C13 UNL     1      26.547   0.273  54.909  1.00  0.00     0.008 A 
HETATM   21  C14 UNL     1      27.821   0.296  54.432  1.00  0.00     0.001 A 
HETATM   22  C15 UNL     1      28.146  -0.431  53.321  1.00  0.00     0.000 A 
HETATM   23  C16 UNL     1      27.298  -1.220  52.591  1.00  0.00     0.001 A 
HETATM   24  C17 UNL     1      26.013  -1.226  53.097  1.00  0.00     0.008 A 
ENDBRANCH  18  19
ENDBRANCH   3  18
TORSDOF 9
ENDMDL
MODEL 9
REMARK VINA RESULT:      -6.7      3.202      6.809
REMARK  9 active torsions:
REMARK  status: ('A' for Active; 'I' for Inactive)
REMARK    1  A    between atoms: O1_2  and  C2_3 
REMARK    2  A    between atoms: C2_3  and  C4_5 
REMARK    3  A    between atoms: C4_5  and  C5_6 
REMARK    4  A    between atoms: C5_6  and  C6_7 
REMARK    5  A    between atoms: C7_8  and  C8_9 
REMARK    6  A    between atoms: C9_10  and  N1_11 
REMARK    7  A    between atoms: C10_12  and  N2_13 
REMARK    8  A    between atoms: S1_14  and  C11_15 
REMARK    9  A    between atoms: C11_15  and  C12_16 
ROOT
HETATM    1  N1  UNL     1      22.748   1.123  52.791  1.00  0.00     0.021 N 
HETATM    2  C10 UNL     1      21.917   0.559  53.744  1.00  0.00     0.322 A 
HETATM    3  S1  UNL     1      22.904  -0.796  53.403  1.00  0.00    -0.034 SA
HETATM    4  H14 UNL     1      22.060   1.866  53.118  1.00  0.00     0.303 HD
ENDROOT
BRANCH   1   5
HETATM    5  C9  UNL     1      23.767   1.302  51.819  1.00  0.00     0.216 C 
HETATM    6  C8  UNL     1      24.713   2.147  52.193  1.00  0.00     0.026 C 
BRANCH   6   7
HETATM    7  C7  UNL     1      25.809   2.437  51.326  1.00  0.00     0.001 C 
HETATM    8  C6  UNL     1      25.993   3.405  50.452  1.00  0.00    -0.000 C 
BRANCH   8   9
HETATM    9  C5  UNL     1      24.959   4.412  50.257  1.00  0.00    -0.002 C 
BRANCH   9  10
HETATM   10  C4  UNL     1      24.203   4.342  49.152  1.00  0.00     0.004 C 
BRANCH  10  11
HETATM   11  C2  UNL     1      22.560   3.938  49.476  1.00  0.00     0.139 C 
HETATM   12  C3  UNL     1      22.688   2.563  48.421  1.00  0.00     0.044 C 
BRANCH  11  13
HETATM   13  O1  UNL     1      22.099   4.721  48.518  1.00  0.00    -0.387 OA
HETATM   14  C1  UNL     1      21.019   5.541  48.842  1.00  0.00     0.202 C 
ENDBRANCH  11  13
ENDBRANCH  10  11
ENDBRANCH   9  10
ENDBRANCH   8   9
ENDBRANCH   6   7
ENDBRANCH   1   5
BRANCH   2  15
HETATM   15  N2  UNL     1      21.209  -0.218  54.672  1.00  0.00    -0.386 N 
HETATM   16  H15 UNL     1      20.997  -0.757  53.812  1.00  0.00     0.153 HD
HETATM   17  H16 UNL     1      20.971  -0.294  55.643  1.00  0.00     0.153 HD
ENDBRANCH   2  15
BRANCH   3  18
HETATM   18  C11 UNL     1      24.131  -0.793  54.579  1.00  0.00     0.249 C 
BRANCH  18  19
HETATM   19  C12 UNL     1      25.518  -0.683  54.113  1.00  0.00    -0.042 A 
HETATM   20  C13 UNL     1      26.040  -1.271  52.979  1.00  0.00     0.008 A 
HETATM   21  C14 UNL     1      27.361  -1.061  52.730  1.00  0.00     0.001 A 
HETATM   22  C15 UNL     1      28.103  -0.298  53.588  1.00  0.00     0.000 A 
HETATM   23  C16 UNL     1      27.653   0.313  54.727  1.00  0.00     0.001 A 
HETATM   24  C17 UNL     1      26.310   0.085  54.954  1.00  0.00     0.008 A 
ENDBRANCH  18  19
ENDBRANCH   3  18
TORSDOF 9
ENDMDL
