MODEL 1
REMARK VINA RESULT:      -8.0      0.000      0.000
REMARK  7 active torsions:
REMARK  status: ('A' for Active; 'I' for Inactive)
REMARK    1  A    between atoms: C2_2  and  N1_3 
REMARK    2  A    between atoms: N1_3  and  O1_4 
REMARK    3  A    between atoms: N1_3  and  C3_5 
REMARK    4  A    between atoms: C6_8  and  O2_9 
REMARK    5  A    between atoms: N2_13  and  C10_14 
REMARK    6  A    between atoms: C15_20  and  C16_21 
REMARK    7  A    between atoms: C21_29  and  N7_30 
ROOT
HETATM    1  C3  UNL     1      22.193   3.220  49.633  1.00  0.00     0.075 C 
HETATM    2  C4  UNL     1      23.326   3.264  48.779  1.00  0.00     0.063 C 
HETATM    3  C5  UNL     1      23.623   4.654  49.102  1.00  0.00     0.094 A 
HETATM    4  C6  UNL     1      23.676   6.047  48.839  1.00  0.00     0.099 A 
HETATM    5  C8  UNL     1      23.911   6.828  50.022  1.00  0.00     0.088 A 
HETATM    6  C9  UNL     1      24.009   5.886  51.067  1.00  0.00     0.128 A 
HETATM    7  N2  UNL     1      23.856   4.783  50.408  1.00  0.00    -0.125 N 
HETATM    8  N6  UNL     1      23.959   5.641  52.469  1.00  0.00    -0.375 N 
HETATM    9  C19 UNL     1      22.906   4.644  52.742  1.00  0.00     0.123 C 
HETATM   10  C20 UNL     1      21.749   4.528  51.867  1.00  0.00     0.062 C 
HETATM   11  C21 UNL     1      21.627   4.309  50.456  1.00  0.00     0.275 C 
HETATM   12  H18 UNL     1      24.714   6.302  52.679  1.00  0.00     0.161 HD
ENDROOT
BRANCH   7  13
HETATM   13  C10 UNL     1      24.572   3.601  50.971  1.00  0.00     0.752 A 
HETATM   14  N3  UNL     1      25.889   3.369  50.681  1.00  0.00    -0.071 NA
HETATM   15  C11 UNL     1      26.610   2.337  51.064  1.00  0.00     0.168 A 
HETATM   16  C12 UNL     1      26.025   1.371  51.835  1.00  0.00     0.077 A 
HETATM   17  C13 UNL     1      26.421   0.204  52.399  1.00  0.00     0.035 A 
HETATM   18  N4  UNL     1      24.743   1.565  52.136  1.00  0.00    -0.221 N 
HETATM   19  C14 UNL     1      25.334  -0.320  53.065  1.00  0.00     0.030 A 
HETATM   20  C15 UNL     1      24.259   0.561  52.891  1.00  0.00     0.041 A 
HETATM   21  N5  UNL     1      24.110   2.614  51.714  1.00  0.00     0.027 NA
BRANCH  20  22
HETATM   22  C16 UNL     1      22.940   0.253  53.498  1.00  0.00     0.038 A 
HETATM   23  C17 UNL     1      22.309  -1.109  53.139  1.00  0.00     0.011 A 
HETATM   24  C18 UNL     1      22.874  -0.881  54.493  1.00  0.00     0.011 A 
ENDBRANCH  20  22
ENDBRANCH   7  13
BRANCH   4  25
HETATM   25  O2  UNL     1      23.484   6.291  47.497  1.00  0.00    -0.353 OA
HETATM   26  C7  UNL     1      22.173   6.332  46.986  1.00  0.00     0.210 C 
ENDBRANCH   4  25
BRANCH   1  27
HETATM   27  N1  UNL     1      21.916   1.875  49.317  1.00  0.00    -0.239 N 
BRANCH  27  28
HETATM   28  C2  UNL     1      21.609   0.733  50.089  1.00  0.00     0.113 C 
HETATM   29  C1  UNL     1      20.346   0.661  50.430  1.00  0.00     0.032 C 
ENDBRANCH  27  28
BRANCH  27  30
HETATM   30  O1  UNL     1      21.902   1.358  48.043  1.00  0.00    -0.283 OA
HETATM   31  H4  UNL     1      21.755   0.381  48.137  1.00  0.00     0.245 HD
ENDBRANCH  27  30
ENDBRANCH   1  27
BRANCH  11  32
HETATM   32  N7  UNL     1      20.111   4.074  50.263  1.00  0.00     0.090 N 
HETATM   33  C22 UNL     1      19.500   3.904  51.551  1.00  0.00     0.310 C 
HETATM   34  C23 UNL     1      19.588   5.316  49.701  1.00  0.00     0.310 C 
ENDBRANCH  11  32
TORSDOF 7
ENDMDL
MODEL 2
REMARK VINA RESULT:      -7.3      2.084      5.017
REMARK  7 active torsions:
REMARK  status: ('A' for Active; 'I' for Inactive)
REMARK    1  A    between atoms: C2_2  and  N1_3 
REMARK    2  A    between atoms: N1_3  and  O1_4 
REMARK    3  A    between atoms: N1_3  and  C3_5 
REMARK    4  A    between atoms: C6_8  and  O2_9 
REMARK    5  A    between atoms: N2_13  and  C10_14 
REMARK    6  A    between atoms: C15_20  and  C16_21 
REMARK    7  A    between atoms: C21_29  and  N7_30 
ROOT
HETATM    1  C3  UNL     1      21.425   4.718  50.649  1.00  0.00     0.075 C 
HETATM    2  C4  UNL     1      21.155   4.354  51.995  1.00  0.00     0.063 C 
HETATM    3  C5  UNL     1      20.240   3.286  51.613  1.00  0.00     0.094 A 
HETATM    4  C6  UNL     1      18.961   2.690  51.453  1.00  0.00     0.099 A 
HETATM    5  C8  UNL     1      18.993   1.523  50.616  1.00  0.00     0.088 A 
HETATM    6  C9  UNL     1      20.344   1.382  50.237  1.00  0.00     0.128 A 
HETATM    7  N2  UNL     1      20.872   2.381  50.867  1.00  0.00    -0.125 N 
HETATM    8  N6  UNL     1      21.282   0.810  49.331  1.00  0.00    -0.375 N 
HETATM    9  C19 UNL     1      22.043   1.897  48.684  1.00  0.00     0.123 C 
HETATM   10  C20 UNL     1      21.448   3.211  48.498  1.00  0.00     0.062 C 
HETATM   11  C21 UNL     1      20.855   4.138  49.415  1.00  0.00     0.275 C 
HETATM   12  H18 UNL     1      20.996  -0.152  49.538  1.00  0.00     0.161 HD
ENDROOT
BRANCH   7  13
HETATM   13  C10 UNL     1      22.286   2.182  51.303  1.00  0.00     0.752 A 
HETATM   14  N3  UNL     1      22.578   1.593  52.502  1.00  0.00    -0.071 NA
HETATM   15  C11 UNL     1      23.774   1.416  53.023  1.00  0.00     0.168 A 
HETATM   16  C12 UNL     1      24.868   1.852  52.329  1.00  0.00     0.077 A 
HETATM   17  C13 UNL     1      26.209   1.855  52.528  1.00  0.00     0.035 A 
HETATM   18  N4  UNL     1      24.620   2.431  51.156  1.00  0.00    -0.221 N 
HETATM   19  C14 UNL     1      26.785   2.461  51.433  1.00  0.00     0.030 A 
HETATM   20  C15 UNL     1      25.757   2.828  50.555  1.00  0.00     0.041 A 
HETATM   21  N5  UNL     1      23.407   2.563  50.721  1.00  0.00     0.027 NA
BRANCH  20  22
HETATM   22  C16 UNL     1      26.078   3.511  49.277  1.00  0.00     0.038 A 
HETATM   23  C17 UNL     1      25.813   5.030  49.213  1.00  0.00     0.011 A 
HETATM   24  C18 UNL     1      27.205   4.518  49.284  1.00  0.00     0.011 A 
ENDBRANCH  20  22
ENDBRANCH   7  13
BRANCH   4  25
HETATM   25  O2  UNL     1      18.009   3.399  52.152  1.00  0.00    -0.353 OA
HETATM   26  C7  UNL     1      16.961   4.021  51.449  1.00  0.00     0.210 C 
ENDBRANCH   4  25
BRANCH   1  27
HETATM   27  N1  UNL     1      22.311   5.745  51.028  1.00  0.00    -0.239 N 
BRANCH  27  28
HETATM   28  C2  UNL     1      22.440   7.106  50.672  1.00  0.00     0.113 C 
HETATM   29  C1  UNL     1      23.641   7.585  50.878  1.00  0.00     0.032 C 
ENDBRANCH  27  28
BRANCH  27  30
HETATM   30  O1  UNL     1      23.349   5.594  51.917  1.00  0.00    -0.283 OA
HETATM   31  H4  UNL     1      24.170   5.466  51.374  1.00  0.00     0.245 HD
ENDBRANCH  27  30
ENDBRANCH   1  27
BRANCH  11  32
HETATM   32  N7  UNL     1      20.650   5.407  48.555  1.00  0.00     0.090 N 
HETATM   33  C22 UNL     1      20.611   5.028  47.171  1.00  0.00     0.310 C 
HETATM   34  C23 UNL     1      19.322   5.908  48.900  1.00  0.00     0.310 C 
ENDBRANCH  11  32
TORSDOF 7
ENDMDL
MODEL 3
REMARK VINA RESULT:      -7.0      1.493      2.743
REMARK  7 active torsions:
REMARK  status: ('A' for Active; 'I' for Inactive)
REMARK    1  A    between atoms: C2_2  and  N1_3 
REMARK    2  A    between atoms: N1_3  and  O1_4 
REMARK    3  A    between atoms: N1_3  and  C3_5 
REMARK    4  A    between atoms: C6_8  and  O2_9 
REMARK    5  A    between atoms: N2_13  and  C10_14 
REMARK    6  A    between atoms: C15_20  and  C16_21 
REMARK    7  A    between atoms: C21_29  and  N7_30 
ROOT
HETATM    1  C3  UNL     1      22.731   3.446  48.889  1.00  0.00     0.075 C 
HETATM    2  C4  UNL     1      24.045   2.958  49.115  1.00  0.00     0.063 C 
HETATM    3  C5  UNL     1      24.489   4.198  49.740  1.00  0.00     0.094 A 
HETATM    4  C6  UNL     1      25.200   5.426  49.789  1.00  0.00     0.099 A 
HETATM    5  C8  UNL     1      24.783   6.265  50.877  1.00  0.00     0.088 A 
HETATM    6  C9  UNL     1      23.773   5.535  51.537  1.00  0.00     0.128 A 
HETATM    7  N2  UNL     1      23.756   4.457  50.822  1.00  0.00    -0.125 N 
HETATM    8  N6  UNL     1      22.666   5.559  52.432  1.00  0.00    -0.375 N 
HETATM    9  C19 UNL     1      21.475   5.040  51.731  1.00  0.00     0.123 C 
HETATM   10  C20 UNL     1      21.343   5.180  50.289  1.00  0.00     0.062 C 
HETATM   11  C21 UNL     1      22.187   4.783  49.201  1.00  0.00     0.275 C 
HETATM   12  H18 UNL     1      23.214   5.949  53.205  1.00  0.00     0.161 HD
ENDROOT
BRANCH   7  13
HETATM   13  C10 UNL     1      23.380   3.212  51.557  1.00  0.00     0.752 A 
HETATM   14  N3  UNL     1      22.072   2.922  51.830  1.00  0.00    -0.071 NA
HETATM   15  C11 UNL     1      21.620   1.895  52.517  1.00  0.00     0.168 A 
HETATM   16  C12 UNL     1      22.515   0.998  53.031  1.00  0.00     0.077 A 
HETATM   17  C13 UNL     1      22.440  -0.138  53.768  1.00  0.00     0.035 A 
HETATM   18  N4  UNL     1      23.798   1.250  52.784  1.00  0.00    -0.221 N 
HETATM   19  C14 UNL     1      23.729  -0.582  53.969  1.00  0.00     0.030 A 
HETATM   20  C15 UNL     1      24.597   0.316  53.333  1.00  0.00     0.041 A 
HETATM   21  N5  UNL     1      24.153   2.289  52.096  1.00  0.00     0.027 NA
BRANCH  20  22
HETATM   22  C16 UNL     1      26.064   0.095  53.384  1.00  0.00     0.038 A 
HETATM   23  C17 UNL     1      26.606  -1.150  52.651  1.00  0.00     0.011 A 
HETATM   24  C18 UNL     1      26.834   0.206  52.090  1.00  0.00     0.011 A 
ENDBRANCH  20  22
ENDBRANCH   7  13
BRANCH   4  25
HETATM   25  O2  UNL     1      26.116   5.492  48.762  1.00  0.00    -0.353 OA
HETATM   26  C7  UNL     1      27.299   4.734  48.846  1.00  0.00     0.210 C 
ENDBRANCH   4  25
BRANCH   1  27
HETATM   27  N1  UNL     1      22.310   2.243  48.289  1.00  0.00    -0.239 N 
BRANCH  27  28
HETATM   28  C2  UNL     1      21.441   1.203  48.688  1.00  0.00     0.113 C 
HETATM   29  C1  UNL     1      20.251   1.625  49.037  1.00  0.00     0.032 C 
ENDBRANCH  27  28
BRANCH  27  30
HETATM   30  O1  UNL     1      22.725   1.796  47.056  1.00  0.00    -0.283 OA
HETATM   31  H4  UNL     1      23.586   2.250  46.866  1.00  0.00     0.245 HD
ENDBRANCH  27  30
ENDBRANCH   1  27
BRANCH  11  32
HETATM   32  N7  UNL     1      21.310   5.050  47.956  1.00  0.00     0.090 N 
HETATM   33  C22 UNL     1      20.342   6.060  48.277  1.00  0.00     0.310 C 
HETATM   34  C23 UNL     1      22.209   5.619  46.955  1.00  0.00     0.310 C 
ENDBRANCH  11  32
TORSDOF 7
ENDMDL
MODEL 4
REMARK VINA RESULT:      -6.9      5.812      8.275
REMARK  7 active torsions:
REMARK  status: ('A' for Active; 'I' for Inactive)
REMARK    1  A    between atoms: C2_2  and  N1_3 
REMARK    2  A    between atoms: N1_3  and  O1_4 
REMARK    3  A    between atoms: N1_3  and  C3_5 
REMARK    4  A    between atoms: C6_8  and  O2_9 
REMARK    5  A    between atoms: N2_13  and  C10_14 
REMARK    6  A    between atoms: C15_20  and  C16_21 
REMARK    7  A    between atoms: C21_29  and  N7_30 
ROOT
HETATM    1  C3  UNL     1      27.386   9.338  46.405  1.00  0.00     0.075 C 
HETATM    2  C4  UNL     1      28.365   8.509  45.795  1.00  0.00     0.063 C 
HETATM    3  C5  UNL     1      29.470   9.156  46.492  1.00  0.00     0.094 A 
HETATM    4  C6  UNL     1      30.603  10.006  46.587  1.00  0.00     0.099 A 
HETATM    5  C8  UNL     1      30.968  10.294  47.946  1.00  0.00     0.088 A 
HETATM    6  C9  UNL     1      30.028   9.597  48.733  1.00  0.00     0.128 A 
HETATM    7  N2  UNL     1      29.321   9.029  47.810  1.00  0.00    -0.125 N 
HETATM    8  N6  UNL     1      29.402   9.449  50.003  1.00  0.00    -0.375 N 
HETATM    9  C19 UNL     1      27.945   9.623  49.841  1.00  0.00     0.123 C 
HETATM   10  C20 UNL     1      27.413  10.462  48.778  1.00  0.00     0.062 C 
HETATM   11  C21 UNL     1      27.595  10.448  47.357  1.00  0.00     0.275 C 
HETATM   12  H18 UNL     1      30.286   9.281  50.493  1.00  0.00     0.161 HD
ENDROOT
BRANCH   7  13
HETATM   13  C10 UNL     1      28.724   7.713  48.184  1.00  0.00     0.752 A 
HETATM   14  N3  UNL     1      29.443   6.555  48.070  1.00  0.00    -0.071 NA
HETATM   15  C11 UNL     1      29.014   5.334  48.309  1.00  0.00     0.168 A 
HETATM   16  C12 UNL     1      27.720   5.156  48.717  1.00  0.00     0.077 A 
HETATM   17  C13 UNL     1      26.940   4.097  49.043  1.00  0.00     0.035 A 
HETATM   18  N4  UNL     1      26.992   6.264  48.839  1.00  0.00    -0.221 N 
HETATM   19  C14 UNL     1      25.696   4.590  49.373  1.00  0.00     0.030 A 
HETATM   20  C15 UNL     1      25.737   5.984  49.239  1.00  0.00     0.041 A 
HETATM   21  N5  UNL     1      27.499   7.427  48.581  1.00  0.00     0.027 NA
BRANCH  20  22
HETATM   22  C16 UNL     1      24.528   6.795  49.526  1.00  0.00     0.038 A 
HETATM   23  C17 UNL     1      24.158   6.993  51.011  1.00  0.00     0.011 A 
HETATM   24  C18 UNL     1      24.722   8.120  50.225  1.00  0.00     0.011 A 
ENDBRANCH  20  22
ENDBRANCH   7  13
BRANCH   4  25
HETATM   25  O2  UNL     1      31.062  10.338  45.331  1.00  0.00    -0.353 OA
HETATM   26  C7  UNL     1      32.446  10.483  45.121  1.00  0.00     0.210 C 
ENDBRANCH   4  25
BRANCH   1  27
HETATM   27  N1  UNL     1      26.325   8.704  45.730  1.00  0.00    -0.239 N 
BRANCH  27  28
HETATM   28  C2  UNL     1      25.985   8.552  44.367  1.00  0.00     0.113 C 
HETATM   29  C1  UNL     1      24.784   8.063  44.183  1.00  0.00     0.032 C 
ENDBRANCH  27  28
BRANCH  27  30
HETATM   30  O1  UNL     1      25.288   8.043  46.346  1.00  0.00    -0.283 OA
HETATM   31  H4  UNL     1      25.491   8.045  47.318  1.00  0.00     0.245 HD
ENDBRANCH  27  30
ENDBRANCH   1  27
BRANCH  11  32
HETATM   32  N7  UNL     1      26.553  11.474  46.855  1.00  0.00     0.090 N 
HETATM   33  C22 UNL     1      26.262  12.397  47.915  1.00  0.00     0.310 C 
HETATM   34  C23 UNL     1      27.220  12.230  45.799  1.00  0.00     0.310 C 
ENDBRANCH  11  32
TORSDOF 7
ENDMDL
MODEL 5
REMARK VINA RESULT:      -6.8      2.328      5.910
REMARK  7 active torsions:
REMARK  status: ('A' for Active; 'I' for Inactive)
REMARK    1  A    between atoms: C2_2  and  N1_3 
REMARK    2  A    between atoms: N1_3  and  O1_4 
REMARK    3  A    between atoms: N1_3  and  C3_5 
REMARK    4  A    between atoms: C6_8  and  O2_9 
REMARK    5  A    between atoms: N2_13  and  C10_14 
REMARK    6  A    between atoms: C15_20  and  C16_21 
REMARK    7  A    between atoms: C21_29  and  N7_30 
ROOT
HETATM    1  C3  UNL     1      21.718   5.164  50.524  1.00  0.00     0.075 C 
HETATM    2  C4  UNL     1      22.513   4.614  51.563  1.00  0.00     0.063 C 
HETATM    3  C5  UNL     1      22.161   3.241  51.223  1.00  0.00     0.094 A 
HETATM    4  C6  UNL     1      21.489   2.005  51.415  1.00  0.00     0.099 A 
HETATM    5  C8  UNL     1      21.532   1.163  50.253  1.00  0.00     0.088 A 
HETATM    6  C9  UNL     1      22.259   1.899  49.295  1.00  0.00     0.128 A 
HETATM    7  N2  UNL     1      22.536   2.964  49.975  1.00  0.00    -0.125 N 
HETATM    8  N6  UNL     1      22.589   2.083  47.922  1.00  0.00    -0.375 N 
HETATM    9  C19 UNL     1      22.213   3.453  47.520  1.00  0.00     0.123 C 
HETATM   10  C20 UNL     1      21.117   4.145  48.179  1.00  0.00     0.062 C 
HETATM   11  C21 UNL     1      20.860   4.451  49.556  1.00  0.00     0.275 C 
HETATM   12  H18 UNL     1      22.959   1.134  47.814  1.00  0.00     0.161 HD
ENDROOT
BRANCH   7  13
HETATM   13  C10 UNL     1      23.821   3.634  49.613  1.00  0.00     0.752 A 
HETATM   14  N3  UNL     1      25.025   3.063  49.922  1.00  0.00    -0.071 NA
HETATM   15  C11 UNL     1      26.218   3.578  49.712  1.00  0.00     0.168 A 
HETATM   16  C12 UNL     1      26.313   4.810  49.126  1.00  0.00     0.077 A 
HETATM   17  C13 UNL     1      27.321   5.640  48.765  1.00  0.00     0.035 A 
HETATM   18  N4  UNL     1      25.158   5.394  48.812  1.00  0.00    -0.221 N 
HETATM   19  C14 UNL     1      26.748   6.766  48.213  1.00  0.00     0.030 A 
HETATM   20  C15 UNL     1      25.357   6.599  48.247  1.00  0.00     0.041 A 
HETATM   21  N5  UNL     1      24.028   4.811  49.056  1.00  0.00     0.027 NA
BRANCH  20  22
HETATM   22  C16 UNL     1      24.468   7.664  47.718  1.00  0.00     0.038 A 
HETATM   23  C17 UNL     1      24.637   8.037  46.230  1.00  0.00     0.011 A 
HETATM   24  C18 UNL     1      23.446   7.271  46.677  1.00  0.00     0.011 A 
ENDBRANCH  20  22
ENDBRANCH   7  13
BRANCH   4  25
HETATM   25  O2  UNL     1      20.963   1.937  52.687  1.00  0.00    -0.353 OA
HETATM   26  C7  UNL     1      21.085   0.740  53.418  1.00  0.00     0.210 C 
ENDBRANCH   4  25
BRANCH   1  27
HETATM   27  N1  UNL     1      22.068   6.487  50.858  1.00  0.00    -0.239 N 
BRANCH  27  28
HETATM   28  C2  UNL     1      21.385   7.723  50.805  1.00  0.00     0.113 C 
HETATM   29  C1  UNL     1      21.571   8.371  49.682  1.00  0.00     0.032 C 
ENDBRANCH  27  28
BRANCH  27  30
HETATM   30  O1  UNL     1      23.293   6.872  51.351  1.00  0.00    -0.283 OA
HETATM   31  H4  UNL     1      23.866   7.064  50.563  1.00  0.00     0.245 HD
ENDBRANCH  27  30
ENDBRANCH   1  27
BRANCH  11  32
HETATM   32  N7  UNL     1      19.636   5.393  49.488  1.00  0.00     0.090 N 
HETATM   33  C22 UNL     1      19.276   5.588  48.112  1.00  0.00     0.310 C 
HETATM   34  C23 UNL     1      18.540   4.663  50.119  1.00  0.00     0.310 C 
ENDBRANCH  11  32
TORSDOF 7
ENDMDL
MODEL 6
REMARK VINA RESULT:      -6.7      1.951      5.832
REMARK  7 active torsions:
REMARK  status: ('A' for Active; 'I' for Inactive)
REMARK    1  A    between atoms: C2_2  and  N1_3 
REMARK    2  A    between atoms: N1_3  and  O1_4 
REMARK    3  A    between atoms: N1_3  and  C3_5 
REMARK    4  A    between atoms: C6_8  and  O2_9 
REMARK    5  A    between atoms: N2_13  and  C10_14 
REMARK    6  A    between atoms: C15_20  and  C16_21 
REMARK    7  A    between atoms: C21_29  and  N7_30 
ROOT
HETATM    1  C3  UNL     1      23.642   3.151  49.538  1.00  0.00     0.075 C 
HETATM    2  C4  UNL     1      23.182   1.906  50.042  1.00  0.00     0.063 C 
HETATM    3  C5  UNL     1      23.902   2.052  51.301  1.00  0.00     0.094 A 
HETATM    4  C6  UNL     1      24.941   1.763  52.223  1.00  0.00     0.099 A 
HETATM    5  C8  UNL     1      25.028   2.730  53.282  1.00  0.00     0.088 A 
HETATM    6  C9  UNL     1      24.004   3.660  53.012  1.00  0.00     0.128 A 
HETATM    7  N2  UNL     1      23.490   3.144  51.943  1.00  0.00    -0.125 N 
HETATM    8  N6  UNL     1      23.477   4.963  53.240  1.00  0.00    -0.375 N 
HETATM    9  C19 UNL     1      23.361   5.664  51.947  1.00  0.00     0.123 C 
HETATM   10  C20 UNL     1      24.256   5.343  50.846  1.00  0.00     0.062 C 
HETATM   11  C21 UNL     1      24.562   4.112  50.180  1.00  0.00     0.275 C 
HETATM   12  H18 UNL     1      23.411   4.832  54.255  1.00  0.00     0.161 HD
ENDROOT
BRANCH   7  13
HETATM   13  C10 UNL     1      22.028   3.386  51.759  1.00  0.00     0.752 A 
HETATM   14  N3  UNL     1      21.098   2.621  52.409  1.00  0.00    -0.071 NA
HETATM   15  C11 UNL     1      19.791   2.696  52.285  1.00  0.00     0.168 A 
HETATM   16  C12 UNL     1      19.260   3.621  51.428  1.00  0.00     0.077 A 
HETATM   17  C13 UNL     1      18.013   3.984  51.040  1.00  0.00     0.035 A 
HETATM   18  N4  UNL     1      20.137   4.382  50.779  1.00  0.00    -0.221 N 
HETATM   19  C14 UNL     1      18.149   5.003  50.123  1.00  0.00     0.030 A 
HETATM   20  C15 UNL     1      19.519   5.254  49.960  1.00  0.00     0.041 A 
HETATM   21  N5  UNL     1      21.411   4.238  50.964  1.00  0.00     0.027 NA
BRANCH  20  22
HETATM   22  C16 UNL     1      19.975   6.308  49.020  1.00  0.00     0.038 A 
HETATM   23  C17 UNL     1      19.946   7.761  49.537  1.00  0.00     0.011 A 
HETATM   24  C18 UNL     1      21.241   7.055  49.367  1.00  0.00     0.011 A 
ENDBRANCH  20  22
ENDBRANCH   7  13
BRANCH   4  25
HETATM   25  O2  UNL     1      25.605   0.613  51.855  1.00  0.00    -0.353 OA
HETATM   26  C7  UNL     1      26.017  -0.291  52.851  1.00  0.00     0.210 C 
ENDBRANCH   4  25
BRANCH   1  27
HETATM   27  N1  UNL     1      22.939   3.002  48.326  1.00  0.00    -0.239 N 
BRANCH  27  28
HETATM   28  C2  UNL     1      22.272   3.903  47.466  1.00  0.00     0.113 C 
HETATM   29  C1  UNL     1      21.123   3.449  47.030  1.00  0.00     0.032 C 
ENDBRANCH  27  28
BRANCH  27  30
HETATM   30  O1  UNL     1      22.739   1.805  47.679  1.00  0.00    -0.283 OA
HETATM   31  H4  UNL     1      21.764   1.623  47.719  1.00  0.00     0.245 HD
ENDBRANCH  27  30
ENDBRANCH   1  27
BRANCH  11  32
HETATM   32  N7  UNL     1      25.416   4.563  48.973  1.00  0.00     0.090 N 
HETATM   33  C22 UNL     1      25.389   5.996  48.895  1.00  0.00     0.310 C 
HETATM   34  C23 UNL     1      26.788   4.176  49.293  1.00  0.00     0.310 C 
ENDBRANCH  11  32
TORSDOF 7
ENDMDL
MODEL 7
REMARK VINA RESULT:      -6.7      2.233      4.908
REMARK  7 active torsions:
REMARK  status: ('A' for Active; 'I' for Inactive)
REMARK    1  A    between atoms: C2_2  and  N1_3 
REMARK    2  A    between atoms: N1_3  and  O1_4 
REMARK    3  A    between atoms: N1_3  and  C3_5 
REMARK    4  A    between atoms: C6_8  and  O2_9 
REMARK    5  A    between atoms: N2_13  and  C10_14 
REMARK    6  A    between atoms: C15_20  and  C16_21 
REMARK    7  A    between atoms: C21_29  and  N7_30 
ROOT
HETATM    1  C3  UNL     1      21.615   3.829  51.179  1.00  0.00     0.075 C 
HETATM    2  C4  UNL     1      20.919   3.748  52.414  1.00  0.00     0.063 C 
HETATM    3  C5  UNL     1      19.735   3.154  51.806  1.00  0.00     0.094 A 
HETATM    4  C6  UNL     1      18.397   3.162  51.332  1.00  0.00     0.099 A 
HETATM    5  C8  UNL     1      18.092   2.024  50.511  1.00  0.00     0.088 A 
HETATM    6  C9  UNL     1      19.285   1.274  50.468  1.00  0.00     0.128 A 
HETATM    7  N2  UNL     1      20.048   1.998  51.221  1.00  0.00    -0.125 N 
HETATM    8  N6  UNL     1      20.047   0.268  49.807  1.00  0.00    -0.375 N 
HETATM    9  C19 UNL     1      21.335   0.848  49.380  1.00  0.00     0.123 C 
HETATM   10  C20 UNL     1      21.445   2.267  49.075  1.00  0.00     0.062 C 
HETATM   11  C21 UNL     1      21.138   3.442  49.835  1.00  0.00     0.275 C 
HETATM   12  H18 UNL     1      19.324  -0.450  49.924  1.00  0.00     0.161 HD
ENDROOT
BRANCH   7  13
HETATM   13  C10 UNL     1      21.088   1.246  51.984  1.00  0.00     0.752 A 
HETATM   14  N3  UNL     1      20.751   0.460  53.051  1.00  0.00    -0.071 NA
HETATM   15  C11 UNL     1      21.575  -0.200  53.835  1.00  0.00     0.168 A 
HETATM   16  C12 UNL     1      22.920  -0.122  53.597  1.00  0.00     0.077 A 
HETATM   17  C13 UNL     1      24.040  -0.634  54.163  1.00  0.00     0.035 A 
HETATM   18  N4  UNL     1      23.283   0.635  52.564  1.00  0.00    -0.221 N 
HETATM   19  C14 UNL     1      25.116  -0.164  53.442  1.00  0.00     0.030 A 
HETATM   20  C15 UNL     1      24.621   0.651  52.415  1.00  0.00     0.041 A 
HETATM   21  N5  UNL     1      22.400   1.251  51.844  1.00  0.00     0.027 NA
BRANCH  20  22
HETATM   22  C16 UNL     1      25.559   1.307  51.469  1.00  0.00     0.038 A 
HETATM   23  C17 UNL     1      26.509   2.371  52.056  1.00  0.00     0.011 A 
HETATM   24  C18 UNL     1      27.035   1.043  51.650  1.00  0.00     0.011 A 
ENDBRANCH  20  22
ENDBRANCH   7  13
BRANCH   4  25
HETATM   25  O2  UNL     1      17.731   4.277  51.791  1.00  0.00    -0.353 OA
HETATM   26  C7  UNL     1      16.325   4.265  51.842  1.00  0.00     0.210 C 
ENDBRANCH   4  25
BRANCH   1  27
HETATM   27  N1  UNL     1      22.756   4.399  51.776  1.00  0.00    -0.239 N 
BRANCH  27  28
HETATM   28  C2  UNL     1      23.551   5.530  51.485  1.00  0.00     0.113 C 
HETATM   29  C1  UNL     1      24.569   5.262  50.704  1.00  0.00     0.032 C 
ENDBRANCH  27  28
BRANCH  27  30
HETATM   30  O1  UNL     1      23.394   3.894  52.886  1.00  0.00    -0.283 OA
HETATM   31  H4  UNL     1      22.810   3.176  53.244  1.00  0.00     0.245 HD
ENDBRANCH  27  30
ENDBRANCH   1  27
BRANCH  11  32
HETATM   32  N7  UNL     1      21.717   4.585  48.970  1.00  0.00     0.090 N 
HETATM   33  C22 UNL     1      22.388   4.016  47.836  1.00  0.00     0.310 C 
HETATM   34  C23 UNL     1      20.562   5.319  48.461  1.00  0.00     0.310 C 
ENDBRANCH  11  32
TORSDOF 7
ENDMDL
MODEL 8
REMARK VINA RESULT:      -6.7      1.755      2.342
REMARK  7 active torsions:
REMARK  status: ('A' for Active; 'I' for Inactive)
REMARK    1  A    between atoms: C2_2  and  N1_3 
REMARK    2  A    between atoms: N1_3  and  O1_4 
REMARK    3  A    between atoms: N1_3  and  C3_5 
REMARK    4  A    between atoms: C6_8  and  O2_9 
REMARK    5  A    between atoms: N2_13  and  C10_14 
REMARK    6  A    between atoms: C15_20  and  C16_21 
REMARK    7  A    between atoms: C21_29  and  N7_30 
ROOT
HETATM    1  C3  UNL     1      21.771   4.582  48.106  1.00  0.00     0.075 C 
HETATM    2  C4  UNL     1      22.856   5.253  47.482  1.00  0.00     0.063 C 
HETATM    3  C5  UNL     1      22.580   6.513  48.160  1.00  0.00     0.094 A 
HETATM    4  C6  UNL     1      22.116   7.852  48.237  1.00  0.00     0.099 A 
HETATM    5  C8  UNL     1      21.957   8.309  49.589  1.00  0.00     0.088 A 
HETATM    6  C9  UNL     1      22.337   7.213  50.391  1.00  0.00     0.128 A 
HETATM    7  N2  UNL     1      22.659   6.352  49.481  1.00  0.00    -0.125 N 
HETATM    8  N6  UNL     1      22.292   6.592  51.672  1.00  0.00    -0.375 N 
HETATM    9  C19 UNL     1      21.681   5.255  51.532  1.00  0.00     0.123 C 
HETATM   10  C20 UNL     1      20.716   4.987  50.477  1.00  0.00     0.062 C 
HETATM   11  C21 UNL     1      20.780   5.134  49.053  1.00  0.00     0.275 C 
HETATM   12  H18 UNL     1      22.723   7.390  52.149  1.00  0.00     0.161 HD
ENDROOT
BRANCH   7  13
HETATM   13  C10 UNL     1      23.732   5.389  49.866  1.00  0.00     0.752 A 
HETATM   14  N3  UNL     1      24.984   5.471  49.320  1.00  0.00    -0.071 NA
HETATM   15  C11 UNL     1      25.991   4.651  49.532  1.00  0.00     0.168 A 
HETATM   16  C12 UNL     1      25.815   3.592  50.379  1.00  0.00     0.077 A 
HETATM   17  C13 UNL     1      26.580   2.568  50.829  1.00  0.00     0.035 A 
HETATM   18  N4  UNL     1      24.607   3.483  50.928  1.00  0.00    -0.221 N 
HETATM   19  C14 UNL     1      25.801   1.816  51.680  1.00  0.00     0.030 A 
HETATM   20  C15 UNL     1      24.533   2.410  51.739  1.00  0.00     0.041 A 
HETATM   21  N5  UNL     1      23.673   4.339  50.662  1.00  0.00     0.027 NA
BRANCH  20  22
HETATM   22  C16 UNL     1      23.470   1.811  52.584  1.00  0.00     0.038 A 
HETATM   23  C17 UNL     1      22.585   0.731  51.927  1.00  0.00     0.011 A 
HETATM   24  C18 UNL     1      23.599   0.350  52.942  1.00  0.00     0.011 A 
ENDBRANCH  20  22
ENDBRANCH   7  13
BRANCH   4  25
HETATM   25  O2  UNL     1      21.934   8.371  46.973  1.00  0.00    -0.353 OA
HETATM   26  C7  UNL     1      23.053   8.824  46.249  1.00  0.00     0.210 C 
ENDBRANCH   4  25
BRANCH   1  27
HETATM   27  N1  UNL     1      22.048   3.368  47.449  1.00  0.00    -0.239 N 
BRANCH  27  28
HETATM   28  C2  UNL     1      22.453   2.088  47.889  1.00  0.00     0.113 C 
HETATM   29  C1  UNL     1      21.501   1.421  48.492  1.00  0.00     0.032 C 
ENDBRANCH  27  28
BRANCH  27  30
HETATM   30  O1  UNL     1      21.977   3.181  46.088  1.00  0.00    -0.283 OA
HETATM   31  H4  UNL     1      22.428   3.961  45.672  1.00  0.00     0.245 HD
ENDBRANCH  27  30
ENDBRANCH   1  27
BRANCH  11  32
HETATM   32  N7  UNL     1      19.484   4.447  48.566  1.00  0.00     0.090 N 
HETATM   33  C22 UNL     1      18.513   4.485  49.623  1.00  0.00     0.310 C 
HETATM   34  C23 UNL     1      18.974   5.286  47.485  1.00  0.00     0.310 C 
ENDBRANCH  11  32
TORSDOF 7
ENDMDL
MODEL 9
REMARK VINA RESULT:      -6.7      1.931      4.199
REMARK  7 active torsions:
REMARK  status: ('A' for Active; 'I' for Inactive)
REMARK    1  A    between atoms: C2_2  and  N1_3 
REMARK    2  A    between atoms: N1_3  and  O1_4 
REMARK    3  A    between atoms: N1_3  and  C3_5 
REMARK    4  A    between atoms: C6_8  and  O2_9 
REMARK    5  A    between atoms: N2_13  and  C10_14 
REMARK    6  A    between atoms: C15_20  and  C16_21 
REMARK    7  A    between atoms: C21_29  and  N7_30 
ROOT
HETATM    1  C3  UNL     1      22.229   4.991  50.503  1.00  0.00     0.075 C 
HETATM    2  C4  UNL     1      21.565   4.577  51.688  1.00  0.00     0.063 C 
HETATM    3  C5  UNL     1      20.572   3.796  50.961  1.00  0.00     0.094 A 
HETATM    4  C6  UNL     1      19.278   3.536  50.438  1.00  0.00     0.099 A 
HETATM    5  C8  UNL     1      19.274   2.478  49.467  1.00  0.00     0.088 A 
HETATM    6  C9  UNL     1      20.617   2.059  49.378  1.00  0.00     0.128 A 
HETATM    7  N2  UNL     1      21.168   2.841  50.248  1.00  0.00    -0.125 N 
HETATM    8  N6  UNL     1      21.611   1.369  48.626  1.00  0.00    -0.375 N 
HETATM    9  C19 UNL     1      22.716   2.301  48.330  1.00  0.00     0.123 C 
HETATM   10  C20 UNL     1      22.471   3.730  48.212  1.00  0.00     0.062 C 
HETATM   11  C21 UNL     1      21.874   4.681  49.103  1.00  0.00     0.275 C 
HETATM   12  H18 UNL     1      21.090   0.487  48.621  1.00  0.00     0.161 HD
ENDROOT
BRANCH   7  13
HETATM   13  C10 UNL     1      22.358   2.275  50.951  1.00  0.00     0.752 A 
HETATM   14  N3  UNL     1      23.622   2.708  50.661  1.00  0.00    -0.071 NA
HETATM   15  C11 UNL     1      24.747   2.249  51.164  1.00  0.00     0.168 A 
HETATM   16  C12 UNL     1      24.697   1.232  52.077  1.00  0.00     0.077 A 
HETATM   17  C13 UNL     1      25.602   0.517  52.788  1.00  0.00     0.035 A 
HETATM   18  N4  UNL     1      23.480   0.786  52.383  1.00  0.00    -0.221 N 
HETATM   19  C14 UNL     1      24.901  -0.394  53.548  1.00  0.00     0.030 A 
HETATM   20  C15 UNL     1      23.537  -0.214  53.283  1.00  0.00     0.041 A 
HETATM   21  N5  UNL     1      22.425   1.299  51.836  1.00  0.00     0.027 NA
BRANCH  20  22
HETATM   22  C16 UNL     1      22.529  -1.066  53.962  1.00  0.00     0.038 A 
HETATM   23  C17 UNL     1      21.512  -0.348  54.875  1.00  0.00     0.011 A 
HETATM   24  C18 UNL     1      21.082  -0.893  53.562  1.00  0.00     0.011 A 
ENDBRANCH  20  22
ENDBRANCH   7  13
BRANCH   4  25
HETATM   25  O2  UNL     1      18.351   4.381  51.008  1.00  0.00    -0.353 OA
HETATM   26  C7  UNL     1      17.104   3.865  51.407  1.00  0.00     0.210 C 
ENDBRANCH   4  25
BRANCH   1  27
HETATM   27  N1  UNL     1      23.186   5.740  51.214  1.00  0.00    -0.239 N 
BRANCH  27  28
HETATM   28  C2  UNL     1      23.848   6.964  50.971  1.00  0.00     0.113 C 
HETATM   29  C1  UNL     1      25.054   6.814  50.481  1.00  0.00     0.032 C 
ENDBRANCH  27  28
BRANCH  27  30
HETATM   30  O1  UNL     1      23.729   5.370  52.423  1.00  0.00    -0.283 OA
HETATM   31  H4  UNL     1      23.226   4.570  52.725  1.00  0.00     0.245 HD
ENDBRANCH  27  30
ENDBRANCH   1  27
BRANCH  11  32
HETATM   32  N7  UNL     1      22.155   6.037  48.415  1.00  0.00     0.090 N 
HETATM   33  C22 UNL     1      22.539   5.796  47.052  1.00  0.00     0.310 C 
HETATM   34  C23 UNL     1      20.874   6.737  48.382  1.00  0.00     0.310 C 
ENDBRANCH  11  32
TORSDOF 7
ENDMDL
