MODEL 1
REMARK VINA RESULT:      -6.8      0.000      0.000
REMARK  6 active torsions:
REMARK  status: ('A' for Active; 'I' for Inactive)
REMARK    1  A    between atoms: C8_12  and  O3_13 
REMARK    2  A    between atoms: O3_13  and  C9_14 
REMARK    3  A    between atoms: C9_14  and  C10_15 
REMARK    4  A    between atoms: C10_15  and  O4_16 
REMARK    5  A    between atoms: C12_18  and  N2_19 
REMARK    6  A    between atoms: N2_19  and  C13_20 
ROOT
HETATM    1  C1  UNL     1      18.618  -0.217  52.025  1.00  0.00     0.006 C 
HETATM    2  S1  UNL     1      19.628   0.508  52.386  1.00  0.00    -0.085 SA
HETATM    3  C2  UNL     1      20.822   1.386  52.823  1.00  0.00     0.185 C 
HETATM    4  C3  UNL     1      20.899   2.697  52.140  1.00  0.00     0.143 C 
HETATM    5  N1  UNL     1      20.597   3.950  51.815  1.00  0.00    -0.269 NA
HETATM    6  C4  UNL     1      21.780   4.867  51.914  1.00  0.00     0.195 C 
HETATM    7  C5  UNL     1      22.981   3.932  51.937  1.00  0.00     0.029 C 
HETATM    8  C6  UNL     1      23.916   3.898  52.918  1.00  0.00     0.150 C 
HETATM    9  O1  UNL     1      24.960   2.912  52.735  1.00  0.00    -0.337 OA
HETATM   10  C7  UNL     1      24.315   1.586  52.472  1.00  0.00     0.347 C 
HETATM   11  O2  UNL     1      23.108   1.662  53.068  1.00  0.00    -0.335 OA
HETATM   12  C8  UNL     1      22.157   0.717  53.003  1.00  0.00     0.284 C 
HETATM   13  C12 UNL     1      22.591   3.314  50.617  1.00  0.00     0.140 C 
HETATM   14  N3  UNL     1      22.048   2.480  51.378  1.00  0.00    -0.214 NA
ENDROOT
BRANCH  12  15
HETATM   15  O3  UNL     1      22.090   0.052  54.291  1.00  0.00    -0.357 OA
BRANCH  15  16
HETATM   16  C9  UNL     1      22.895  -1.104  54.202  1.00  0.00     0.197 C 
BRANCH  16  17
HETATM   17  C10 UNL     1      23.839  -1.052  55.367  1.00  0.00     0.193 C 
BRANCH  17  18
HETATM   18  O4  UNL     1      25.151  -1.321  55.040  1.00  0.00    -0.394 OA
HETATM   19  C11 UNL     1      25.957  -0.210  55.132  1.00  0.00     0.201 C 
ENDBRANCH  17  18
ENDBRANCH  16  17
ENDBRANCH  15  16
ENDBRANCH  12  15
BRANCH  13  20
HETATM   20  N2  UNL     1      22.856   3.706  49.286  1.00  0.00    -0.340 N 
HETATM   21  H16 UNL     1      21.956   3.687  48.769  1.00  0.00     0.167 HD
BRANCH  20  22
HETATM   22  C13 UNL     1      24.257   3.950  49.279  1.00  0.00     0.033 A 
HETATM   23  C14 UNL     1      24.550   5.289  49.017  1.00  0.00     0.029 A 
HETATM   24  C15 UNL     1      25.826   5.764  48.958  1.00  0.00     0.002 A 
HETATM   25  C16 UNL     1      26.828   4.828  49.176  1.00  0.00     0.000 A 
HETATM   26  C17 UNL     1      26.528   3.512  49.433  1.00  0.00     0.002 A 
HETATM   27  C18 UNL     1      25.247   3.017  49.497  1.00  0.00     0.029 A 
ENDBRANCH  20  22
ENDBRANCH  13  20
TORSDOF 6
ENDMDL
MODEL 2
REMARK VINA RESULT:      -6.8      9.246     11.639
REMARK  6 active torsions:
REMARK  status: ('A' for Active; 'I' for Inactive)
REMARK    1  A    between atoms: C8_12  and  O3_13 
REMARK    2  A    between atoms: O3_13  and  C9_14 
REMARK    3  A    between atoms: C9_14  and  C10_15 
REMARK    4  A    between atoms: C10_15  and  O4_16 
REMARK    5  A    between atoms: C12_18  and  N2_19 
REMARK    6  A    between atoms: N2_19  and  C13_20 
ROOT
HETATM    1  C1  UNL     1      30.343  10.794  44.733  1.00  0.00     0.006 C 
HETATM    2  S1  UNL     1      30.536  10.027  45.757  1.00  0.00    -0.085 SA
HETATM    3  C2  UNL     1      30.775   9.123  46.988  1.00  0.00     0.185 C 
HETATM    4  C3  UNL     1      32.195   8.788  47.234  1.00  0.00     0.143 C 
HETATM    5  N1  UNL     1      33.467   8.946  47.587  1.00  0.00    -0.269 NA
HETATM    6  C4  UNL     1      33.915   7.915  48.581  1.00  0.00     0.195 C 
HETATM    7  C5  UNL     1      32.864   6.818  48.486  1.00  0.00     0.029 C 
HETATM    8  C6  UNL     1      32.125   6.363  49.527  1.00  0.00     0.150 C 
HETATM    9  O1  UNL     1      31.172   5.325  49.194  1.00  0.00    -0.337 OA
HETATM   10  C7  UNL     1      30.352   5.792  48.032  1.00  0.00     0.347 C 
HETATM   11  O2  UNL     1      30.373   7.138  48.111  1.00  0.00    -0.335 OA
HETATM   12  C8  UNL     1      29.834   7.970  47.206  1.00  0.00     0.284 C 
HETATM   13  C12 UNL     1      33.119   6.629  47.011  1.00  0.00     0.140 C 
HETATM   14  N3  UNL     1      32.155   7.427  46.931  1.00  0.00    -0.214 NA
ENDROOT
BRANCH  12  15
HETATM   15  O3  UNL     1      28.634   8.549  47.783  1.00  0.00    -0.357 OA
BRANCH  15  16
HETATM   16  C9  UNL     1      28.969   8.980  49.085  1.00  0.00     0.197 C 
BRANCH  16  17
HETATM   17  C10 UNL     1      28.007  10.081  49.425  1.00  0.00     0.193 C 
BRANCH  17  18
HETATM   18  O4  UNL     1      27.125   9.765  50.437  1.00  0.00    -0.394 OA
HETATM   19  C11 UNL     1      25.980   9.161  49.968  1.00  0.00     0.201 C 
ENDBRANCH  17  18
ENDBRANCH  16  17
ENDBRANCH  15  16
ENDBRANCH  12  15
BRANCH  13  20
HETATM   20  N2  UNL     1      34.071   5.850  46.317  1.00  0.00    -0.340 N 
HETATM   21  H16 UNL     1      34.625   6.491  45.718  1.00  0.00     0.167 HD
BRANCH  20  22
HETATM   22  C13 UNL     1      33.820   4.527  46.775  1.00  0.00     0.033 A 
HETATM   23  C14 UNL     1      32.678   3.982  46.188  1.00  0.00     0.029 A 
HETATM   24  C15 UNL     1      32.234   2.725  46.471  1.00  0.00     0.002 A 
HETATM   25  C16 UNL     1      32.994   2.010  47.388  1.00  0.00     0.000 A 
HETATM   26  C17 UNL     1      34.117   2.557  47.960  1.00  0.00     0.002 A 
HETATM   27  C18 UNL     1      34.578   3.823  47.685  1.00  0.00     0.029 A 
ENDBRANCH  20  22
ENDBRANCH  13  20
TORSDOF 6
ENDMDL
MODEL 3
REMARK VINA RESULT:      -6.7      1.889      2.523
REMARK  6 active torsions:
REMARK  status: ('A' for Active; 'I' for Inactive)
REMARK    1  A    between atoms: C8_12  and  O3_13 
REMARK    2  A    between atoms: O3_13  and  C9_14 
REMARK    3  A    between atoms: C9_14  and  C10_15 
REMARK    4  A    between atoms: C10_15  and  O4_16 
REMARK    5  A    between atoms: C12_18  and  N2_19 
REMARK    6  A    between atoms: N2_19  and  C13_20 
ROOT
HETATM    1  C1  UNL     1      18.214   2.458  51.123  1.00  0.00     0.006 C 
HETATM    2  S1  UNL     1      19.351   2.486  51.739  1.00  0.00    -0.085 SA
HETATM    3  C2  UNL     1      20.706   2.537  52.480  1.00  0.00     0.185 C 
HETATM    4  C3  UNL     1      21.622   3.599  52.008  1.00  0.00     0.143 C 
HETATM    5  N1  UNL     1      22.122   4.816  51.816  1.00  0.00    -0.269 NA
HETATM    6  C4  UNL     1      23.560   4.914  52.231  1.00  0.00     0.195 C 
HETATM    7  C5  UNL     1      24.028   3.468  52.317  1.00  0.00     0.029 C 
HETATM    8  C6  UNL     1      24.563   2.893  53.421  1.00  0.00     0.150 C 
HETATM    9  O1  UNL     1      24.919   1.497  53.273  1.00  0.00    -0.337 OA
HETATM   10  C7  UNL     1      23.732   0.764  52.727  1.00  0.00     0.347 C 
HETATM   11  O2  UNL     1      22.665   1.484  53.127  1.00  0.00    -0.335 OA
HETATM   12  C8  UNL     1      21.393   1.232  52.778  1.00  0.00     0.284 C 
HETATM   13  C12 UNL     1      23.655   3.207  50.878  1.00  0.00     0.140 C 
HETATM   14  N3  UNL     1      22.601   2.798  51.418  1.00  0.00    -0.214 NA
ENDROOT
BRANCH  12  15
HETATM   15  O3  UNL     1      20.707   0.685  53.933  1.00  0.00    -0.357 OA
BRANCH  15  16
HETATM   16  C9  UNL     1      20.257  -0.604  53.574  1.00  0.00     0.197 C 
BRANCH  16  17
HETATM   17  C10 UNL     1      21.218  -1.574  54.196  1.00  0.00     0.193 C 
BRANCH  17  18
HETATM   18  O4  UNL     1      21.800  -1.121  55.361  1.00  0.00    -0.394 OA
HETATM   19  C11 UNL     1      23.126  -1.473  55.460  1.00  0.00     0.201 C 
ENDBRANCH  17  18
ENDBRANCH  16  17
ENDBRANCH  15  16
ENDBRANCH  12  15
BRANCH  13  20
HETATM   20  N2  UNL     1      24.364   3.420  49.675  1.00  0.00    -0.340 N 
HETATM   21  H16 UNL     1      25.376   3.409  49.901  1.00  0.00     0.167 HD
BRANCH  20  22
HETATM   22  C13 UNL     1      23.338   3.549  48.699  1.00  0.00     0.033 A 
HETATM   23  C14 UNL     1      23.097   4.884  48.372  1.00  0.00     0.029 A 
HETATM   24  C15 UNL     1      22.157   5.261  47.460  1.00  0.00     0.002 A 
HETATM   25  C16 UNL     1      21.444   4.226  46.868  1.00  0.00     0.000 A 
HETATM   26  C17 UNL     1      21.689   2.915  47.198  1.00  0.00     0.002 A 
HETATM   27  C18 UNL     1      22.634   2.519  48.115  1.00  0.00     0.029 A 
ENDBRANCH  20  22
ENDBRANCH  13  20
TORSDOF 6
ENDMDL
MODEL 4
REMARK VINA RESULT:      -6.6      2.346      3.927
REMARK  6 active torsions:
REMARK  status: ('A' for Active; 'I' for Inactive)
REMARK    1  A    between atoms: C8_12  and  O3_13 
REMARK    2  A    between atoms: O3_13  and  C9_14 
REMARK    3  A    between atoms: C9_14  and  C10_15 
REMARK    4  A    between atoms: C10_15  and  O4_16 
REMARK    5  A    between atoms: C12_18  and  N2_19 
REMARK    6  A    between atoms: N2_19  and  C13_20 
ROOT
HETATM    1  C1  UNL     1      27.143   2.466  51.953  1.00  0.00     0.006 C 
HETATM    2  S1  UNL     1      26.009   1.843  51.929  1.00  0.00    -0.085 SA
HETATM    3  C2  UNL     1      24.657   1.097  51.881  1.00  0.00     0.185 C 
HETATM    4  C3  UNL     1      23.614   1.772  51.077  1.00  0.00     0.143 C 
HETATM    5  N1  UNL     1      22.963   2.220  50.008  1.00  0.00    -0.269 NA
HETATM    6  C4  UNL     1      21.523   1.801  49.999  1.00  0.00     0.195 C 
HETATM    7  C5  UNL     1      21.243   1.379  51.435  1.00  0.00     0.029 C 
HETATM    8  C6  UNL     1      20.783   0.161  51.808  1.00  0.00     0.150 C 
HETATM    9  O1  UNL     1      20.609  -0.019  53.234  1.00  0.00    -0.337 OA
HETATM   10  C7  UNL     1      21.881   0.379  53.917  1.00  0.00     0.347 C 
HETATM   11  O2  UNL     1      22.847   0.179  52.997  1.00  0.00    -0.335 OA
HETATM   12  C8  UNL     1      24.141   0.496  53.160  1.00  0.00     0.284 C 
HETATM   13  C12 UNL     1      21.651   2.732  51.966  1.00  0.00     0.140 C 
HETATM   14  N3  UNL     1      22.748   2.141  52.107  1.00  0.00    -0.214 NA
ENDROOT
BRANCH  12  15
HETATM   15  O3  UNL     1      24.888  -0.735  53.341  1.00  0.00    -0.357 OA
BRANCH  15  16
HETATM   16  C9  UNL     1      25.145  -0.863  54.724  1.00  0.00     0.197 C 
BRANCH  16  17
HETATM   17  C10 UNL     1      26.303   0.043  55.023  1.00  0.00     0.193 C 
BRANCH  17  18
HETATM   18  O4  UNL     1      27.535  -0.569  54.924  1.00  0.00    -0.394 OA
HETATM   19  C11 UNL     1      28.562   0.334  54.770  1.00  0.00     0.201 C 
ENDBRANCH  17  18
ENDBRANCH  16  17
ENDBRANCH  15  16
ENDBRANCH  12  15
BRANCH  13  20
HETATM   20  N2  UNL     1      20.925   3.933  52.122  1.00  0.00    -0.340 N 
HETATM   21  H16 UNL     1      19.981   3.686  52.476  1.00  0.00     0.167 HD
BRANCH  20  22
HETATM   22  C13 UNL     1      21.845   4.938  51.714  1.00  0.00     0.033 A 
HETATM   23  C14 UNL     1      21.323   5.739  50.699  1.00  0.00     0.029 A 
HETATM   24  C15 UNL     1      22.020   6.770  50.143  1.00  0.00     0.002 A 
HETATM   25  C16 UNL     1      23.295   6.978  50.652  1.00  0.00     0.000 A 
HETATM   26  C17 UNL     1      23.800   6.182  51.652  1.00  0.00     0.002 A 
HETATM   27  C18 UNL     1      23.109   5.139  52.224  1.00  0.00     0.029 A 
ENDBRANCH  20  22
ENDBRANCH  13  20
TORSDOF 6
ENDMDL
MODEL 5
REMARK VINA RESULT:      -6.6      2.927      5.239
REMARK  6 active torsions:
REMARK  status: ('A' for Active; 'I' for Inactive)
REMARK    1  A    between atoms: C8_12  and  O3_13 
REMARK    2  A    between atoms: O3_13  and  C9_14 
REMARK    3  A    between atoms: C9_14  and  C10_15 
REMARK    4  A    between atoms: C10_15  and  O4_16 
REMARK    5  A    between atoms: C12_18  and  N2_19 
REMARK    6  A    between atoms: N2_19  and  C13_20 
ROOT
HETATM    1  C1  UNL     1      20.579   0.139  53.814  1.00  0.00     0.006 C 
HETATM    2  S1  UNL     1      20.714   1.083  52.940  1.00  0.00    -0.085 SA
HETATM    3  C2  UNL     1      20.873   2.199  51.882  1.00  0.00     0.185 C 
HETATM    4  C3  UNL     1      22.085   2.076  51.042  1.00  0.00     0.143 C 
HETATM    5  N1  UNL     1      22.910   1.609  50.110  1.00  0.00    -0.269 NA
HETATM    6  C4  UNL     1      23.384   2.684  49.177  1.00  0.00     0.195 C 
HETATM    7  C5  UNL     1      23.077   3.982  49.910  1.00  0.00     0.029 C 
HETATM    8  C6  UNL     1      22.309   4.985  49.419  1.00  0.00     0.150 C 
HETATM    9  O1  UNL     1      22.141   6.118  50.305  1.00  0.00    -0.337 OA
HETATM   10  C7  UNL     1      21.688   5.611  51.639  1.00  0.00     0.347 C 
HETATM   11  O2  UNL     1      21.054   4.451  51.373  1.00  0.00    -0.335 OA
HETATM   12  C8  UNL     1      20.566   3.611  52.299  1.00  0.00     0.284 C 
HETATM   13  C12 UNL     1      23.910   3.569  51.099  1.00  0.00     0.140 C 
HETATM   14  N3  UNL     1      22.793   3.182  51.514  1.00  0.00    -0.214 NA
ENDROOT
BRANCH  12  15
HETATM   15  O3  UNL     1      19.118   3.715  52.286  1.00  0.00    -0.357 OA
BRANCH  15  16
HETATM   16  C9  UNL     1      18.716   3.706  50.933  1.00  0.00     0.197 C 
BRANCH  16  17
HETATM   17  C10 UNL     1      17.302   4.208  50.910  1.00  0.00     0.193 C 
BRANCH  17  18
HETATM   18  O4  UNL     1      16.736   4.351  52.160  1.00  0.00    -0.394 OA
HETATM   19  C11 UNL     1      15.549   3.667  52.282  1.00  0.00     0.201 C 
ENDBRANCH  17  18
ENDBRANCH  16  17
ENDBRANCH  15  16
ENDBRANCH  12  15
BRANCH  13  20
HETATM   20  N2  UNL     1      25.293   3.688  51.359  1.00  0.00    -0.340 N 
HETATM   21  H16 UNL     1      25.620   4.571  50.923  1.00  0.00     0.167 HD
BRANCH  20  22
HETATM   22  C13 UNL     1      25.595   2.520  52.113  1.00  0.00     0.033 A 
HETATM   23  C14 UNL     1      26.289   1.577  51.353  1.00  0.00     0.029 A 
HETATM   24  C15 UNL     1      26.687   0.376  51.858  1.00  0.00     0.002 A 
HETATM   25  C16 UNL     1      26.359   0.142  53.187  1.00  0.00     0.000 A 
HETATM   26  C17 UNL     1      25.675   1.078  53.925  1.00  0.00     0.002 A 
HETATM   27  C18 UNL     1      25.267   2.295  53.431  1.00  0.00     0.029 A 
ENDBRANCH  20  22
ENDBRANCH  13  20
TORSDOF 6
ENDMDL
MODEL 6
REMARK VINA RESULT:      -6.5      3.767      7.364
REMARK  6 active torsions:
REMARK  status: ('A' for Active; 'I' for Inactive)
REMARK    1  A    between atoms: C8_12  and  O3_13 
REMARK    2  A    between atoms: O3_13  and  C9_14 
REMARK    3  A    between atoms: C9_14  and  C10_15 
REMARK    4  A    between atoms: C10_15  and  O4_16 
REMARK    5  A    between atoms: C12_18  and  N2_19 
REMARK    6  A    between atoms: N2_19  and  C13_20 
ROOT
HETATM    1  C1  UNL     1      27.394   9.436  50.346  1.00  0.00     0.006 C 
HETATM    2  S1  UNL     1      26.698   8.453  49.872  1.00  0.00    -0.085 SA
HETATM    3  C2  UNL     1      25.857   7.291  49.297  1.00  0.00     0.185 C 
HETATM    4  C3  UNL     1      24.454   7.262  49.767  1.00  0.00     0.143 C 
HETATM    5  N1  UNL     1      23.177   7.611  49.894  1.00  0.00    -0.269 NA
HETATM    6  C4  UNL     1      22.245   6.462  49.647  1.00  0.00     0.195 C 
HETATM    7  C5  UNL     1      23.128   5.227  49.765  1.00  0.00     0.029 C 
HETATM    8  C6  UNL     1      23.281   4.291  48.797  1.00  0.00     0.150 C 
HETATM    9  O1  UNL     1      24.188   3.212  49.127  1.00  0.00    -0.337 OA
HETATM   10  C7  UNL     1      25.479   3.808  49.597  1.00  0.00     0.347 C 
HETATM   11  O2  UNL     1      25.541   5.016  49.001  1.00  0.00    -0.335 OA
HETATM   12  C8  UNL     1      26.498   5.933  49.218  1.00  0.00     0.284 C 
HETATM   13  C12 UNL     1      23.546   5.595  51.167  1.00  0.00     0.140 C 
HETATM   14  N3  UNL     1      24.508   6.108  50.548  1.00  0.00    -0.214 NA
ENDROOT
BRANCH  12  15
HETATM   15  O3  UNL     1      27.357   5.974  48.049  1.00  0.00    -0.357 OA
BRANCH  15  16
HETATM   16  C9  UNL     1      28.536   5.271  48.378  1.00  0.00     0.197 C 
BRANCH  16  17
HETATM   17  C10 UNL     1      29.678   6.095  47.858  1.00  0.00     0.193 C 
BRANCH  17  18
HETATM   18  O4  UNL     1      29.863   7.285  48.529  1.00  0.00    -0.394 OA
HETATM   19  C11 UNL     1      29.974   8.359  47.677  1.00  0.00     0.201 C 
ENDBRANCH  17  18
ENDBRANCH  16  17
ENDBRANCH  15  16
ENDBRANCH  12  15
BRANCH  13  20
HETATM   20  N2  UNL     1      22.941   5.347  52.419  1.00  0.00    -0.340 N 
HETATM   21  H16 UNL     1      22.768   6.264  52.872  1.00  0.00     0.167 HD
BRANCH  20  22
HETATM   22  C13 UNL     1      22.851   3.928  52.473  1.00  0.00     0.033 A 
HETATM   23  C14 UNL     1      24.049   3.348  52.892  1.00  0.00     0.029 A 
HETATM   24  C15 UNL     1      24.207   2.000  53.021  1.00  0.00     0.002 A 
HETATM   25  C16 UNL     1      23.094   1.230  52.707  1.00  0.00     0.000 A 
HETATM   26  C17 UNL     1      21.920   1.813  52.295  1.00  0.00     0.002 A 
HETATM   27  C18 UNL     1      21.744   3.170  52.161  1.00  0.00     0.029 A 
ENDBRANCH  20  22
ENDBRANCH  13  20
TORSDOF 6
ENDMDL
MODEL 7
REMARK VINA RESULT:      -6.5      2.502      4.285
REMARK  6 active torsions:
REMARK  status: ('A' for Active; 'I' for Inactive)
REMARK    1  A    between atoms: C8_12  and  O3_13 
REMARK    2  A    between atoms: O3_13  and  C9_14 
REMARK    3  A    between atoms: C9_14  and  C10_15 
REMARK    4  A    between atoms: C10_15  and  O4_16 
REMARK    5  A    between atoms: C12_18  and  N2_19 
REMARK    6  A    between atoms: N2_19  and  C13_20 
ROOT
HETATM    1  C1  UNL     1      26.569   0.812  54.658  1.00  0.00     0.006 C 
HETATM    2  S1  UNL     1      25.925   1.057  53.562  1.00  0.00    -0.085 SA
HETATM    3  C2  UNL     1      25.170   1.343  52.245  1.00  0.00     0.185 C 
HETATM    4  C3  UNL     1      25.831   2.332  51.363  1.00  0.00     0.143 C 
HETATM    5  N1  UNL     1      26.715   2.846  50.515  1.00  0.00    -0.269 NA
HETATM    6  C4  UNL     1      26.064   3.440  49.302  1.00  0.00     0.195 C 
HETATM    7  C5  UNL     1      24.605   3.610  49.701  1.00  0.00     0.029 C 
HETATM    8  C6  UNL     1      23.553   3.072  49.037  1.00  0.00     0.150 C 
HETATM    9  O1  UNL     1      22.255   3.353  49.614  1.00  0.00    -0.337 OA
HETATM   10  C7  UNL     1      22.297   2.994  51.067  1.00  0.00     0.347 C 
HETATM   11  O2  UNL     1      23.244   2.039  51.162  1.00  0.00    -0.335 OA
HETATM   12  C8  UNL     1      23.675   1.494  52.311  1.00  0.00     0.284 C 
HETATM   13  C12 UNL     1      24.974   4.476  50.880  1.00  0.00     0.140 C 
HETATM   14  N3  UNL     1      24.910   3.374  51.475  1.00  0.00    -0.214 NA
ENDROOT
BRANCH  12  15
HETATM   15  O3  UNL     1      23.150   0.144  52.395  1.00  0.00    -0.357 OA
BRANCH  15  16
HETATM   16  C9  UNL     1      22.211   0.130  53.449  1.00  0.00     0.197 C 
BRANCH  16  17
HETATM   17  C10 UNL     1      22.743  -0.828  54.475  1.00  0.00     0.193 C 
BRANCH  17  18
HETATM   18  O4  UNL     1      21.805  -1.722  54.948  1.00  0.00    -0.394 OA
HETATM   19  C11 UNL     1      20.601  -1.620  54.291  1.00  0.00     0.201 C 
ENDBRANCH  17  18
ENDBRANCH  16  17
ENDBRANCH  15  16
ENDBRANCH  12  15
BRANCH  13  20
HETATM   20  N2  UNL     1      25.218   5.864  50.982  1.00  0.00    -0.340 N 
HETATM   21  H16 UNL     1      26.110   5.988  51.498  1.00  0.00     0.167 HD
BRANCH  20  22
HETATM   22  C13 UNL     1      24.107   6.450  50.316  1.00  0.00     0.033 A 
HETATM   23  C14 UNL     1      22.991   6.541  51.149  1.00  0.00     0.029 A 
HETATM   24  C15 UNL     1      21.804   7.067  50.735  1.00  0.00     0.002 A 
HETATM   25  C16 UNL     1      21.771   7.514  49.420  1.00  0.00     0.000 A 
HETATM   26  C17 UNL     1      22.875   7.420  48.608  1.00  0.00     0.002 A 
HETATM   27  C18 UNL     1      24.080   6.892  49.012  1.00  0.00     0.029 A 
ENDBRANCH  20  22
ENDBRANCH  13  20
TORSDOF 6
ENDMDL
MODEL 8
REMARK VINA RESULT:      -6.4      2.571      4.814
REMARK  6 active torsions:
REMARK  status: ('A' for Active; 'I' for Inactive)
REMARK    1  A    between atoms: C8_12  and  O3_13 
REMARK    2  A    between atoms: O3_13  and  C9_14 
REMARK    3  A    between atoms: C9_14  and  C10_15 
REMARK    4  A    between atoms: C10_15  and  O4_16 
REMARK    5  A    between atoms: C12_18  and  N2_19 
REMARK    6  A    between atoms: N2_19  and  C13_20 
ROOT
HETATM    1  C1  UNL     1      24.798  -0.421  53.970  1.00  0.00     0.006 C 
HETATM    2  S1  UNL     1      25.119   0.673  53.358  1.00  0.00    -0.085 SA
HETATM    3  C2  UNL     1      25.499   1.989  52.641  1.00  0.00     0.185 C 
HETATM    4  C3  UNL     1      24.370   2.926  52.444  1.00  0.00     0.143 C 
HETATM    5  N1  UNL     1      23.424   3.811  52.737  1.00  0.00    -0.269 NA
HETATM    6  C4  UNL     1      23.506   5.039  51.879  1.00  0.00     0.195 C 
HETATM    7  C5  UNL     1      24.381   4.622  50.706  1.00  0.00     0.029 C 
HETATM    8  C6  UNL     1      25.529   5.242  50.339  1.00  0.00     0.150 C 
HETATM    9  O1  UNL     1      26.205   4.656  49.200  1.00  0.00    -0.337 OA
HETATM   10  C7  UNL     1      26.367   3.189  49.452  1.00  0.00     0.347 C 
HETATM   11  O2  UNL     1      26.388   3.068  50.795  1.00  0.00    -0.335 OA
HETATM   12  C8  UNL     1      26.428   1.903  51.462  1.00  0.00     0.284 C 
HETATM   13  C12 UNL     1      23.451   3.490  50.347  1.00  0.00     0.140 C 
HETATM   14  N3  UNL     1      24.259   2.845  51.056  1.00  0.00    -0.214 NA
ENDROOT
BRANCH  12  15
HETATM   15  O3  UNL     1      27.758   1.749  52.023  1.00  0.00    -0.357 OA
BRANCH  15  16
HETATM   16  C9  UNL     1      27.809   2.545  53.188  1.00  0.00     0.197 C 
BRANCH  16  17
HETATM   17  C10 UNL     1      29.023   2.099  53.950  1.00  0.00     0.193 C 
BRANCH  17  18
HETATM   18  O4  UNL     1      28.737   1.381  55.093  1.00  0.00    -0.394 OA
HETATM   19  C11 UNL     1      28.599   0.034  54.848  1.00  0.00     0.201 C 
ENDBRANCH  17  18
ENDBRANCH  16  17
ENDBRANCH  15  16
ENDBRANCH  12  15
BRANCH  13  20
HETATM   20  N2  UNL     1      22.282   3.455  49.554  1.00  0.00    -0.340 N 
HETATM   21  H16 UNL     1      22.452   4.046  48.719  1.00  0.00     0.167 HD
BRANCH  20  22
HETATM   22  C13 UNL     1      21.404   2.609  50.287  1.00  0.00     0.033 A 
HETATM   23  C14 UNL     1      21.696   1.260  50.085  1.00  0.00     0.029 A 
HETATM   24  C15 UNL     1      20.990   0.257  50.680  1.00  0.00     0.002 A 
HETATM   25  C16 UNL     1      19.952   0.662  51.509  1.00  0.00     0.000 A 
HETATM   26  C17 UNL     1      19.674   1.994  51.701  1.00  0.00     0.002 A 
HETATM   27  C18 UNL     1      20.377   3.017  51.108  1.00  0.00     0.029 A 
ENDBRANCH  20  22
ENDBRANCH  13  20
TORSDOF 6
ENDMDL
MODEL 9
REMARK VINA RESULT:      -6.3      2.351      3.349
REMARK  6 active torsions:
REMARK  status: ('A' for Active; 'I' for Inactive)
REMARK    1  A    between atoms: C8_12  and  O3_13 
REMARK    2  A    between atoms: O3_13  and  C9_14 
REMARK    3  A    between atoms: C9_14  and  C10_15 
REMARK    4  A    between atoms: C10_15  and  O4_16 
REMARK    5  A    between atoms: C12_18  and  N2_19 
REMARK    6  A    between atoms: N2_19  and  C13_20 
ROOT
HETATM    1  C1  UNL     1      21.847  -1.631  54.369  1.00  0.00     0.006 C 
HETATM    2  S1  UNL     1      22.076  -0.454  53.883  1.00  0.00    -0.085 SA
HETATM    3  C2  UNL     1      22.340   0.959  53.315  1.00  0.00     0.185 C 
HETATM    4  C3  UNL     1      21.138   1.637  52.779  1.00  0.00     0.143 C 
HETATM    5  N1  UNL     1      19.970   2.270  52.765  1.00  0.00    -0.269 NA
HETATM    6  C4  UNL     1      20.020   3.543  51.972  1.00  0.00     0.195 C 
HETATM    7  C5  UNL     1      21.278   3.410  51.125  1.00  0.00     0.029 C 
HETATM    8  C6  UNL     1      22.308   4.291  51.126  1.00  0.00     0.150 C 
HETATM    9  O1  UNL     1      23.410   3.947  50.251  1.00  0.00    -0.337 OA
HETATM   10  C7  UNL     1      23.822   2.538  50.545  1.00  0.00     0.347 C 
HETATM   11  O2  UNL     1      23.468   2.332  51.829  1.00  0.00    -0.335 OA
HETATM   12  C8  UNL     1      23.573   1.161  52.478  1.00  0.00     0.284 C 
HETATM   13  C12 UNL     1      20.785   2.129  50.499  1.00  0.00     0.140 C 
HETATM   14  N3  UNL     1      21.469   1.630  51.423  1.00  0.00    -0.214 NA
ENDROOT
BRANCH  12  15
HETATM   15  O3  UNL     1      24.672   1.264  53.421  1.00  0.00    -0.357 OA
BRANCH  15  16
HETATM   16  C9  UNL     1      25.594   0.247  53.092  1.00  0.00     0.197 C 
BRANCH  16  17
HETATM   17  C10 UNL     1      26.162  -0.243  54.393  1.00  0.00     0.193 C 
BRANCH  17  18
HETATM   18  O4  UNL     1      27.448  -0.731  54.296  1.00  0.00    -0.394 OA
HETATM   19  C11 UNL     1      28.385   0.150  54.787  1.00  0.00     0.201 C 
ENDBRANCH  17  18
ENDBRANCH  16  17
ENDBRANCH  15  16
ENDBRANCH  12  15
BRANCH  13  20
HETATM   20  N2  UNL     1      19.947   1.893  49.386  1.00  0.00    -0.340 N 
HETATM   21  H16 UNL     1      19.220   1.212  49.679  1.00  0.00     0.167 HD
BRANCH  20  22
HETATM   22  C13 UNL     1      20.502   2.715  48.368  1.00  0.00     0.033 A 
HETATM   23  C14 UNL     1      21.656   2.154  47.819  1.00  0.00     0.029 A 
HETATM   24  C15 UNL     1      22.367   2.758  46.825  1.00  0.00     0.002 A 
HETATM   25  C16 UNL     1      21.871   3.979  46.387  1.00  0.00     0.000 A 
HETATM   26  C17 UNL     1      20.734   4.523  46.935  1.00  0.00     0.002 A 
HETATM   27  C18 UNL     1      20.005   3.925  47.937  1.00  0.00     0.029 A 
ENDBRANCH  20  22
ENDBRANCH  13  20
TORSDOF 6
ENDMDL
