MODEL 1
REMARK VINA RESULT:      -8.2      0.000      0.000
REMARK  2 active torsions:
REMARK  status: ('A' for Active; 'I' for Inactive)
REMARK    1  A    between atoms: N2_11  and  C9_12 
REMARK    2  A    between atoms: C10_14  and  O1_15 
ROOT
HETATM    1  C1  UNL     1      25.171  -1.369  52.523  1.00  0.00     0.013 C 
HETATM    2  C2  UNL     1      25.408  -0.482  53.485  1.00  0.00    -0.012 C 
HETATM    3  C3  UNL     1      24.482  -0.350  54.642  1.00  0.00     0.041 C 
HETATM    4  C4  UNL     1      23.302  -1.187  54.381  1.00  0.00     0.012 C 
HETATM    5  C5  UNL     1      22.199  -0.646  53.858  1.00  0.00     0.095 C 
HETATM    6  F1  UNL     1      21.242  -1.648  53.731  1.00  0.00    -0.211 F 
HETATM    7  C6  UNL     1      21.535   0.514  53.243  1.00  0.00     0.125 C 
HETATM    8  C7  UNL     1      22.485   1.588  52.763  1.00  0.00     0.035 C 
HETATM    9  C8  UNL     1      21.847   2.863  52.277  1.00  0.00     0.068 C 
HETATM   10  N1  UNL     1      23.699   1.421  52.731  1.00  0.00    -0.179 NA
HETATM   11  N2  UNL     1      24.871   2.002  52.419  1.00  0.00    -0.245 N 
HETATM   12  C12 UNL     1      26.062   1.904  53.250  1.00  0.00     0.172 C 
HETATM   13  C13 UNL     1      26.510   0.514  53.572  1.00  0.00     0.024 A 
HETATM   14  C14 UNL     1      27.014   0.500  54.987  1.00  0.00    -0.009 A 
HETATM   15  C15 UNL     1      28.285   0.142  55.088  1.00  0.00     0.021 A 
HETATM   16  C16 UNL     1      28.716  -0.106  53.727  1.00  0.00     0.031 A 
HETATM   17 CL1  UNL     1      30.377  -0.613  53.421  1.00  0.00    -0.085 Cl
HETATM   18  C17 UNL     1      27.738   0.094  52.856  1.00  0.00     0.013 A 
ENDROOT
BRANCH  11  19
HETATM   19  C9  UNL     1      24.958   2.800  51.176  1.00  0.00     0.191 A 
HETATM   20  N3  UNL     1      25.974   3.189  50.935  1.00  0.00    -0.198 NA
HETATM   21  C10 UNL     1      26.512   3.910  49.998  1.00  0.00     0.171 A 
HETATM   22  C11 UNL     1      25.591   4.270  49.095  1.00  0.00     0.111 A 
HETATM   23  S1  UNL     1      23.969   3.494  49.722  1.00  0.00    -0.058 SA
BRANCH  21  24
HETATM   24  O1  UNL     1      27.650   4.505  49.477  1.00  0.00    -0.344 OA
HETATM   25  H11 UNL     1      28.334   3.994  48.921  1.00  0.00     0.219 HD
ENDBRANCH  21  24
ENDBRANCH  11  19
TORSDOF 2
ENDMDL
MODEL 2
REMARK VINA RESULT:      -8.0      3.707      5.903
REMARK  2 active torsions:
REMARK  status: ('A' for Active; 'I' for Inactive)
REMARK    1  A    between atoms: N2_11  and  C9_12 
REMARK    2  A    between atoms: C10_14  and  O1_15 
ROOT
HETATM    1  C1  UNL     1      20.751   1.283  54.387  1.00  0.00     0.013 C 
HETATM    2  C2  UNL     1      20.694   0.534  53.290  1.00  0.00    -0.012 C 
HETATM    3  C3  UNL     1      21.150  -0.882  53.311  1.00  0.00     0.041 C 
HETATM    4  C4  UNL     1      21.782  -1.139  54.613  1.00  0.00     0.012 C 
HETATM    5  C5  UNL     1      23.109  -1.053  54.744  1.00  0.00     0.095 C 
HETATM    6  F1  UNL     1      23.436  -1.357  56.062  1.00  0.00    -0.211 F 
HETATM    7  C6  UNL     1      24.409  -0.681  54.166  1.00  0.00     0.125 C 
HETATM    8  C7  UNL     1      24.312   0.182  52.929  1.00  0.00     0.035 C 
HETATM    9  C8  UNL     1      25.608   0.451  52.209  1.00  0.00     0.068 C 
HETATM   10  N1  UNL     1      23.253   0.670  52.552  1.00  0.00    -0.179 NA
HETATM   11  N2  UNL     1      22.680   1.438  51.609  1.00  0.00    -0.245 N 
HETATM   12  C12 UNL     1      21.404   1.126  50.983  1.00  0.00     0.172 C 
HETATM   13  C13 UNL     1      20.257   0.929  51.923  1.00  0.00     0.024 A 
HETATM   14  C14 UNL     1      19.398  -0.182  51.389  1.00  0.00    -0.009 A 
HETATM   15  C15 UNL     1      18.157   0.196  51.124  1.00  0.00     0.021 A 
HETATM   16  C16 UNL     1      18.109   1.603  51.466  1.00  0.00     0.031 A 
HETATM   17 CL1  UNL     1      16.605   2.497  51.255  1.00  0.00    -0.085 Cl
HETATM   18  C17 UNL     1      19.276   2.040  51.919  1.00  0.00     0.013 A 
ENDROOT
BRANCH  11  19
HETATM   19  C9  UNL     1      23.389   2.659  51.163  1.00  0.00     0.191 A 
HETATM   20  N3  UNL     1      23.350   3.514  51.877  1.00  0.00    -0.198 NA
HETATM   21  C10 UNL     1      23.798   4.733  51.916  1.00  0.00     0.171 A 
HETATM   22  C11 UNL     1      24.481   5.019  50.801  1.00  0.00     0.111 A 
HETATM   23  S1  UNL     1      24.402   3.424  49.763  1.00  0.00    -0.058 SA
BRANCH  21  24
HETATM   24  O1  UNL     1      23.900   5.928  52.611  1.00  0.00    -0.344 OA
HETATM   25  H11 UNL     1      23.322   6.739  52.400  1.00  0.00     0.219 HD
ENDBRANCH  21  24
ENDBRANCH  11  19
TORSDOF 2
ENDMDL
MODEL 3
REMARK VINA RESULT:      -7.9      2.933      4.972
REMARK  2 active torsions:
REMARK  status: ('A' for Active; 'I' for Inactive)
REMARK    1  A    between atoms: N2_11  and  C9_12 
REMARK    2  A    between atoms: C10_14  and  O1_15 
ROOT
HETATM    1  C1  UNL     1      22.785   3.499  52.963  1.00  0.00     0.013 C 
HETATM    2  C2  UNL     1      22.986   2.694  51.924  1.00  0.00    -0.012 C 
HETATM    3  C3  UNL     1      22.054   1.568  51.645  1.00  0.00     0.041 C 
HETATM    4  C4  UNL     1      21.112   1.464  52.768  1.00  0.00     0.012 C 
HETATM    5  C5  UNL     1      21.341   0.597  53.758  1.00  0.00     0.095 C 
HETATM    6  F1  UNL     1      20.296   0.695  54.672  1.00  0.00    -0.211 F 
HETATM    7  C6  UNL     1      22.248  -0.363  54.406  1.00  0.00     0.125 C 
HETATM    8  C7  UNL     1      23.680  -0.281  53.928  1.00  0.00     0.035 C 
HETATM    9  C8  UNL     1      24.609  -1.351  54.442  1.00  0.00     0.068 C 
HETATM   10  N1  UNL     1      24.076   0.622  53.200  1.00  0.00    -0.179 NA
HETATM   11  N2  UNL     1      25.150   1.110  52.555  1.00  0.00    -0.245 N 
HETATM   12  C12 UNL     1      25.105   1.622  51.193  1.00  0.00     0.172 C 
HETATM   13  C13 UNL     1      24.107   2.708  50.947  1.00  0.00     0.024 A 
HETATM   14  C14 UNL     1      23.514   2.500  49.582  1.00  0.00    -0.009 A 
HETATM   15  C15 UNL     1      23.722   3.515  48.758  1.00  0.00     0.021 A 
HETATM   16  C16 UNL     1      24.480   4.479  49.531  1.00  0.00     0.031 A 
HETATM   17 CL1  UNL     1      24.967   6.000  48.784  1.00  0.00    -0.085 Cl
HETATM   18  C17 UNL     1      24.709   4.050  50.764  1.00  0.00     0.013 A 
ENDROOT
BRANCH  11  19
HETATM   19  C9  UNL     1      26.456   1.113  53.253  1.00  0.00     0.191 A 
HETATM   20  N3  UNL     1      27.165   1.907  52.923  1.00  0.00    -0.198 NA
HETATM   21  C10 UNL     1      28.371   2.281  53.226  1.00  0.00     0.171 A 
HETATM   22  C11 UNL     1      28.879   1.498  54.186  1.00  0.00     0.111 A 
HETATM   23  S1  UNL     1      27.497   0.245  54.570  1.00  0.00    -0.058 SA
BRANCH  21  24
HETATM   24  O1  UNL     1      29.423   3.156  53.006  1.00  0.00    -0.344 OA
HETATM   25  H11 UNL     1      30.377   2.840  52.837  1.00  0.00     0.219 HD
ENDBRANCH  21  24
ENDBRANCH  11  19
TORSDOF 2
ENDMDL
MODEL 4
REMARK VINA RESULT:      -7.8      3.640      5.483
REMARK  2 active torsions:
REMARK  status: ('A' for Active; 'I' for Inactive)
REMARK    1  A    between atoms: N2_11  and  C9_12 
REMARK    2  A    between atoms: C10_14  and  O1_15 
ROOT
HETATM    1  C1  UNL     1      23.786   4.338  53.417  1.00  0.00     0.013 C 
HETATM    2  C2  UNL     1      24.144   3.660  52.331  1.00  0.00    -0.012 C 
HETATM    3  C3  UNL     1      23.789   4.156  50.974  1.00  0.00     0.041 C 
HETATM    4  C4  UNL     1      22.892   5.310  51.129  1.00  0.00     0.012 C 
HETATM    5  C5  UNL     1      21.569   5.146  51.056  1.00  0.00     0.095 C 
HETATM    6  F1  UNL     1      20.967   6.390  51.221  1.00  0.00    -0.211 F 
HETATM    7  C6  UNL     1      20.415   4.236  50.985  1.00  0.00     0.125 C 
HETATM    8  C7  UNL     1      20.738   2.800  51.328  1.00  0.00     0.035 C 
HETATM    9  C8  UNL     1      19.628   1.804  51.111  1.00  0.00     0.068 C 
HETATM   10  N1  UNL     1      21.821   2.466  51.794  1.00  0.00    -0.179 NA
HETATM   11  N2  UNL     1      22.544   1.419  52.232  1.00  0.00    -0.245 N 
HETATM   12  C12 UNL     1      23.948   1.220  51.905  1.00  0.00     0.172 C 
HETATM   13  C13 UNL     1      24.857   2.357  52.248  1.00  0.00     0.024 A 
HETATM   14  C14 UNL     1      25.887   2.478  51.162  1.00  0.00    -0.009 A 
HETATM   15  C15 UNL     1      27.129   2.322  51.595  1.00  0.00     0.021 A 
HETATM   16  C16 UNL     1      27.004   2.080  53.018  1.00  0.00     0.031 A 
HETATM   17 CL1  UNL     1      28.454   1.816  53.985  1.00  0.00    -0.085 Cl
HETATM   18  C17 UNL     1      25.738   2.095  53.411  1.00  0.00     0.013 A 
ENDROOT
BRANCH  11  19
HETATM   19  C9  UNL     1      21.879   0.402  53.077  1.00  0.00     0.191 A 
HETATM   20  N3  UNL     1      22.538  -0.093  53.827  1.00  0.00    -0.198 NA
HETATM   21  C10 UNL     1      22.409  -1.008  54.739  1.00  0.00     0.171 A 
HETATM   22  C11 UNL     1      21.151  -1.464  54.773  1.00  0.00     0.111 A 
HETATM   23  S1  UNL     1      20.242  -0.478  53.422  1.00  0.00    -0.058 SA
BRANCH  21  24
HETATM   24  O1  UNL     1      22.999  -1.765  55.739  1.00  0.00    -0.344 OA
HETATM   25  H11 UNL     1      22.682  -2.702  55.981  1.00  0.00     0.219 HD
ENDBRANCH  21  24
ENDBRANCH  11  19
TORSDOF 2
ENDMDL
MODEL 5
REMARK VINA RESULT:      -7.8      4.580      6.800
REMARK  2 active torsions:
REMARK  status: ('A' for Active; 'I' for Inactive)
REMARK    1  A    between atoms: N2_11  and  C9_12 
REMARK    2  A    between atoms: C10_14  and  O1_15 
ROOT
HETATM    1  C1  UNL     1      23.361   1.891  50.458  1.00  0.00     0.013 C 
HETATM    2  C2  UNL     1      23.005   2.620  51.510  1.00  0.00    -0.012 C 
HETATM    3  C3  UNL     1      23.852   2.654  52.733  1.00  0.00     0.041 C 
HETATM    4  C4  UNL     1      24.920   1.657  52.577  1.00  0.00     0.012 C 
HETATM    5  C5  UNL     1      24.782   0.437  53.104  1.00  0.00     0.095 C 
HETATM    6  F1  UNL     1      25.934  -0.291  52.823  1.00  0.00    -0.211 F 
HETATM    7  C6  UNL     1      23.927  -0.557  53.770  1.00  0.00     0.125 C 
HETATM    8  C7  UNL     1      22.451  -0.231  53.726  1.00  0.00     0.035 C 
HETATM    9  C8  UNL     1      21.552  -1.131  54.534  1.00  0.00     0.068 C 
HETATM   10  N1  UNL     1      22.002   0.684  53.045  1.00  0.00    -0.179 NA
HETATM   11  N2  UNL     1      20.876   1.326  52.687  1.00  0.00    -0.245 N 
HETATM   12  C12 UNL     1      20.773   2.775  52.592  1.00  0.00     0.172 C 
HETATM   13  C13 UNL     1      21.774   3.434  51.697  1.00  0.00     0.024 A 
HETATM   14  C14 UNL     1      22.186   4.732  52.331  1.00  0.00    -0.009 A 
HETATM   15  C15 UNL     1      21.918   5.791  51.583  1.00  0.00     0.021 A 
HETATM   16  C16 UNL     1      21.297   5.259  50.386  1.00  0.00     0.031 A 
HETATM   17 CL1  UNL     1      20.779   6.363  49.113  1.00  0.00    -0.085 Cl
HETATM   18  C17 UNL     1      21.205   3.937  50.425  1.00  0.00     0.013 A 
ENDROOT
BRANCH  11  19
HETATM   19  C9  UNL     1      19.667   0.525  52.390  1.00  0.00     0.191 A 
HETATM   20  N3  UNL     1      19.226   0.694  51.380  1.00  0.00    -0.198 NA
HETATM   21  C10 UNL     1      18.209   0.246  50.708  1.00  0.00     0.171 A 
HETATM   22  C11 UNL     1      17.525  -0.650  51.430  1.00  0.00     0.111 A 
HETATM   23  S1  UNL     1      18.465  -0.759  53.083  1.00  0.00    -0.058 SA
BRANCH  21  24
HETATM   24  O1  UNL     1      17.472   0.268  49.534  1.00  0.00    -0.344 OA
HETATM   25  H11 UNL     1      17.889   0.108  48.619  1.00  0.00     0.219 HD
ENDBRANCH  21  24
ENDBRANCH  11  19
TORSDOF 2
ENDMDL
MODEL 6
REMARK VINA RESULT:      -7.7      4.363      6.342
REMARK  2 active torsions:
REMARK  status: ('A' for Active; 'I' for Inactive)
REMARK    1  A    between atoms: N2_11  and  C9_12 
REMARK    2  A    between atoms: C10_14  and  O1_15 
ROOT
HETATM    1  C1  UNL     1      23.765   2.103  50.392  1.00  0.00     0.013 C 
HETATM    2  C2  UNL     1      23.612   2.959  51.398  1.00  0.00    -0.012 C 
HETATM    3  C3  UNL     1      24.261   2.709  52.713  1.00  0.00     0.041 C 
HETATM    4  C4  UNL     1      24.856   1.365  52.682  1.00  0.00     0.012 C 
HETATM    5  C5  UNL     1      24.187   0.324  53.184  1.00  0.00     0.095 C 
HETATM    6  F1  UNL     1      24.980  -0.811  53.040  1.00  0.00    -0.211 F 
HETATM    7  C6  UNL     1      22.939  -0.223  53.738  1.00  0.00     0.125 C 
HETATM    8  C7  UNL     1      21.729   0.657  53.519  1.00  0.00     0.035 C 
HETATM    9  C8  UNL     1      20.463   0.220  54.210  1.00  0.00     0.068 C 
HETATM   10  N1  UNL     1      21.759   1.643  52.793  1.00  0.00    -0.179 NA
HETATM   11  N2  UNL     1      21.028   2.662  52.305  1.00  0.00    -0.245 N 
HETATM   12  C12 UNL     1      21.519   4.028  52.205  1.00  0.00     0.172 C 
HETATM   13  C13 UNL     1      22.792   4.200  51.439  1.00  0.00     0.024 A 
HETATM   14  C14 UNL     1      23.613   5.256  52.123  1.00  0.00    -0.009 A 
HETATM   15  C15 UNL     1      23.871   6.301  51.353  1.00  0.00     0.021 A 
HETATM   16  C16 UNL     1      23.228   6.006  50.088  1.00  0.00     0.031 A 
HETATM   17 CL1  UNL     1      23.336   7.168  48.767  1.00  0.00    -0.085 Cl
HETATM   18  C17 UNL     1      22.616   4.830  50.110  1.00  0.00     0.013 A 
ENDROOT
BRANCH  11  19
HETATM   19  C9  UNL     1      19.642   2.390  51.863  1.00  0.00     0.191 A 
HETATM   20  N3  UNL     1      18.943   3.256  51.941  1.00  0.00    -0.198 NA
HETATM   21  C10 UNL     1      17.690   3.483  51.690  1.00  0.00     0.171 A 
HETATM   22  C11 UNL     1      17.098   2.381  51.214  1.00  0.00     0.111 A 
HETATM   23  S1  UNL     1      18.478   1.068  51.176  1.00  0.00    -0.058 SA
BRANCH  21  24
HETATM   24  O1  UNL     1      16.634   4.381  51.686  1.00  0.00    -0.344 OA
HETATM   25  H11 UNL     1      16.156   4.673  52.537  1.00  0.00     0.219 HD
ENDBRANCH  21  24
ENDBRANCH  11  19
TORSDOF 2
ENDMDL
MODEL 7
REMARK VINA RESULT:      -7.7      3.950      6.127
REMARK  2 active torsions:
REMARK  status: ('A' for Active; 'I' for Inactive)
REMARK    1  A    between atoms: N2_11  and  C9_12 
REMARK    2  A    between atoms: C10_14  and  O1_15 
ROOT
HETATM    1  C1  UNL     1      21.312   2.676  52.442  1.00  0.00     0.013 C 
HETATM    2  C2  UNL     1      21.497   2.122  51.248  1.00  0.00    -0.012 C 
HETATM    3  C3  UNL     1      21.968   0.716  51.127  1.00  0.00     0.041 C 
HETATM    4  C4  UNL     1      22.321   0.235  52.470  1.00  0.00     0.012 C 
HETATM    5  C5  UNL     1      23.590   0.278  52.885  1.00  0.00     0.095 C 
HETATM    6  F1  UNL     1      23.644  -0.247  54.173  1.00  0.00    -0.211 F 
HETATM    7  C6  UNL     1      24.975   0.721  52.660  1.00  0.00     0.125 C 
HETATM    8  C7  UNL     1      25.118   1.781  51.591  1.00  0.00     0.035 C 
HETATM    9  C8  UNL     1      26.530   2.146  51.210  1.00  0.00     0.068 C 
HETATM   10  N1  UNL     1      24.150   2.340  51.090  1.00  0.00    -0.179 NA
HETATM   11  N2  UNL     1      23.770   3.265  50.190  1.00  0.00    -0.245 N 
HETATM   12  C12 UNL     1      22.657   3.081  49.270  1.00  0.00     0.172 C 
HETATM   13  C13 UNL     1      21.345   2.747  49.906  1.00  0.00     0.024 A 
HETATM   14  C14 UNL     1      20.638   1.754  49.027  1.00  0.00    -0.009 A 
HETATM   15  C15 UNL     1      19.471   2.190  48.577  1.00  0.00     0.021 A 
HETATM   16  C16 UNL     1      19.325   3.520  49.132  1.00  0.00     0.031 A 
HETATM   17 CL1  UNL     1      17.879   4.460  48.766  1.00  0.00    -0.085 Cl
HETATM   18  C17 UNL     1      20.364   3.857  49.883  1.00  0.00     0.013 A 
ENDROOT
BRANCH  11  19
HETATM   19  C9  UNL     1      24.531   4.532  50.111  1.00  0.00     0.191 A 
HETATM   20  N3  UNL     1      24.114   5.371  50.715  1.00  0.00    -0.198 NA
HETATM   21  C10 UNL     1      24.419   6.613  50.943  1.00  0.00     0.171 A 
HETATM   22  C11 UNL     1      25.524   6.957  50.271  1.00  0.00     0.111 A 
HETATM   23  S1  UNL     1      26.032   5.378  49.335  1.00  0.00    -0.058 SA
BRANCH  21  24
HETATM   24  O1  UNL     1      24.115   7.800  51.591  1.00  0.00    -0.344 OA
HETATM   25  H11 UNL     1      23.175   8.029  51.908  1.00  0.00     0.219 HD
ENDBRANCH  21  24
ENDBRANCH  11  19
TORSDOF 2
ENDMDL
MODEL 8
REMARK VINA RESULT:      -7.7      5.694      8.102
REMARK  2 active torsions:
REMARK  status: ('A' for Active; 'I' for Inactive)
REMARK    1  A    between atoms: N2_11  and  C9_12 
REMARK    2  A    between atoms: C10_14  and  O1_15 
ROOT
HETATM    1  C1  UNL     1      23.292   5.579  50.846  1.00  0.00     0.013 C 
HETATM    2  C2  UNL     1      23.189   5.406  49.532  1.00  0.00    -0.012 C 
HETATM    3  C3  UNL     1      23.453   4.077  48.918  1.00  0.00     0.041 C 
HETATM    4  C4  UNL     1      23.980   3.187  49.963  1.00  0.00     0.012 C 
HETATM    5  C5  UNL     1      25.299   3.020  50.098  1.00  0.00     0.095 C 
HETATM    6  F1  UNL     1      25.518   2.125  51.141  1.00  0.00    -0.211 F 
HETATM    7  C6  UNL     1      26.664   3.421  49.725  1.00  0.00     0.125 C 
HETATM    8  C7  UNL     1      26.742   4.745  48.999  1.00  0.00     0.035 C 
HETATM    9  C8  UNL     1      28.096   5.119  48.453  1.00  0.00     0.068 C 
HETATM   10  N1  UNL     1      25.776   5.492  48.893  1.00  0.00    -0.179 NA
HETATM   11  N2  UNL     1      25.358   6.669  48.395  1.00  0.00    -0.245 N 
HETATM   12  C12 UNL     1      24.083   6.846  47.715  1.00  0.00     0.172 C 
HETATM   13  C13 UNL     1      22.876   6.419  48.488  1.00  0.00     0.024 A 
HETATM   14  C14 UNL     1      21.905   5.789  47.531  1.00  0.00    -0.009 A 
HETATM   15  C15 UNL     1      20.739   6.415  47.478  1.00  0.00     0.021 A 
HETATM   16  C16 UNL     1      20.861   7.519  48.409  1.00  0.00     0.031 A 
HETATM   17 CL1  UNL     1      19.500   8.616  48.637  1.00  0.00    -0.085 Cl
HETATM   18  C17 UNL     1      22.052   7.543  48.990  1.00  0.00     0.013 A 
ENDROOT
BRANCH  11  19
HETATM   19  C9  UNL     1      26.243   7.849  48.525  1.00  0.00     0.191 A 
HETATM   20  N3  UNL     1      26.503   8.129  49.572  1.00  0.00    -0.198 NA
HETATM   21  C10 UNL     1      27.210   9.050  50.154  1.00  0.00     0.171 A 
HETATM   22  C11 UNL     1      27.761   9.865  49.247  1.00  0.00     0.111 A 
HETATM   23  S1  UNL     1      27.175   9.185  47.567  1.00  0.00    -0.058 SA
BRANCH  21  24
HETATM   24  O1  UNL     1      27.679   9.604  51.336  1.00  0.00    -0.344 OA
HETATM   25  H11 UNL     1      28.118  10.522  51.378  1.00  0.00     0.219 HD
ENDBRANCH  21  24
ENDBRANCH  11  19
TORSDOF 2
ENDMDL
MODEL 9
REMARK VINA RESULT:      -7.6     10.022     11.521
REMARK  2 active torsions:
REMARK  status: ('A' for Active; 'I' for Inactive)
REMARK    1  A    between atoms: N2_11  and  C9_12 
REMARK    2  A    between atoms: C10_14  and  O1_15 
ROOT
HETATM    1  C1  UNL     1      30.898   5.088  47.482  1.00  0.00     0.013 C 
HETATM    2  C2  UNL     1      32.149   4.748  47.773  1.00  0.00    -0.012 C 
HETATM    3  C3  UNL     1      32.894   5.443  48.857  1.00  0.00     0.041 C 
HETATM    4  C4  UNL     1      32.078   6.577  49.317  1.00  0.00     0.012 C 
HETATM    5  C5  UNL     1      32.297   7.801  48.830  1.00  0.00     0.095 C 
HETATM    6  F1  UNL     1      31.405   8.677  49.441  1.00  0.00    -0.211 F 
HETATM    7  C6  UNL     1      32.982   8.666  47.857  1.00  0.00     0.125 C 
HETATM    8  C7  UNL     1      33.619   7.918  46.707  1.00  0.00     0.035 C 
HETATM    9  C8  UNL     1      34.470   8.742  45.775  1.00  0.00     0.068 C 
HETATM   10  N1  UNL     1      33.426   6.723  46.516  1.00  0.00    -0.179 NA
HETATM   11  N2  UNL     1      33.723   5.685  45.715  1.00  0.00    -0.245 N 
HETATM   12  C12 UNL     1      34.040   4.353  46.210  1.00  0.00     0.172 C 
HETATM   13  C13 UNL     1      33.012   3.737  47.103  1.00  0.00     0.024 A 
HETATM   14  C14 UNL     1      33.725   2.972  48.182  1.00  0.00    -0.009 A 
HETATM   15  C15 UNL     1      33.436   1.680  48.188  1.00  0.00     0.021 A 
HETATM   16  C16 UNL     1      32.501   1.497  47.097  1.00  0.00     0.031 A 
HETATM   17 CL1  UNL     1      31.861  -0.111  46.762  1.00  0.00    -0.085 Cl
HETATM   18  C17 UNL     1      32.244   2.638  46.472  1.00  0.00     0.013 A 
ENDROOT
BRANCH  11  19
HETATM   19  C9  UNL     1      33.751   5.904  44.251  1.00  0.00     0.191 A 
HETATM   20  N3  UNL     1      33.340   5.066  43.640  1.00  0.00    -0.198 NA
HETATM   21  C10 UNL     1      33.170   4.813  42.378  1.00  0.00     0.171 A 
HETATM   22  C11 UNL     1      33.606   5.834  41.631  1.00  0.00     0.111 A 
HETATM   23  S1  UNL     1      34.247   7.115  42.887  1.00  0.00    -0.058 SA
BRANCH  21  24
HETATM   24  O1  UNL     1      32.725   3.934  41.403  1.00  0.00    -0.344 OA
HETATM   25  H11 UNL     1      31.947   4.149  40.782  1.00  0.00     0.219 HD
ENDBRANCH  21  24
ENDBRANCH  11  19
TORSDOF 2
ENDMDL
