MODEL 1
REMARK VINA RESULT:      -8.5      0.000      0.000
REMARK  7 active torsions:
REMARK  status: ('A' for Active; 'I' for Inactive)
REMARK    1  A    between atoms: C1_2  and  C2_4 
REMARK    2  A    between atoms: C2_4  and  O1_7 
REMARK    3  A    between atoms: O1_7  and  C3_8 
REMARK    4  A    between atoms: C7_12  and  N1_13 
REMARK    5  A    between atoms: N1_13  and  C8_14 
REMARK    6  A    between atoms: C11_18  and  C12_19 
REMARK    7  A    between atoms: C13_20  and  N3_21 
ROOT
HETATM    1  N1  UNL     1      23.691   3.087  52.855  1.00  0.00    -0.188 N 
HETATM    2  H5  UNL     1      23.290   3.836  53.478  1.00  0.00     0.184 HD
ENDROOT
BRANCH   1   3
HETATM    3  C7  UNL     1      24.445   1.968  53.291  1.00  0.00     0.052 A 
HETATM    4  C6  UNL     1      23.794   0.757  53.083  1.00  0.00     0.030 A 
HETATM    5  C5  UNL     1      24.466  -0.400  53.478  1.00  0.00     0.005 A 
HETATM    6  C4  UNL     1      25.734  -0.316  54.057  1.00  0.00     0.037 A 
HETATM    7  C3  UNL     1      26.342   0.920  54.246  1.00  0.00     0.077 A 
HETATM    8  C19 UNL     1      25.684   2.064  53.855  1.00  0.00     0.067 A 
BRANCH   7   9
HETATM    9  O1  UNL     1      27.572   0.784  54.827  1.00  0.00    -0.279 OA
BRANCH   9  10
HETATM   10  C2  UNL     1      28.764   0.913  54.113  1.00  0.00     0.418 C 
HETATM   11  F3  UNL     1      29.610   1.843  54.687  1.00  0.00    -0.169 F 
HETATM   12  F4  UNL     1      28.455   1.350  52.835  1.00  0.00    -0.169 F 
BRANCH  10  13
HETATM   13  C1  UNL     1      29.522  -0.404  53.985  1.00  0.00     0.455 C 
HETATM   14  F1  UNL     1      28.750  -1.181  53.112  1.00  0.00    -0.205 F 
HETATM   15  F2  UNL     1      30.735  -0.148  53.385  1.00  0.00    -0.205 F 
ENDBRANCH  10  13
ENDBRANCH   9  10
ENDBRANCH   7   9
ENDBRANCH   1   3
BRANCH   1  16
HETATM   16  C8  UNL     1      23.530   3.102  51.417  1.00  0.00     0.727 A 
HETATM   17  N2  UNL     1      22.610   2.590  50.599  1.00  0.00    -0.075 NA
HETATM   18  C9  UNL     1      22.676   2.806  49.260  1.00  0.00     0.139 A 
HETATM   19  C10 UNL     1      23.671   3.546  48.713  1.00  0.00     0.052 A 
HETATM   20  C11 UNL     1      24.607   4.058  49.586  1.00  0.00     0.078 A 
HETATM   21  N4  UNL     1      24.559   3.853  50.936  1.00  0.00    -0.063 NA
BRANCH  20  22
HETATM   22  C12 UNL     1      25.743   4.867  49.112  1.00  0.00     0.049 C 
HETATM   23  C13 UNL     1      27.022   4.658  48.959  1.00  0.00     0.088 C 
BRANCH  23  24
HETATM   24  N3  UNL     1      28.058   5.492  48.492  1.00  0.00    -0.386 N 
HETATM   25  C14 UNL     1      29.436   5.331  48.089  1.00  0.00     0.149 C 
HETATM   26  C15 UNL     1      30.200   6.625  48.193  1.00  0.00    -0.011 C 
HETATM   27  C16 UNL     1      29.704   7.783  47.779  1.00  0.00    -0.027 C 
HETATM   28  C17 UNL     1      28.320   7.515  47.231  1.00  0.00     0.047 C 
HETATM   29  C18 UNL     1      27.550   6.868  48.401  1.00  0.00     0.126 C 
ENDBRANCH  23  24
ENDBRANCH  20  22
ENDBRANCH   1  16
TORSDOF 7
ENDMDL
MODEL 2
REMARK VINA RESULT:      -8.4      2.317      3.793
REMARK  7 active torsions:
REMARK  status: ('A' for Active; 'I' for Inactive)
REMARK    1  A    between atoms: C1_2  and  C2_4 
REMARK    2  A    between atoms: C2_4  and  O1_7 
REMARK    3  A    between atoms: O1_7  and  C3_8 
REMARK    4  A    between atoms: C7_12  and  N1_13 
REMARK    5  A    between atoms: N1_13  and  C8_14 
REMARK    6  A    between atoms: C11_18  and  C12_19 
REMARK    7  A    between atoms: C13_20  and  N3_21 
ROOT
HETATM    1  N1  UNL     1      25.881   3.120  49.501  1.00  0.00    -0.188 N 
HETATM    2  H5  UNL     1      25.698   2.410  48.745  1.00  0.00     0.184 HD
ENDROOT
BRANCH   1   3
HETATM    3  C7  UNL     1      25.764   2.891  50.895  1.00  0.00     0.052 A 
HETATM    4  C6  UNL     1      24.521   3.250  51.405  1.00  0.00     0.030 A 
HETATM    5  C5  UNL     1      24.316   3.053  52.770  1.00  0.00     0.005 A 
HETATM    6  C4  UNL     1      25.332   2.523  53.568  1.00  0.00     0.037 A 
HETATM    7  C3  UNL     1      26.559   2.183  53.010  1.00  0.00     0.077 A 
HETATM    8  C19 UNL     1      26.766   2.372  51.664  1.00  0.00     0.067 A 
BRANCH   7   9
HETATM    9  O1  UNL     1      27.413   1.686  53.956  1.00  0.00    -0.279 OA
BRANCH   9  10
HETATM   10  C2  UNL     1      27.506   0.325  54.249  1.00  0.00     0.418 C 
HETATM   11  F3  UNL     1      26.883  -0.452  53.292  1.00  0.00    -0.169 F 
HETATM   12  F4  UNL     1      26.871   0.101  55.460  1.00  0.00    -0.169 F 
BRANCH  10  13
HETATM   13  C1  UNL     1      28.948  -0.153  54.385  1.00  0.00     0.455 C 
HETATM   14  F1  UNL     1      29.142  -1.025  53.306  1.00  0.00    -0.205 F 
HETATM   15  F2  UNL     1      29.781   0.932  54.225  1.00  0.00    -0.205 F 
ENDBRANCH  10  13
ENDBRANCH   9  10
ENDBRANCH   7   9
ENDBRANCH   1   3
BRANCH   1  16
HETATM   16  C8  UNL     1      26.281   4.480  49.209  1.00  0.00     0.727 A 
HETATM   17  N2  UNL     1      25.656   5.654  49.307  1.00  0.00    -0.075 NA
HETATM   18  C9  UNL     1      26.301   6.810  49.010  1.00  0.00     0.139 A 
HETATM   19  C10 UNL     1      27.596   6.812  48.607  1.00  0.00     0.052 A 
HETATM   20  C11 UNL     1      28.211   5.583  48.513  1.00  0.00     0.078 A 
HETATM   21  N4  UNL     1      27.581   4.408  48.808  1.00  0.00    -0.063 NA
BRANCH  20  22
HETATM   22  C12 UNL     1      29.612   5.452  48.074  1.00  0.00     0.049 C 
HETATM   23  C13 UNL     1      30.774   5.670  48.626  1.00  0.00     0.088 C 
BRANCH  23  24
HETATM   24  N3  UNL     1      32.087   5.517  48.137  1.00  0.00    -0.386 N 
HETATM   25  C14 UNL     1      33.350   6.202  48.285  1.00  0.00     0.149 C 
HETATM   26  C15 UNL     1      34.275   5.919  47.129  1.00  0.00    -0.011 C 
HETATM   27  C16 UNL     1      34.435   4.704  46.624  1.00  0.00    -0.027 C 
HETATM   28  C17 UNL     1      33.553   3.763  47.412  1.00  0.00     0.047 C 
HETATM   29  C18 UNL     1      32.129   4.337  47.261  1.00  0.00     0.126 C 
ENDBRANCH  23  24
ENDBRANCH  20  22
ENDBRANCH   1  16
TORSDOF 7
ENDMDL
MODEL 3
REMARK VINA RESULT:      -8.3      1.316      2.006
REMARK  7 active torsions:
REMARK  status: ('A' for Active; 'I' for Inactive)
REMARK    1  A    between atoms: C1_2  and  C2_4 
REMARK    2  A    between atoms: C2_4  and  O1_7 
REMARK    3  A    between atoms: O1_7  and  C3_8 
REMARK    4  A    between atoms: C7_12  and  N1_13 
REMARK    5  A    between atoms: N1_13  and  C8_14 
REMARK    6  A    between atoms: C11_18  and  C12_19 
REMARK    7  A    between atoms: C13_20  and  N3_21 
ROOT
HETATM    1  N1  UNL     1      24.271   3.549  52.829  1.00  0.00    -0.188 N 
HETATM    2  H5  UNL     1      24.480   4.286  53.551  1.00  0.00     0.184 HD
ENDROOT
BRANCH   1   3
HETATM    3  C7  UNL     1      24.267   2.150  53.055  1.00  0.00     0.052 A 
HETATM    4  C6  UNL     1      22.999   1.586  52.961  1.00  0.00     0.030 A 
HETATM    5  C5  UNL     1      22.901   0.209  53.164  1.00  0.00     0.005 A 
HETATM    6  C4  UNL     1      24.041  -0.544  53.452  1.00  0.00     0.037 A 
HETATM    7  C3  UNL     1      25.286   0.068  53.538  1.00  0.00     0.077 A 
HETATM    8  C19 UNL     1      25.389   1.424  53.335  1.00  0.00     0.067 A 
BRANCH   7   9
HETATM    9  O1  UNL     1      26.266  -0.840  53.830  1.00  0.00    -0.279 OA
BRANCH   9  10
HETATM   10  C2  UNL     1      27.218  -1.252  52.896  1.00  0.00     0.418 C 
HETATM   11  F3  UNL     1      26.983  -0.709  51.648  1.00  0.00    -0.169 F 
HETATM   12  F4  UNL     1      27.139  -2.631  52.782  1.00  0.00    -0.169 F 
BRANCH  10  13
HETATM   13  C1  UNL     1      28.643  -0.899  53.308  1.00  0.00     0.455 C 
HETATM   14  F1  UNL     1      28.533  -0.429  54.623  1.00  0.00    -0.205 F 
HETATM   15  F2  UNL     1      29.389  -2.057  53.319  1.00  0.00    -0.205 F 
ENDBRANCH  10  13
ENDBRANCH   9  10
ENDBRANCH   7   9
ENDBRANCH   1   3
BRANCH   1  16
HETATM   16  C8  UNL     1      23.957   3.874  51.454  1.00  0.00     0.727 A 
HETATM   17  N2  UNL     1      22.825   3.854  50.750  1.00  0.00    -0.075 NA
HETATM   18  C9  UNL     1      22.805   4.272  49.458  1.00  0.00     0.139 A 
HETATM   19  C10 UNL     1      23.927   4.721  48.844  1.00  0.00     0.052 A 
HETATM   20  C11 UNL     1      25.079   4.725  49.599  1.00  0.00     0.078 A 
HETATM   21  N4  UNL     1      25.122   4.311  50.899  1.00  0.00    -0.063 NA
BRANCH  20  22
HETATM   22  C12 UNL     1      26.366   5.178  49.041  1.00  0.00     0.049 C 
HETATM   23  C13 UNL     1      26.876   6.337  48.725  1.00  0.00     0.088 C 
BRANCH  23  24
HETATM   24  N3  UNL     1      28.130   6.694  48.192  1.00  0.00    -0.386 N 
HETATM   25  C14 UNL     1      28.737   7.883  47.638  1.00  0.00     0.149 C 
HETATM   26  C15 UNL     1      29.909   7.547  46.751  1.00  0.00    -0.011 C 
HETATM   27  C16 UNL     1      30.820   6.644  47.083  1.00  0.00    -0.027 C 
HETATM   28  C17 UNL     1      30.438   6.087  48.436  1.00  0.00     0.047 C 
HETATM   29  C18 UNL     1      29.015   5.522  48.242  1.00  0.00     0.126 C 
ENDBRANCH  23  24
ENDBRANCH  20  22
ENDBRANCH   1  16
TORSDOF 7
ENDMDL
MODEL 4
REMARK VINA RESULT:      -8.2      3.861      6.793
REMARK  7 active torsions:
REMARK  status: ('A' for Active; 'I' for Inactive)
REMARK    1  A    between atoms: C1_2  and  C2_4 
REMARK    2  A    between atoms: C2_4  and  O1_7 
REMARK    3  A    between atoms: O1_7  and  C3_8 
REMARK    4  A    between atoms: C7_12  and  N1_13 
REMARK    5  A    between atoms: N1_13  and  C8_14 
REMARK    6  A    between atoms: C11_18  and  C12_19 
REMARK    7  A    between atoms: C13_20  and  N3_21 
ROOT
HETATM    1  N1  UNL     1      21.206   0.328  51.224  1.00  0.00    -0.188 N 
HETATM    2  H5  UNL     1      20.854  -0.259  50.423  1.00  0.00     0.184 HD
ENDROOT
BRANCH   1   3
HETATM    3  C7  UNL     1      21.513   1.710  51.161  1.00  0.00     0.052 A 
HETATM    4  C6  UNL     1      20.572   2.507  51.805  1.00  0.00     0.030 A 
HETATM    5  C5  UNL     1      20.797   3.884  51.797  1.00  0.00     0.005 A 
HETATM    6  C4  UNL     1      21.922   4.412  51.160  1.00  0.00     0.037 A 
HETATM    7  C3  UNL     1      22.833   3.572  50.528  1.00  0.00     0.077 A 
HETATM    8  C19 UNL     1      22.617   2.214  50.536  1.00  0.00     0.067 A 
BRANCH   7   9
HETATM    9  O1  UNL     1      23.856   4.283  49.967  1.00  0.00    -0.279 OA
BRANCH   9  10
HETATM   10  C2  UNL     1      25.182   4.157  50.384  1.00  0.00     0.418 C 
HETATM   11  F3  UNL     1      25.272   3.663  51.671  1.00  0.00    -0.169 F 
HETATM   12  F4  UNL     1      25.759   5.417  50.371  1.00  0.00    -0.169 F 
BRANCH  10  13
HETATM   13  C1  UNL     1      26.007   3.258  49.470  1.00  0.00     0.455 C 
HETATM   14  F1  UNL     1      26.932   4.115  48.859  1.00  0.00    -0.205 F 
HETATM   15  F2  UNL     1      26.696   2.359  50.255  1.00  0.00    -0.205 F 
ENDBRANCH  10  13
ENDBRANCH   9  10
ENDBRANCH   7   9
ENDBRANCH   1   3
BRANCH   1  16
HETATM   16  C8  UNL     1      21.444  -0.218  52.543  1.00  0.00     0.727 A 
HETATM   17  N2  UNL     1      20.653  -0.807  53.440  1.00  0.00    -0.075 NA
HETATM   18  C9  UNL     1      21.161  -1.284  54.605  1.00  0.00     0.139 A 
HETATM   19  C10 UNL     1      22.482  -1.180  54.894  1.00  0.00     0.052 A 
HETATM   20  C11 UNL     1      23.270  -0.563  53.948  1.00  0.00     0.078 A 
HETATM   21  N4  UNL     1      22.780  -0.077  52.769  1.00  0.00    -0.063 NA
BRANCH  20  22
HETATM   22  C12 UNL     1      24.717  -0.377  54.151  1.00  0.00     0.049 C 
HETATM   23  C13 UNL     1      25.793  -0.743  53.507  1.00  0.00     0.088 C 
BRANCH  23  24
HETATM   24  N3  UNL     1      27.160  -0.522  53.766  1.00  0.00    -0.386 N 
HETATM   25  C14 UNL     1      27.942   0.164  54.769  1.00  0.00     0.149 C 
HETATM   26  C15 UNL     1      29.315   0.516  54.257  1.00  0.00    -0.011 C 
HETATM   27  C16 UNL     1      30.055  -0.331  53.556  1.00  0.00    -0.027 C 
HETATM   28  C17 UNL     1      29.266  -1.612  53.411  1.00  0.00     0.047 C 
HETATM   29  C18 UNL     1      27.951  -1.190  52.724  1.00  0.00     0.126 C 
ENDBRANCH  23  24
ENDBRANCH  20  22
ENDBRANCH   1  16
TORSDOF 7
ENDMDL
MODEL 5
REMARK VINA RESULT:      -7.7      2.326      3.030
REMARK  7 active torsions:
REMARK  status: ('A' for Active; 'I' for Inactive)
REMARK    1  A    between atoms: C1_2  and  C2_4 
REMARK    2  A    between atoms: C2_4  and  O1_7 
REMARK    3  A    between atoms: O1_7  and  C3_8 
REMARK    4  A    between atoms: C7_12  and  N1_13 
REMARK    5  A    between atoms: N1_13  and  C8_14 
REMARK    6  A    between atoms: C11_18  and  C12_19 
REMARK    7  A    between atoms: C13_20  and  N3_21 
ROOT
HETATM    1  N1  UNL     1      21.046   1.945  51.985  1.00  0.00    -0.188 N 
HETATM    2  H5  UNL     1      20.291   2.602  52.313  1.00  0.00     0.184 HD
ENDROOT
BRANCH   1   3
HETATM    3  C7  UNL     1      21.736   1.010  52.797  1.00  0.00     0.052 A 
HETATM    4  C6  UNL     1      20.941   0.467  53.800  1.00  0.00     0.030 A 
HETATM    5  C5  UNL     1      21.539  -0.468  54.646  1.00  0.00     0.005 A 
HETATM    6  C4  UNL     1      22.879  -0.822  54.472  1.00  0.00     0.037 A 
HETATM    7  C3  UNL     1      23.632  -0.248  53.454  1.00  0.00     0.077 A 
HETATM    8  C19 UNL     1      23.047   0.672  52.616  1.00  0.00     0.067 A 
BRANCH   7   9
HETATM    9  O1  UNL     1      24.914  -0.724  53.457  1.00  0.00    -0.279 OA
BRANCH   9  10
HETATM   10  C2  UNL     1      26.023   0.092  53.680  1.00  0.00     0.418 C 
HETATM   11  F3  UNL     1      26.828  -0.397  54.691  1.00  0.00    -0.169 F 
HETATM   12  F4  UNL     1      25.567   1.342  54.066  1.00  0.00    -0.169 F 
BRANCH  10  13
HETATM   13  C1  UNL     1      26.883   0.275  52.434  1.00  0.00     0.455 C 
HETATM   14  F1  UNL     1      26.652  -0.872  51.664  1.00  0.00    -0.205 F 
HETATM   15  F2  UNL     1      26.414   1.369  51.741  1.00  0.00    -0.205 F 
ENDBRANCH  10  13
ENDBRANCH   9  10
ENDBRANCH   7   9
ENDBRANCH   1   3
BRANCH   1  16
HETATM   16  C8  UNL     1      21.506   1.911  50.613  1.00  0.00     0.727 A 
HETATM   17  N2  UNL     1      21.285   1.073  49.600  1.00  0.00    -0.075 NA
HETATM   18  C9  UNL     1      21.812   1.315  48.372  1.00  0.00     0.139 A 
HETATM   19  C10 UNL     1      22.576   2.410  48.136  1.00  0.00     0.052 A 
HETATM   20  C11 UNL     1      22.788   3.252  49.205  1.00  0.00     0.078 A 
HETATM   21  N4  UNL     1      22.266   3.029  50.448  1.00  0.00    -0.063 NA
BRANCH  20  22
HETATM   22  C12 UNL     1      23.611   4.468  49.079  1.00  0.00     0.049 C 
HETATM   23  C13 UNL     1      24.714   4.896  49.631  1.00  0.00     0.088 C 
BRANCH  23  24
HETATM   24  N3  UNL     1      25.451   6.083  49.453  1.00  0.00    -0.386 N 
HETATM   25  C14 UNL     1      26.385   6.605  48.483  1.00  0.00     0.149 C 
HETATM   26  C15 UNL     1      27.247   7.693  49.071  1.00  0.00    -0.011 C 
HETATM   27  C16 UNL     1      26.758   8.653  49.843  1.00  0.00    -0.027 C 
HETATM   28  C17 UNL     1      25.270   8.417  49.976  1.00  0.00     0.047 C 
HETATM   29  C18 UNL     1      25.147   6.996  50.564  1.00  0.00     0.126 C 
ENDBRANCH  23  24
ENDBRANCH  20  22
ENDBRANCH   1  16
TORSDOF 7
ENDMDL
MODEL 6
REMARK VINA RESULT:      -7.5      3.761      7.914
REMARK  7 active torsions:
REMARK  status: ('A' for Active; 'I' for Inactive)
REMARK    1  A    between atoms: C1_2  and  C2_4 
REMARK    2  A    between atoms: C2_4  and  O1_7 
REMARK    3  A    between atoms: O1_7  and  C3_8 
REMARK    4  A    between atoms: C7_12  and  N1_13 
REMARK    5  A    between atoms: N1_13  and  C8_14 
REMARK    6  A    between atoms: C11_18  and  C12_19 
REMARK    7  A    between atoms: C13_20  and  N3_21 
ROOT
HETATM    1  N1  UNL     1      28.582   7.023  47.438  1.00  0.00    -0.188 N 
HETATM    2  H5  UNL     1      28.341   7.051  46.412  1.00  0.00     0.184 HD
ENDROOT
BRANCH   1   3
HETATM    3  C7  UNL     1      29.846   6.682  47.980  1.00  0.00     0.052 A 
HETATM    4  C6  UNL     1      30.467   7.745  48.628  1.00  0.00     0.030 A 
HETATM    5  C5  UNL     1      31.716   7.497  49.197  1.00  0.00     0.005 A 
HETATM    6  C4  UNL     1      32.296   6.231  49.103  1.00  0.00     0.037 A 
HETATM    7  C3  UNL     1      31.635   5.201  48.443  1.00  0.00     0.077 A 
HETATM    8  C19 UNL     1      30.402   5.439  47.882  1.00  0.00     0.067 A 
BRANCH   7   9
HETATM    9  O1  UNL     1      32.370   4.048  48.461  1.00  0.00    -0.279 OA
BRANCH   9  10
HETATM   10  C2  UNL     1      33.165   3.642  47.389  1.00  0.00     0.418 C 
HETATM   11  F3  UNL     1      34.479   3.440  47.768  1.00  0.00    -0.169 F 
HETATM   12  F4  UNL     1      33.148   4.647  46.435  1.00  0.00    -0.169 F 
BRANCH  10  13
HETATM   13  C1  UNL     1      32.660   2.364  46.728  1.00  0.00     0.455 C 
HETATM   14  F1  UNL     1      32.762   1.380  47.720  1.00  0.00    -0.205 F 
HETATM   15  F2  UNL     1      31.328   2.535  46.417  1.00  0.00    -0.205 F 
ENDBRANCH  10  13
ENDBRANCH   9  10
ENDBRANCH   7   9
ENDBRANCH   1   3
BRANCH   1  16
HETATM   16  C8  UNL     1      27.616   7.331  48.471  1.00  0.00     0.727 A 
HETATM   17  N2  UNL     1      27.276   8.461  49.091  1.00  0.00    -0.075 NA
HETATM   18  C9  UNL     1      26.274   8.475  50.007  1.00  0.00     0.139 A 
HETATM   19  C10 UNL     1      25.589   7.347  50.320  1.00  0.00     0.052 A 
HETATM   20  C11 UNL     1      25.969   6.196  49.665  1.00  0.00     0.078 A 
HETATM   21  N4  UNL     1      26.973   6.160  48.740  1.00  0.00    -0.063 NA
BRANCH  20  22
HETATM   22  C12 UNL     1      25.310   4.905  49.928  1.00  0.00     0.049 C 
HETATM   23  C13 UNL     1      24.471   4.465  50.826  1.00  0.00     0.088 C 
BRANCH  23  24
HETATM   24  N3  UNL     1      23.877   3.201  51.012  1.00  0.00    -0.386 N 
HETATM   25  C14 UNL     1      23.168   2.242  50.196  1.00  0.00     0.149 C 
HETATM   26  C15 UNL     1      22.312   1.326  51.032  1.00  0.00    -0.011 C 
HETATM   27  C16 UNL     1      22.740   0.783  52.163  1.00  0.00    -0.027 C 
HETATM   28  C17 UNL     1      24.158   1.256  52.387  1.00  0.00     0.047 C 
HETATM   29  C18 UNL     1      24.060   2.796  52.413  1.00  0.00     0.126 C 
ENDBRANCH  23  24
ENDBRANCH  20  22
ENDBRANCH   1  16
TORSDOF 7
ENDMDL
MODEL 7
REMARK VINA RESULT:      -7.4      4.984      8.945
REMARK  7 active torsions:
REMARK  status: ('A' for Active; 'I' for Inactive)
REMARK    1  A    between atoms: C1_2  and  C2_4 
REMARK    2  A    between atoms: C2_4  and  O1_7 
REMARK    3  A    between atoms: O1_7  and  C3_8 
REMARK    4  A    between atoms: C7_12  and  N1_13 
REMARK    5  A    between atoms: N1_13  and  C8_14 
REMARK    6  A    between atoms: C11_18  and  C12_19 
REMARK    7  A    between atoms: C13_20  and  N3_21 
ROOT
HETATM    1  N1  UNL     1      22.798   0.963  51.841  1.00  0.00    -0.188 N 
HETATM    2  H5  UNL     1      22.362   1.342  50.961  1.00  0.00     0.184 HD
ENDROOT
BRANCH   1   3
HETATM    3  C7  UNL     1      24.085   1.295  52.334  1.00  0.00     0.052 A 
HETATM    4  C6  UNL     1      24.107   2.490  53.045  1.00  0.00     0.030 A 
HETATM    5  C5  UNL     1      25.335   2.892  53.571  1.00  0.00     0.005 A 
HETATM    6  C4  UNL     1      26.476   2.112  53.374  1.00  0.00     0.037 A 
HETATM    7  C3  UNL     1      26.403   0.926  52.653  1.00  0.00     0.077 A 
HETATM    8  C19 UNL     1      25.194   0.523  52.135  1.00  0.00     0.067 A 
BRANCH   7   9
HETATM    9  O1  UNL     1      27.625   0.318  52.573  1.00  0.00    -0.279 OA
BRANCH   9  10
HETATM   10  C2  UNL     1      28.062  -0.626  53.504  1.00  0.00     0.418 C 
HETATM   11  F3  UNL     1      27.976  -1.914  53.009  1.00  0.00    -0.169 F 
HETATM   12  F4  UNL     1      27.243  -0.543  54.618  1.00  0.00    -0.169 F 
BRANCH  10  13
HETATM   13  C1  UNL     1      29.497  -0.387  53.960  1.00  0.00     0.455 C 
HETATM   14  F1  UNL     1      30.294  -0.909  52.934  1.00  0.00    -0.205 F 
HETATM   15  F2  UNL     1      29.708   0.973  54.029  1.00  0.00    -0.205 F 
ENDBRANCH  10  13
ENDBRANCH   9  10
ENDBRANCH   7   9
ENDBRANCH   1   3
BRANCH   1  16
HETATM   16  C8  UNL     1      22.123   0.010  52.696  1.00  0.00     0.727 A 
HETATM   17  N2  UNL     1      22.549  -0.814  53.654  1.00  0.00    -0.075 NA
HETATM   18  C9  UNL     1      21.670  -1.580  54.350  1.00  0.00     0.139 A 
HETATM   19  C10 UNL     1      20.339  -1.533  54.097  1.00  0.00     0.052 A 
HETATM   20  C11 UNL     1      19.933  -0.674  53.099  1.00  0.00     0.078 A 
HETATM   21  N4  UNL     1      20.800   0.106  52.387  1.00  0.00    -0.063 NA
BRANCH  20  22
HETATM   22  C12 UNL     1      18.515  -0.543  52.723  1.00  0.00     0.049 C 
HETATM   23  C13 UNL     1      17.397  -1.068  53.145  1.00  0.00     0.088 C 
BRANCH  23  24
HETATM   24  N3  UNL     1      16.063  -0.889  52.731  1.00  0.00    -0.386 N 
HETATM   25  C14 UNL     1      15.084   0.174  52.770  1.00  0.00     0.149 C 
HETATM   26  C15 UNL     1      13.679  -0.361  52.665  1.00  0.00    -0.011 C 
HETATM   27  C16 UNL     1      13.338  -1.308  51.803  1.00  0.00    -0.027 C 
HETATM   28  C17 UNL     1      14.578  -1.682  51.023  1.00  0.00     0.047 C 
HETATM   29  C18 UNL     1      15.596  -2.127  52.093  1.00  0.00     0.126 C 
ENDBRANCH  23  24
ENDBRANCH  20  22
ENDBRANCH   1  16
TORSDOF 7
ENDMDL
MODEL 8
REMARK VINA RESULT:      -7.4      4.747      8.128
REMARK  7 active torsions:
REMARK  status: ('A' for Active; 'I' for Inactive)
REMARK    1  A    between atoms: C1_2  and  C2_4 
REMARK    2  A    between atoms: C2_4  and  O1_7 
REMARK    3  A    between atoms: O1_7  and  C3_8 
REMARK    4  A    between atoms: C7_12  and  N1_13 
REMARK    5  A    between atoms: N1_13  and  C8_14 
REMARK    6  A    between atoms: C11_18  and  C12_19 
REMARK    7  A    between atoms: C13_20  and  N3_21 
ROOT
HETATM    1  N1  UNL     1      21.490  -0.089  52.647  1.00  0.00    -0.188 N 
HETATM    2  H5  UNL     1      20.851  -0.669  53.251  1.00  0.00     0.184 HD
ENDROOT
BRANCH   1   3
HETATM    3  C7  UNL     1      22.836   0.240  52.948  1.00  0.00     0.052 A 
HETATM    4  C6  UNL     1      23.082   1.609  52.924  1.00  0.00     0.030 A 
HETATM    5  C5  UNL     1      24.381   2.024  53.214  1.00  0.00     0.005 A 
HETATM    6  C4  UNL     1      25.373   1.085  53.507  1.00  0.00     0.037 A 
HETATM    7  C3  UNL     1      25.077  -0.273  53.516  1.00  0.00     0.077 A 
HETATM    8  C19 UNL     1      23.796  -0.688  53.233  1.00  0.00     0.067 A 
BRANCH   7   9
HETATM    9  O1  UNL     1      26.181  -1.019  53.822  1.00  0.00    -0.279 OA
BRANCH   9  10
HETATM   10  C2  UNL     1      27.162  -1.338  52.882  1.00  0.00     0.418 C 
HETATM   11  F3  UNL     1      26.870  -0.818  51.635  1.00  0.00    -0.169 F 
HETATM   12  F4  UNL     1      27.214  -2.718  52.766  1.00  0.00    -0.169 F 
BRANCH  10  13
HETATM   13  C1  UNL     1      28.550  -0.852  53.286  1.00  0.00     0.455 C 
HETATM   14  F1  UNL     1      28.396  -0.369  54.592  1.00  0.00    -0.205 F 
HETATM   15  F2  UNL     1      29.396  -1.938  53.319  1.00  0.00    -0.205 F 
ENDBRANCH  10  13
ENDBRANCH   9  10
ENDBRANCH   7   9
ENDBRANCH   1   3
BRANCH   1  16
HETATM   16  C8  UNL     1      21.064   0.482  51.387  1.00  0.00     0.727 A 
HETATM   17  N2  UNL     1      21.669   0.639  50.209  1.00  0.00    -0.075 NA
HETATM   18  C9  UNL     1      21.002   1.171  49.153  1.00  0.00     0.139 A 
HETATM   19  C10 UNL     1      19.707   1.557  49.258  1.00  0.00     0.052 A 
HETATM   20  C11 UNL     1      19.113   1.384  50.490  1.00  0.00     0.078 A 
HETATM   21  N4  UNL     1      19.765   0.851  51.565  1.00  0.00    -0.063 NA
BRANCH  20  22
HETATM   22  C12 UNL     1      17.715   1.777  50.735  1.00  0.00     0.049 C 
HETATM   23  C13 UNL     1      17.094   2.440  51.673  1.00  0.00     0.088 C 
BRANCH  23  24
HETATM   24  N3  UNL     1      15.737   2.781  51.837  1.00  0.00    -0.386 N 
HETATM   25  C14 UNL     1      14.458   2.176  51.544  1.00  0.00     0.149 C 
HETATM   26  C15 UNL     1      13.364   3.208  51.451  1.00  0.00    -0.011 C 
HETATM   27  C16 UNL     1      13.245   4.203  52.318  1.00  0.00    -0.027 C 
HETATM   28  C17 UNL     1      14.363   4.064  53.326  1.00  0.00     0.047 C 
HETATM   29  C18 UNL     1      15.657   4.097  52.487  1.00  0.00     0.126 C 
ENDBRANCH  23  24
ENDBRANCH  20  22
ENDBRANCH   1  16
TORSDOF 7
ENDMDL
MODEL 9
REMARK VINA RESULT:      -7.3      3.435      5.436
REMARK  7 active torsions:
REMARK  status: ('A' for Active; 'I' for Inactive)
REMARK    1  A    between atoms: C1_2  and  C2_4 
REMARK    2  A    between atoms: C2_4  and  O1_7 
REMARK    3  A    between atoms: O1_7  and  C3_8 
REMARK    4  A    between atoms: C7_12  and  N1_13 
REMARK    5  A    between atoms: N1_13  and  C8_14 
REMARK    6  A    between atoms: C11_18  and  C12_19 
REMARK    7  A    between atoms: C13_20  and  N3_21 
ROOT
HETATM    1  N1  UNL     1      26.596   3.490  49.263  1.00  0.00    -0.188 N 
HETATM    2  H5  UNL     1      26.930   2.629  48.756  1.00  0.00     0.184 HD
ENDROOT
BRANCH   1   3
HETATM    3  C7  UNL     1      25.643   3.512  50.312  1.00  0.00     0.052 A 
HETATM    4  C6  UNL     1      24.900   4.687  50.349  1.00  0.00     0.030 A 
HETATM    5  C5  UNL     1      23.933   4.793  51.349  1.00  0.00     0.005 A 
HETATM    6  C4  UNL     1      23.744   3.753  52.262  1.00  0.00     0.037 A 
HETATM    7  C3  UNL     1      24.515   2.599  52.184  1.00  0.00     0.077 A 
HETATM    8  C19 UNL     1      25.467   2.487  51.198  1.00  0.00     0.067 A 
BRANCH   7   9
HETATM    9  O1  UNL     1      24.176   1.709  53.165  1.00  0.00    -0.279 OA
BRANCH   9  10
HETATM   10  C2  UNL     1      23.158   0.767  53.013  1.00  0.00     0.418 C 
HETATM   11  F3  UNL     1      22.760   0.647  51.695  1.00  0.00    -0.169 F 
HETATM   12  F4  UNL     1      22.065   1.191  53.751  1.00  0.00    -0.169 F 
BRANCH  10  13
HETATM   13  C1  UNL     1      23.552  -0.617  53.518  1.00  0.00     0.455 C 
HETATM   14  F1  UNL     1      22.708  -1.504  52.836  1.00  0.00    -0.205 F 
HETATM   15  F2  UNL     1      24.851  -0.865  53.131  1.00  0.00    -0.205 F 
ENDBRANCH  10  13
ENDBRANCH   9  10
ENDBRANCH   7   9
ENDBRANCH   1   3
BRANCH   1  16
HETATM   16  C8  UNL     1      27.073   4.817  48.939  1.00  0.00     0.727 A 
HETATM   17  N2  UNL     1      26.515   6.026  49.009  1.00  0.00    -0.075 NA
HETATM   18  C9  UNL     1      27.225   7.137  48.685  1.00  0.00     0.139 A 
HETATM   19  C10 UNL     1      28.517   7.056  48.281  1.00  0.00     0.052 A 
HETATM   20  C11 UNL     1      29.061   5.792  48.216  1.00  0.00     0.078 A 
HETATM   21  N4  UNL     1      28.365   4.661  48.539  1.00  0.00    -0.063 NA
BRANCH  20  22
HETATM   22  C12 UNL     1      30.450   5.571  47.779  1.00  0.00     0.049 C 
HETATM   23  C13 UNL     1      31.160   4.524  47.456  1.00  0.00     0.088 C 
BRANCH  23  24
HETATM   24  N3  UNL     1      32.500   4.392  47.041  1.00  0.00    -0.386 N 
HETATM   25  C14 UNL     1      33.455   5.188  46.305  1.00  0.00     0.149 C 
HETATM   26  C15 UNL     1      34.547   4.336  45.711  1.00  0.00    -0.011 C 
HETATM   27  C16 UNL     1      35.141   3.363  46.387  1.00  0.00    -0.027 C 
HETATM   28  C17 UNL     1      34.520   3.320  47.765  1.00  0.00     0.047 C 
HETATM   29  C18 UNL     1      33.014   3.098  47.511  1.00  0.00     0.126 C 
ENDBRANCH  23  24
ENDBRANCH  20  22
ENDBRANCH   1  16
TORSDOF 7
ENDMDL
