MODEL 1
REMARK VINA RESULT:      -8.2      0.000      0.000
REMARK  4 active torsions:
REMARK  status: ('A' for Active; 'I' for Inactive)
REMARK    1  A    between atoms: N1_2  and  C2_3 
REMARK    2  A    between atoms: C2_3  and  C3_4 
REMARK    3  A    between atoms: C6_7  and  N2_8 
REMARK       I    between atoms: N2_8  and  C7_9 
REMARK    4  A    between atoms: C7_9  and  C8_11 
ROOT
HETATM    1  C8  UNL     1      22.245   2.492  51.315  1.00  0.00     0.034 C 
HETATM    2  C9  UNL     1      21.029   2.998  51.620  1.00  0.00     0.096 C 
HETATM    3  N3  UNL     1      19.872   2.206  51.905  1.00  0.00    -0.398 N 
HETATM    4  C10 UNL     1      18.839   1.242  51.913  1.00  0.00     0.119 C 
HETATM    5  C11 UNL     1      19.178  -0.166  52.273  1.00  0.00     0.023 C 
HETATM    6  C12 UNL     1      19.739  -0.304  53.630  1.00  0.00     0.029 C 
HETATM    7  C13 UNL     1      20.867   0.464  54.100  1.00  0.00    -0.012 C 
HETATM    8  C14 UNL     1      21.800  -0.278  54.703  1.00  0.00     0.004 C 
HETATM    9  C15 UNL     1      22.170  -1.258  53.913  1.00  0.00     0.101 C 
HETATM   10  N4  UNL     1      22.021  -0.897  52.675  1.00  0.00    -0.211 NA
HETATM   11  C16 UNL     1      22.656   0.404  52.485  1.00  0.00     0.248 C 
HETATM   12  O2  UNL     1      23.488   1.171  53.088  1.00  0.00    -0.271 OA
HETATM   13  C17 UNL     1      22.180   0.991  51.222  1.00  0.00     0.150 C 
HETATM   14  H11 UNL     1      19.644   2.837  52.744  1.00  0.00     0.158 HD
ENDROOT
BRANCH   1  15
HETATM   15  C7  UNL     1      23.379   3.309  51.046  1.00  0.00     0.254 C 
HETATM   16  N2  UNL     1      24.012   3.353  49.782  1.00  0.00    -0.323 N 
HETATM   17  H9  UNL     1      23.573   2.736  49.067  1.00  0.00     0.169 HD
HETATM   18  O1  UNL     1      23.817   4.008  51.975  1.00  0.00    -0.268 OA
BRANCH  16  19
HETATM   19  C6  UNL     1      25.135   4.118  49.402  1.00  0.00     0.035 A 
HETATM   20  C5  UNL     1      24.941   5.424  48.997  1.00  0.00     0.030 A 
HETATM   21  C4  UNL     1      25.959   6.261  48.604  1.00  0.00     0.011 A 
HETATM   22  C3  UNL     1      27.259   5.832  48.591  1.00  0.00    -0.030 A 
HETATM   23  C19 UNL     1      27.488   4.530  48.991  1.00  0.00     0.011 A 
HETATM   24  C18 UNL     1      26.453   3.728  49.375  1.00  0.00     0.030 A 
BRANCH  22  25
HETATM   25  C2  UNL     1      28.449   6.629  48.203  1.00  0.00     0.307 C 
BRANCH  25  26
HETATM   26  N1  UNL     1      29.607   6.333  49.005  1.00  0.00     0.083 N 
HETATM   27  C1  UNL     1      30.729   7.159  48.636  1.00  0.00     0.307 C 
HETATM   28  H4  UNL     1      29.441   6.443  50.015  1.00  0.00     0.315 HD
ENDBRANCH  25  26
ENDBRANCH  22  25
ENDBRANCH  16  19
ENDBRANCH   1  15
TORSDOF 4
ENDMDL
MODEL 2
REMARK VINA RESULT:      -8.1      3.020      8.643
REMARK  4 active torsions:
REMARK  status: ('A' for Active; 'I' for Inactive)
REMARK    1  A    between atoms: N1_2  and  C2_3 
REMARK    2  A    between atoms: C2_3  and  C3_4 
REMARK    3  A    between atoms: C6_7  and  N2_8 
REMARK       I    between atoms: N2_8  and  C7_9 
REMARK    4  A    between atoms: C7_9  and  C8_11 
ROOT
HETATM    1  C8  UNL     1      23.035   1.913  52.054  1.00  0.00     0.034 C 
HETATM    2  C9  UNL     1      23.666   2.209  50.895  1.00  0.00     0.096 C 
HETATM    3  N3  UNL     1      25.072   2.451  50.779  1.00  0.00    -0.398 N 
HETATM    4  C10 UNL     1      26.407   2.878  50.951  1.00  0.00     0.119 C 
HETATM    5  C11 UNL     1      27.181   2.355  52.115  1.00  0.00     0.023 C 
HETATM    6  C12 UNL     1      27.325   0.887  52.111  1.00  0.00     0.029 C 
HETATM    7  C13 UNL     1      26.204  -0.015  51.995  1.00  0.00    -0.012 C 
HETATM    8  C14 UNL     1      26.221  -1.001  52.898  1.00  0.00     0.004 C 
HETATM    9  C15 UNL     1      26.321  -0.497  54.105  1.00  0.00     0.101 C 
HETATM   10  N4  UNL     1      25.787   0.686  54.128  1.00  0.00    -0.211 NA
HETATM   11  C16 UNL     1      24.456   0.613  53.532  1.00  0.00     0.248 C 
HETATM   12  O2  UNL     1      23.588  -0.274  53.211  1.00  0.00    -0.271 OA
HETATM   13  C17 UNL     1      24.000   1.974  53.207  1.00  0.00     0.150 C 
HETATM   14  H11 UNL     1      25.109   1.828  49.905  1.00  0.00     0.158 HD
ENDROOT
BRANCH   1  15
HETATM   15  C7  UNL     1      21.635   1.669  52.132  1.00  0.00     0.254 C 
HETATM   16  N2  UNL     1      21.051   0.426  51.793  1.00  0.00    -0.323 N 
HETATM   17  H9  UNL     1      21.737  -0.294  51.484  1.00  0.00     0.169 HD
HETATM   18  O1  UNL     1      20.911   2.601  52.517  1.00  0.00    -0.268 OA
BRANCH  16  19
HETATM   19  C6  UNL     1      19.685   0.072  51.830  1.00  0.00     0.035 A 
HETATM   20  C5  UNL     1      19.206  -0.602  52.935  1.00  0.00     0.030 A 
HETATM   21  C4  UNL     1      17.896  -0.997  53.079  1.00  0.00     0.011 A 
HETATM   22  C3  UNL     1      16.970  -0.738  52.104  1.00  0.00    -0.030 A 
HETATM   23  C19 UNL     1      17.418  -0.064  50.984  1.00  0.00     0.011 A 
HETATM   24  C18 UNL     1      18.724   0.314  50.877  1.00  0.00     0.030 A 
BRANCH  22  25
HETATM   25  C2  UNL     1      15.530  -1.096  52.135  1.00  0.00     0.307 C 
BRANCH  25  26
HETATM   26  N1  UNL     1      14.841  -0.547  53.273  1.00  0.00     0.083 N 
HETATM   27  C1  UNL     1      14.336   0.774  52.997  1.00  0.00     0.307 C 
HETATM   28  H4  UNL     1      14.058  -1.132  53.596  1.00  0.00     0.315 HD
ENDBRANCH  25  26
ENDBRANCH  22  25
ENDBRANCH  16  19
ENDBRANCH   1  15
TORSDOF 4
ENDMDL
MODEL 3
REMARK VINA RESULT:      -8.1      2.975      3.983
REMARK  4 active torsions:
REMARK  status: ('A' for Active; 'I' for Inactive)
REMARK    1  A    between atoms: N1_2  and  C2_3 
REMARK    2  A    between atoms: C2_3  and  C3_4 
REMARK    3  A    between atoms: C6_7  and  N2_8 
REMARK       I    between atoms: N2_8  and  C7_9 
REMARK    4  A    between atoms: C7_9  and  C8_11 
ROOT
HETATM    1  C8  UNL     1      25.164   2.863  51.333  1.00  0.00     0.034 C 
HETATM    2  C9  UNL     1      24.155   2.839  52.232  1.00  0.00     0.096 C 
HETATM    3  N3  UNL     1      23.769   1.685  52.984  1.00  0.00    -0.398 N 
HETATM    4  C10 UNL     1      23.426   0.386  53.421  1.00  0.00     0.119 C 
HETATM    5  C11 UNL     1      24.490  -0.661  53.458  1.00  0.00     0.023 C 
HETATM    6  C12 UNL     1      25.613  -0.322  54.351  1.00  0.00     0.029 C 
HETATM    7  C13 UNL     1      26.341   0.922  54.267  1.00  0.00    -0.012 C 
HETATM    8  C14 UNL     1      27.668   0.762  54.276  1.00  0.00     0.004 C 
HETATM    9  C15 UNL     1      28.022  -0.077  53.332  1.00  0.00     0.101 C 
HETATM   10  N4  UNL     1      27.166  -0.022  52.357  1.00  0.00    -0.211 NA
HETATM   11  C16 UNL     1      26.969   1.375  51.983  1.00  0.00     0.248 C 
HETATM   12  O2  UNL     1      27.535   2.512  52.161  1.00  0.00    -0.271 OA
HETATM   13  C17 UNL     1      25.750   1.487  51.166  1.00  0.00     0.150 C 
HETATM   14  H11 UNL     1      23.703   2.283  53.873  1.00  0.00     0.158 HD
ENDROOT
BRANCH   1  15
HETATM   15  C7  UNL     1      25.527   4.033  50.607  1.00  0.00     0.254 C 
HETATM   16  N2  UNL     1      26.625   4.076  49.718  1.00  0.00    -0.323 N 
HETATM   17  H9  UNL     1      27.142   3.175  49.639  1.00  0.00     0.169 HD
HETATM   18  O1  UNL     1      24.837   5.051  50.778  1.00  0.00    -0.268 OA
BRANCH  16  19
HETATM   19  C6  UNL     1      27.078   5.171  48.952  1.00  0.00     0.035 A 
HETATM   20  C5  UNL     1      28.399   5.201  48.553  1.00  0.00     0.030 A 
HETATM   21  C4  UNL     1      28.949   6.217  47.807  1.00  0.00     0.011 A 
HETATM   22  C3  UNL     1      28.194   7.287  47.408  1.00  0.00    -0.030 A 
HETATM   23  C19 UNL     1      26.867   7.288  47.790  1.00  0.00     0.011 A 
HETATM   24  C18 UNL     1      26.355   6.262  48.529  1.00  0.00     0.030 A 
BRANCH  22  25
HETATM   25  C2  UNL     1      28.655   8.439  46.595  1.00  0.00     0.307 C 
BRANCH  25  26
HETATM   26  N1  UNL     1      29.778   9.124  47.181  1.00  0.00     0.083 N 
HETATM   27  C1  UNL     1      29.363  10.007  48.241  1.00  0.00     0.307 C 
HETATM   28  H4  UNL     1      30.495   8.485  47.553  1.00  0.00     0.315 HD
ENDBRANCH  25  26
ENDBRANCH  22  25
ENDBRANCH  16  19
ENDBRANCH   1  15
TORSDOF 4
ENDMDL
MODEL 4
REMARK VINA RESULT:      -8.0      1.509      2.651
REMARK  4 active torsions:
REMARK  status: ('A' for Active; 'I' for Inactive)
REMARK    1  A    between atoms: N1_2  and  C2_3 
REMARK    2  A    between atoms: C2_3  and  C3_4 
REMARK    3  A    between atoms: C6_7  and  N2_8 
REMARK       I    between atoms: N2_8  and  C7_9 
REMARK    4  A    between atoms: C7_9  and  C8_11 
ROOT
HETATM    1  C8  UNL     1      24.320   1.662  52.445  1.00  0.00     0.034 C 
HETATM    2  C9  UNL     1      24.512   0.372  52.802  1.00  0.00     0.096 C 
HETATM    3  N3  UNL     1      23.577  -0.405  53.558  1.00  0.00    -0.398 N 
HETATM    4  C10 UNL     1      22.634  -0.882  54.495  1.00  0.00     0.119 C 
HETATM    5  C11 UNL     1      21.259  -0.302  54.484  1.00  0.00     0.023 C 
HETATM    6  C12 UNL     1      20.550  -0.498  53.206  1.00  0.00     0.029 C 
HETATM    7  C13 UNL     1      21.106  -0.119  51.929  1.00  0.00    -0.012 C 
HETATM    8  C14 UNL     1      20.256   0.573  51.164  1.00  0.00     0.004 C 
HETATM    9  C15 UNL     1      19.801   1.609  51.828  1.00  0.00     0.101 C 
HETATM   10  N4  UNL     1      20.686   1.992  52.697  1.00  0.00    -0.211 NA
HETATM   11  C16 UNL     1      21.975   2.129  52.025  1.00  0.00     0.248 C 
HETATM   12  O2  UNL     1      22.441   2.208  50.833  1.00  0.00    -0.271 OA
HETATM   13  C17 UNL     1      23.041   2.186  53.039  1.00  0.00     0.150 C 
HETATM   14  H11 UNL     1      23.717  -1.231  52.886  1.00  0.00     0.158 HD
ENDROOT
BRANCH   1  15
HETATM   15  C7  UNL     1      25.268   2.403  51.683  1.00  0.00     0.254 C 
HETATM   16  N2  UNL     1      24.917   3.532  50.909  1.00  0.00    -0.323 N 
HETATM   17  H9  UNL     1      23.905   3.775  50.948  1.00  0.00     0.169 HD
HETATM   18  O1  UNL     1      26.450   2.024  51.713  1.00  0.00    -0.268 OA
BRANCH  16  19
HETATM   19  C6  UNL     1      25.764   4.338  50.118  1.00  0.00     0.035 A 
HETATM   20  C5  UNL     1      25.524   5.696  50.063  1.00  0.00     0.030 A 
HETATM   21  C4  UNL     1      26.283   6.576  49.326  1.00  0.00     0.011 A 
HETATM   22  C3  UNL     1      27.347   6.139  48.584  1.00  0.00    -0.030 A 
HETATM   23  C19 UNL     1      27.615   4.784  48.617  1.00  0.00     0.011 A 
HETATM   24  C18 UNL     1      26.841   3.942  49.360  1.00  0.00     0.030 A 
BRANCH  22  25
HETATM   25  C2  UNL     1      28.251   6.976  47.756  1.00  0.00     0.307 C 
BRANCH  25  26
HETATM   26  N1  UNL     1      29.131   7.799  48.545  1.00  0.00     0.083 N 
HETATM   27  C1  UNL     1      30.459   7.243  48.606  1.00  0.00     0.307 C 
HETATM   28  H4  UNL     1      29.200   8.767  48.201  1.00  0.00     0.315 HD
ENDBRANCH  25  26
ENDBRANCH  22  25
ENDBRANCH  16  19
ENDBRANCH   1  15
TORSDOF 4
ENDMDL
MODEL 5
REMARK VINA RESULT:      -7.1      3.328      9.293
REMARK  4 active torsions:
REMARK  status: ('A' for Active; 'I' for Inactive)
REMARK    1  A    between atoms: N1_2  and  C2_3 
REMARK    2  A    between atoms: C2_3  and  C3_4 
REMARK    3  A    between atoms: C6_7  and  N2_8 
REMARK       I    between atoms: N2_8  and  C7_9 
REMARK    4  A    between atoms: C7_9  and  C8_11 
ROOT
HETATM    1  C8  UNL     1      22.229  -0.161  52.928  1.00  0.00     0.034 C 
HETATM    2  C9  UNL     1      23.181  -0.572  53.796  1.00  0.00     0.096 C 
HETATM    3  N3  UNL     1      24.585  -0.361  53.615  1.00  0.00    -0.398 N 
HETATM    4  C10 UNL     1      25.900  -0.250  53.112  1.00  0.00     0.119 C 
HETATM    5  C11 UNL     1      26.200   0.827  52.123  1.00  0.00     0.023 C 
HETATM    6  C12 UNL     1      25.954   2.184  52.644  1.00  0.00     0.029 C 
HETATM    7  C13 UNL     1      24.702   2.587  53.240  1.00  0.00    -0.012 C 
HETATM    8  C14 UNL     1      24.239   3.748  52.768  1.00  0.00     0.004 C 
HETATM    9  C15 UNL     1      24.165   3.700  51.459  1.00  0.00     0.101 C 
HETATM   10  N4  UNL     1      23.968   2.474  51.080  1.00  0.00    -0.211 NA
HETATM   11  C16 UNL     1      22.854   1.919  51.843  1.00  0.00     0.248 C 
HETATM   12  O2  UNL     1      21.892   2.329  52.586  1.00  0.00    -0.271 OA
HETATM   13  C17 UNL     1      22.861   0.453  51.708  1.00  0.00     0.150 C 
HETATM   14  H11 UNL     1      24.674  -0.059  54.642  1.00  0.00     0.158 HD
ENDROOT
BRANCH   1  15
HETATM   15  C7  UNL     1      20.839  -0.380  53.143  1.00  0.00     0.254 C 
HETATM   16  N2  UNL     1      19.864  -0.177  52.139  1.00  0.00    -0.323 N 
HETATM   17  H9  UNL     1      20.255   0.144  51.228  1.00  0.00     0.169 HD
HETATM   18  O1  UNL     1      20.487  -0.766  54.270  1.00  0.00    -0.268 OA
BRANCH  16  19
HETATM   19  C6  UNL     1      18.468  -0.358  52.237  1.00  0.00     0.035 A 
HETATM   20  C5  UNL     1      17.636   0.605  51.703  1.00  0.00     0.030 A 
HETATM   21  C4  UNL     1      16.263   0.534  51.742  1.00  0.00     0.011 A 
HETATM   22  C3  UNL     1      15.628  -0.526  52.331  1.00  0.00    -0.030 A 
HETATM   23  C19 UNL     1      16.432  -1.508  52.876  1.00  0.00     0.011 A 
HETATM   24  C18 UNL     1      17.791  -1.405  52.818  1.00  0.00     0.030 A 
BRANCH  22  25
HETATM   25  C2  UNL     1      14.162  -0.733  52.433  1.00  0.00     0.307 C 
BRANCH  25  26
HETATM   26  N1  UNL     1      13.634  -0.373  53.723  1.00  0.00     0.083 N 
HETATM   27  C1  UNL     1      13.159   0.987  53.738  1.00  0.00     0.307 C 
HETATM   28  H4  UNL     1      12.869  -0.988  54.035  1.00  0.00     0.315 HD
ENDBRANCH  25  26
ENDBRANCH  22  25
ENDBRANCH  16  19
ENDBRANCH   1  15
TORSDOF 4
ENDMDL
MODEL 6
REMARK VINA RESULT:      -7.1      4.424     10.732
REMARK  4 active torsions:
REMARK  status: ('A' for Active; 'I' for Inactive)
REMARK    1  A    between atoms: N1_2  and  C2_3 
REMARK    2  A    between atoms: C2_3  and  C3_4 
REMARK    3  A    between atoms: C6_7  and  N2_8 
REMARK       I    between atoms: N2_8  and  C7_9 
REMARK    4  A    between atoms: C7_9  and  C8_11 
ROOT
HETATM    1  C8  UNL     1      30.178   6.931  48.125  1.00  0.00     0.034 C 
HETATM    2  C9  UNL     1      30.652   7.971  47.403  1.00  0.00     0.096 C 
HETATM    3  N3  UNL     1      32.026   8.368  47.362  1.00  0.00    -0.398 N 
HETATM    4  C10 UNL     1      33.363   8.709  47.665  1.00  0.00     0.119 C 
HETATM    5  C11 UNL     1      34.288   7.635  48.130  1.00  0.00     0.023 C 
HETATM    6  C12 UNL     1      34.463   6.547  47.149  1.00  0.00     0.029 C 
HETATM    7  C13 UNL     1      33.356   5.833  46.557  1.00  0.00    -0.012 C 
HETATM    8  C14 UNL     1      33.508   4.505  46.583  1.00  0.00     0.004 C 
HETATM    9  C15 UNL     1      33.747   4.108  47.810  1.00  0.00     0.101 C 
HETATM   10  N4  UNL     1      33.195   4.930  48.650  1.00  0.00    -0.211 NA
HETATM   11  C16 UNL     1      31.802   5.131  48.262  1.00  0.00     0.248 C 
HETATM   12  O2  UNL     1      30.920   4.586  47.507  1.00  0.00    -0.271 OA
HETATM   13  C17 UNL     1      31.278   6.322  48.951  1.00  0.00     0.150 C 
HETATM   14  H11 UNL     1      31.967   8.472  46.295  1.00  0.00     0.158 HD
ENDROOT
BRANCH   1  15
HETATM   15  C7  UNL     1      28.804   6.557  48.136  1.00  0.00     0.254 C 
HETATM   16  N2  UNL     1      28.292   5.535  48.968  1.00  0.00    -0.323 N 
HETATM   17  H9  UNL     1      29.009   5.083  49.573  1.00  0.00     0.169 HD
HETATM   18  O1  UNL     1      28.038   7.168  47.372  1.00  0.00    -0.268 OA
BRANCH  16  19
HETATM   19  C6  UNL     1      26.959   5.081  49.061  1.00  0.00     0.035 A 
HETATM   20  C5  UNL     1      26.730   3.774  49.442  1.00  0.00     0.030 A 
HETATM   21  C4  UNL     1      25.475   3.223  49.565  1.00  0.00     0.011 A 
HETATM   22  C3  UNL     1      24.352   3.963  49.308  1.00  0.00    -0.030 A 
HETATM   23  C19 UNL     1      24.547   5.276  48.924  1.00  0.00     0.011 A 
HETATM   24  C18 UNL     1      25.806   5.788  48.814  1.00  0.00     0.030 A 
BRANCH  22  25
HETATM   25  C2  UNL     1      22.946   3.501  49.411  1.00  0.00     0.307 C 
BRANCH  25  26
HETATM   26  N1  UNL     1      22.102   4.038  48.376  1.00  0.00     0.083 N 
HETATM   27  C1  UNL     1      21.940   3.105  47.290  1.00  0.00     0.307 C 
HETATM   28  H4  UNL     1      21.168   4.309  48.713  1.00  0.00     0.315 HD
ENDBRANCH  25  26
ENDBRANCH  22  25
ENDBRANCH  16  19
ENDBRANCH   1  15
TORSDOF 4
ENDMDL
MODEL 7
REMARK VINA RESULT:      -6.9      1.756      3.142
REMARK  4 active torsions:
REMARK  status: ('A' for Active; 'I' for Inactive)
REMARK    1  A    between atoms: N1_2  and  C2_3 
REMARK    2  A    between atoms: C2_3  and  C3_4 
REMARK    3  A    between atoms: C6_7  and  N2_8 
REMARK       I    between atoms: N2_8  and  C7_9 
REMARK    4  A    between atoms: C7_9  and  C8_11 
ROOT
HETATM    1  C8  UNL     1      23.589   3.425  51.656  1.00  0.00     0.034 C 
HETATM    2  C9  UNL     1      24.227   2.258  51.894  1.00  0.00     0.096 C 
HETATM    3  N3  UNL     1      23.625   1.121  52.520  1.00  0.00    -0.398 N 
HETATM    4  C10 UNL     1      22.904   0.238  53.355  1.00  0.00     0.119 C 
HETATM    5  C11 UNL     1      21.412   0.288  53.330  1.00  0.00     0.023 C 
HETATM    6  C12 UNL     1      20.839  -0.005  52.004  1.00  0.00     0.029 C 
HETATM    7  C13 UNL     1      21.238   0.686  50.801  1.00  0.00    -0.012 C 
HETATM    8  C14 UNL     1      20.206   1.109  50.065  1.00  0.00     0.004 C 
HETATM    9  C15 UNL     1      19.400   1.835  50.803  1.00  0.00     0.101 C 
HETATM   10  N4  UNL     1      20.077   2.409  51.750  1.00  0.00    -0.211 NA
HETATM   11  C16 UNL     1      21.238   3.070  51.163  1.00  0.00     0.248 C 
HETATM   12  O2  UNL     1      21.660   3.441  50.010  1.00  0.00    -0.271 OA
HETATM   13  C17 UNL     1      22.200   3.391  52.231  1.00  0.00     0.150 C 
HETATM   14  H11 UNL     1      24.061   0.478  51.779  1.00  0.00     0.158 HD
ENDROOT
BRANCH   1  15
HETATM   15  C7  UNL     1      24.217   4.535  51.021  1.00  0.00     0.254 C 
HETATM   16  N2  UNL     1      24.807   4.454  49.739  1.00  0.00    -0.323 N 
HETATM   17  H9  UNL     1      24.738   3.512  49.300  1.00  0.00     0.169 HD
HETATM   18  O1  UNL     1      24.237   5.613  51.638  1.00  0.00    -0.268 OA
BRANCH  16  19
HETATM   19  C6  UNL     1      25.454   5.479  49.017  1.00  0.00     0.035 A 
HETATM   20  C5  UNL     1      26.827   5.429  48.881  1.00  0.00     0.030 A 
HETATM   21  C4  UNL     1      27.562   6.372  48.201  1.00  0.00     0.011 A 
HETATM   22  C3  UNL     1      26.954   7.445  47.606  1.00  0.00    -0.030 A 
HETATM   23  C19 UNL     1      25.580   7.525  47.722  1.00  0.00     0.011 A 
HETATM   24  C18 UNL     1      24.884   6.570  48.403  1.00  0.00     0.030 A 
BRANCH  22  25
HETATM   25  C2  UNL     1      27.622   8.524  46.836  1.00  0.00     0.307 C 
BRANCH  25  26
HETATM   26  N1  UNL     1      29.024   8.643  47.140  1.00  0.00     0.083 N 
HETATM   27  C1  UNL     1      29.506   9.978  46.892  1.00  0.00     0.307 C 
HETATM   28  H4  UNL     1      29.252   8.391  48.112  1.00  0.00     0.315 HD
ENDBRANCH  25  26
ENDBRANCH  22  25
ENDBRANCH  16  19
ENDBRANCH   1  15
TORSDOF 4
ENDMDL
MODEL 8
REMARK VINA RESULT:      -6.9      4.343      5.592
REMARK  4 active torsions:
REMARK  status: ('A' for Active; 'I' for Inactive)
REMARK    1  A    between atoms: N1_2  and  C2_3 
REMARK    2  A    between atoms: C2_3  and  C3_4 
REMARK    3  A    between atoms: C6_7  and  N2_8 
REMARK       I    between atoms: N2_8  and  C7_9 
REMARK    4  A    between atoms: C7_9  and  C8_11 
ROOT
HETATM    1  C8  UNL     1      20.065   2.283  50.945  1.00  0.00     0.034 C 
HETATM    2  C9  UNL     1      19.438   3.322  51.540  1.00  0.00     0.096 C 
HETATM    3  N3  UNL     1      18.082   3.702  51.283  1.00  0.00    -0.398 N 
HETATM    4  C10 UNL     1      16.837   4.025  50.699  1.00  0.00     0.119 C 
HETATM    5  C11 UNL     1      16.044   2.936  50.057  1.00  0.00     0.023 C 
HETATM    6  C12 UNL     1      15.675   1.854  50.989  1.00  0.00     0.029 C 
HETATM    7  C13 UNL     1      16.637   1.157  51.809  1.00  0.00    -0.012 C 
HETATM    8  C14 UNL     1      16.509  -0.173  51.764  1.00  0.00     0.004 C 
HETATM    9  C15 UNL     1      16.541  -0.581  50.519  1.00  0.00     0.101 C 
HETATM   10  N4  UNL     1      17.251   0.241  49.808  1.00  0.00    -0.211 NA
HETATM   11  C16 UNL     1      18.527   0.462  50.482  1.00  0.00     0.248 C 
HETATM   12  O2  UNL     1      19.233  -0.066  51.413  1.00  0.00    -0.271 OA
HETATM   13  C17 UNL     1      19.173   1.655  49.909  1.00  0.00     0.150 C 
HETATM   14  H11 UNL     1      17.911   3.815  52.337  1.00  0.00     0.158 HD
ENDROOT
BRANCH   1  15
HETATM   15  C7  UNL     1      21.414   1.926  51.232  1.00  0.00     0.254 C 
HETATM   16  N2  UNL     1      21.860   1.592  52.531  1.00  0.00    -0.323 N 
HETATM   17  H9  UNL     1      21.115   1.627  53.257  1.00  0.00     0.169 HD
HETATM   18  O1  UNL     1      22.218   1.915  50.286  1.00  0.00    -0.268 OA
BRANCH  16  19
HETATM   19  C6  UNL     1      23.164   1.226  52.932  1.00  0.00     0.035 A 
HETATM   20  C5  UNL     1      23.412  -0.093  53.255  1.00  0.00     0.030 A 
HETATM   21  C4  UNL     1      24.641  -0.562  53.658  1.00  0.00     0.011 A 
HETATM   22  C3  UNL     1      25.715   0.280  53.766  1.00  0.00    -0.030 A 
HETATM   23  C19 UNL     1      25.501   1.607  53.450  1.00  0.00     0.011 A 
HETATM   24  C18 UNL     1      24.268   2.036  53.052  1.00  0.00     0.030 A 
BRANCH  22  25
HETATM   25  C2  UNL     1      27.092  -0.093  54.177  1.00  0.00     0.307 C 
BRANCH  25  26
HETATM   26  N1  UNL     1      27.814   1.001  54.772  1.00  0.00     0.083 N 
HETATM   27  C1  UNL     1      29.139   1.121  54.218  1.00  0.00     0.307 C 
HETATM   28  H4  UNL     1      27.336   1.907  54.669  1.00  0.00     0.315 HD
ENDBRANCH  25  26
ENDBRANCH  22  25
ENDBRANCH  16  19
ENDBRANCH   1  15
TORSDOF 4
ENDMDL
MODEL 9
REMARK VINA RESULT:      -6.8      3.654     10.637
REMARK  4 active torsions:
REMARK  status: ('A' for Active; 'I' for Inactive)
REMARK    1  A    between atoms: N1_2  and  C2_3 
REMARK    2  A    between atoms: C2_3  and  C3_4 
REMARK    3  A    between atoms: C6_7  and  N2_8 
REMARK       I    between atoms: N2_8  and  C7_9 
REMARK    4  A    between atoms: C7_9  and  C8_11 
ROOT
HETATM    1  C8  UNL     1      27.402   9.426  49.072  1.00  0.00     0.034 C 
HETATM    2  C9  UNL     1      27.105  10.642  48.561  1.00  0.00     0.096 C 
HETATM    3  N3  UNL     1      27.991  11.766  48.583  1.00  0.00    -0.398 N 
HETATM    4  C10 UNL     1      28.920  12.771  48.930  1.00  0.00     0.119 C 
HETATM    5  C11 UNL     1      30.342  12.382  49.164  1.00  0.00     0.023 C 
HETATM    6  C12 UNL     1      30.982  11.765  47.987  1.00  0.00     0.029 C 
HETATM    7  C13 UNL     1      30.416  10.640  47.281  1.00  0.00    -0.012 C 
HETATM    8  C14 UNL     1      31.298   9.664  47.044  1.00  0.00     0.004 C 
HETATM    9  C15 UNL     1      31.872   9.300  48.166  1.00  0.00     0.101 C 
HETATM   10  N4  UNL     1      31.058   9.506  49.157  1.00  0.00    -0.211 NA
HETATM   11  C16 UNL     1      29.764   8.914  48.834  1.00  0.00     0.248 C 
HETATM   12  O2  UNL     1      29.264   8.081  47.997  1.00  0.00    -0.271 OA
HETATM   13  C17 UNL     1      28.746   9.455  49.749  1.00  0.00     0.150 C 
HETATM   14  H11 UNL     1      27.751  11.978  47.558  1.00  0.00     0.158 HD
ENDROOT
BRANCH   1  15
HETATM   15  C7  UNL     1      26.500   8.325  49.025  1.00  0.00     0.254 C 
HETATM   16  N2  UNL     1      26.657   7.168  49.822  1.00  0.00    -0.323 N 
HETATM   17  H9  UNL     1      27.489   7.195  50.448  1.00  0.00     0.169 HD
HETATM   18  O1  UNL     1      25.539   8.404  48.243  1.00  0.00    -0.268 OA
BRANCH  16  19
HETATM   19  C6  UNL     1      25.833   6.023  49.859  1.00  0.00     0.035 A 
HETATM   20  C5  UNL     1      24.659   6.075  50.584  1.00  0.00     0.030 A 
HETATM   21  C4  UNL     1      23.781   5.022  50.691  1.00  0.00     0.011 A 
HETATM   22  C3  UNL     1      24.031   3.829  50.068  1.00  0.00    -0.030 A 
HETATM   23  C19 UNL     1      25.199   3.743  49.334  1.00  0.00     0.011 A 
HETATM   24  C18 UNL     1      26.046   4.810  49.249  1.00  0.00     0.030 A 
BRANCH  22  25
HETATM   25  C2  UNL     1      23.169   2.622  50.091  1.00  0.00     0.307 C 
BRANCH  25  26
HETATM   26  N1  UNL     1      22.868   2.174  51.426  1.00  0.00     0.083 N 
HETATM   27  C1  UNL     1      23.894   1.299  51.933  1.00  0.00     0.307 C 
HETATM   28  H4  UNL     1      22.741   2.947  52.095  1.00  0.00     0.315 HD
ENDBRANCH  25  26
ENDBRANCH  22  25
ENDBRANCH  16  19
ENDBRANCH   1  15
TORSDOF 4
ENDMDL
