MODEL 1
REMARK VINA RESULT:      -6.6      0.000      0.000
REMARK  10 active torsions:
REMARK  status: ('A' for Active; 'I' for Inactive)
REMARK    1  A    between atoms: C2_2  and  C3_3 
REMARK    2  A    between atoms: C2_2  and  C6_7 
REMARK    3  A    between atoms: C3_3  and  N1_4 
REMARK       I    between atoms: C6_7  and  N2_9 
REMARK    4  A    between atoms: N2_9  and  C7_10 
REMARK    5  A    between atoms: C12_15  and  O2_16 
REMARK    6  A    between atoms: O2_16  and  C13_17 
REMARK    7  A    between atoms: C13_17  and  C14_18 
REMARK    8  A    between atoms: N3_19  and  C15_20 
REMARK    9  A    between atoms: C15_20  and  C16_21 
REMARK   10  A    between atoms: C16_21  and  N4_22 
ROOT
HETATM    1  C7  UNL     1      22.323   0.977  52.869  1.00  0.00     0.064 A 
HETATM    2  C8  UNL     1      21.026   0.857  53.179  1.00  0.00     0.006 A 
HETATM    3  C9  UNL     1      20.154  -0.148  53.825  1.00  0.00     0.033 A 
HETATM    4  C10 UNL     1      20.971  -1.339  54.233  1.00  0.00     0.034 A 
HETATM    5  C11 UNL     1      22.383  -1.124  53.856  1.00  0.00     0.012 A 
HETATM    6  C12 UNL     1      23.111  -0.206  53.278  1.00  0.00     0.091 A 
ENDROOT
BRANCH   1   7
HETATM    7  N2  UNL     1      23.055   2.039  52.224  1.00  0.00    -0.321 N 
HETATM    8  C6  UNL     1      22.919   1.965  50.822  1.00  0.00     0.250 C 
HETATM    9  O1  UNL     1      22.192   1.000  50.446  1.00  0.00    -0.268 OA
HETATM   10  H11 UNL     1      23.657   2.836  52.589  1.00  0.00     0.169 HD
BRANCH   8  11
HETATM   11  C2  UNL     1      23.509   2.855  49.830  1.00  0.00     0.016 C 
HETATM   12  C1  UNL     1      22.922   2.747  48.660  1.00  0.00     0.046 C 
BRANCH  11  13
HETATM   13  C3  UNL     1      24.624   3.730  50.216  1.00  0.00     0.311 C 
BRANCH  13  14
HETATM   14  N1  UNL     1      25.892   3.218  49.749  1.00  0.00     0.084 N 
HETATM   15  C4  UNL     1      26.561   2.645  50.927  1.00  0.00     0.309 C 
HETATM   16  C5  UNL     1      26.776   4.264  49.278  1.00  0.00     0.309 C 
ENDBRANCH  13  14
ENDBRANCH  11  13
ENDBRANCH   8  11
ENDBRANCH   1   7
BRANCH   6  17
HETATM   17  O2  UNL     1      24.467  -0.385  53.100  1.00  0.00    -0.344 OA
BRANCH  17  18
HETATM   18  C13 UNL     1      25.363  -0.568  54.174  1.00  0.00     0.222 C 
BRANCH  18  19
HETATM   19  C14 UNL     1      26.711  -0.041  53.826  1.00  0.00     0.116 C 
HETATM   20  N3  UNL     1      27.655  -0.470  54.579  1.00  0.00    -0.265 NA
BRANCH  20  21
HETATM   21  C15 UNL     1      29.010  -0.134  54.470  1.00  0.00     0.191 C 
BRANCH  21  22
HETATM   22  C16 UNL     1      29.164   1.160  54.235  1.00  0.00    -0.006 C 
BRANCH  22  23
HETATM   23  N4  UNL     1      29.294   2.436  54.293  1.00  0.00    -0.257 NA
HETATM   24  H22 UNL     1      29.062   2.884  55.225  1.00  0.00     0.197 HD
ENDBRANCH  22  23
ENDBRANCH  21  22
ENDBRANCH  20  21
ENDBRANCH  18  19
ENDBRANCH  17  18
ENDBRANCH   6  17
TORSDOF 10
ENDMDL
MODEL 2
REMARK VINA RESULT:      -6.4      2.241      6.337
REMARK  10 active torsions:
REMARK  status: ('A' for Active; 'I' for Inactive)
REMARK    1  A    between atoms: C2_2  and  C3_3 
REMARK    2  A    between atoms: C2_2  and  C6_7 
REMARK    3  A    between atoms: C3_3  and  N1_4 
REMARK       I    between atoms: C6_7  and  N2_9 
REMARK    4  A    between atoms: N2_9  and  C7_10 
REMARK    5  A    between atoms: C12_15  and  O2_16 
REMARK    6  A    between atoms: O2_16  and  C13_17 
REMARK    7  A    between atoms: C13_17  and  C14_18 
REMARK    8  A    between atoms: N3_19  and  C15_20 
REMARK    9  A    between atoms: C15_20  and  C16_21 
REMARK   10  A    between atoms: C16_21  and  N4_22 
ROOT
HETATM    1  C7  UNL     1      27.030  -0.496  53.006  1.00  0.00     0.064 A 
HETATM    2  C8  UNL     1      27.976  -1.404  53.280  1.00  0.00     0.006 A 
HETATM    3  C9  UNL     1      29.432  -1.408  53.542  1.00  0.00     0.033 A 
HETATM    4  C10 UNL     1      29.961  -0.005  53.480  1.00  0.00     0.034 A 
HETATM    5  C11 UNL     1      28.857   0.928  53.176  1.00  0.00     0.012 A 
HETATM    6  C12 UNL     1      27.571   0.880  52.949  1.00  0.00     0.091 A 
ENDROOT
BRANCH   1   7
HETATM    7  N2  UNL     1      25.615  -0.635  52.768  1.00  0.00    -0.321 N 
HETATM    8  C6  UNL     1      24.907  -0.724  53.985  1.00  0.00     0.250 C 
HETATM    9  O1  UNL     1      25.659  -0.659  55.001  1.00  0.00    -0.268 OA
HETATM   10  H11 UNL     1      25.025  -0.683  51.885  1.00  0.00     0.169 HD
BRANCH   8  11
HETATM   11  C2  UNL     1      23.468  -0.872  54.159  1.00  0.00     0.016 C 
HETATM   12  C1  UNL     1      23.153  -1.224  55.385  1.00  0.00     0.046 C 
BRANCH  11  13
HETATM   13  C3  UNL     1      22.573  -0.626  53.021  1.00  0.00     0.311 C 
BRANCH  13  14
HETATM   14  N1  UNL     1      22.318   0.784  52.836  1.00  0.00     0.084 N 
HETATM   15  C4  UNL     1      20.915   1.000  53.218  1.00  0.00     0.309 C 
HETATM   16  C5  UNL     1      22.404   1.189  51.447  1.00  0.00     0.309 C 
ENDBRANCH  13  14
ENDBRANCH  11  13
ENDBRANCH   8  11
ENDBRANCH   1   7
BRANCH   6  17
HETATM   17  O2  UNL     1      26.853   2.028  52.691  1.00  0.00    -0.344 OA
BRANCH  17  18
HETATM   18  C13 UNL     1      26.647   2.525  51.386  1.00  0.00     0.222 C 
BRANCH  18  19
HETATM   19  C14 UNL     1      25.407   3.347  51.329  1.00  0.00     0.116 C 
HETATM   20  N3  UNL     1      25.387   4.205  50.378  1.00  0.00    -0.265 NA
BRANCH  20  21
HETATM   21  C15 UNL     1      24.346   5.100  50.101  1.00  0.00     0.191 C 
BRANCH  21  22
HETATM   22  C16 UNL     1      24.188   5.971  51.086  1.00  0.00    -0.006 C 
BRANCH  22  23
HETATM   23  N4  UNL     1      24.317   6.859  52.005  1.00  0.00    -0.257 NA
HETATM   24  H22 UNL     1      23.617   6.810  52.800  1.00  0.00     0.197 HD
ENDBRANCH  22  23
ENDBRANCH  21  22
ENDBRANCH  20  21
ENDBRANCH  18  19
ENDBRANCH  17  18
ENDBRANCH   6  17
TORSDOF 10
ENDMDL
MODEL 3
REMARK VINA RESULT:      -6.4      1.428      2.043
REMARK  10 active torsions:
REMARK  status: ('A' for Active; 'I' for Inactive)
REMARK    1  A    between atoms: C2_2  and  C3_3 
REMARK    2  A    between atoms: C2_2  and  C6_7 
REMARK    3  A    between atoms: C3_3  and  N1_4 
REMARK       I    between atoms: C6_7  and  N2_9 
REMARK    4  A    between atoms: N2_9  and  C7_10 
REMARK    5  A    between atoms: C12_15  and  O2_16 
REMARK    6  A    between atoms: O2_16  and  C13_17 
REMARK    7  A    between atoms: C13_17  and  C14_18 
REMARK    8  A    between atoms: N3_19  and  C15_20 
REMARK    9  A    between atoms: C15_20  and  C16_21 
REMARK   10  A    between atoms: C16_21  and  N4_22 
ROOT
HETATM    1  C7  UNL     1      22.732   0.809  52.391  1.00  0.00     0.064 A 
HETATM    2  C8  UNL     1      21.467   1.115  52.701  1.00  0.00     0.006 A 
HETATM    3  C9  UNL     1      20.474   0.719  53.726  1.00  0.00     0.033 A 
HETATM    4  C10 UNL     1      21.080  -0.295  54.650  1.00  0.00     0.034 A 
HETATM    5  C11 UNL     1      22.471  -0.573  54.239  1.00  0.00     0.012 A 
HETATM    6  C12 UNL     1      23.312  -0.192  53.313  1.00  0.00     0.091 A 
ENDROOT
BRANCH   1   7
HETATM    7  N2  UNL     1      23.598   1.284  51.340  1.00  0.00    -0.321 N 
HETATM    8  C6  UNL     1      24.337   2.408  51.766  1.00  0.00     0.250 C 
HETATM    9  O1  UNL     1      24.082   2.744  52.959  1.00  0.00    -0.268 OA
HETATM   10  H11 UNL     1      23.779   0.961  50.343  1.00  0.00     0.169 HD
BRANCH   8  11
HETATM   11  C2  UNL     1      25.311   3.167  50.992  1.00  0.00     0.016 C 
HETATM   12  C1  UNL     1      26.452   2.527  50.873  1.00  0.00     0.046 C 
BRANCH  11  13
HETATM   13  C3  UNL     1      24.941   4.483  50.455  1.00  0.00     0.311 C 
BRANCH  13  14
HETATM   14  N1  UNL     1      23.526   4.568  50.176  1.00  0.00     0.084 N 
HETATM   15  C4  UNL     1      23.408   4.764  48.723  1.00  0.00     0.309 C 
HETATM   16  C5  UNL     1      22.909   5.737  50.770  1.00  0.00     0.309 C 
ENDBRANCH  13  14
ENDBRANCH  11  13
ENDBRANCH   8  11
ENDBRANCH   1   7
BRANCH   6  17
HETATM   17  O2  UNL     1      24.589  -0.709  53.259  1.00  0.00    -0.344 OA
BRANCH  17  18
HETATM   18  C13 UNL     1      25.484  -0.655  54.349  1.00  0.00     0.222 C 
BRANCH  18  19
HETATM   19  C14 UNL     1      26.744   0.033  53.957  1.00  0.00     0.116 C 
HETATM   20  N3  UNL     1      27.755  -0.263  54.686  1.00  0.00    -0.265 NA
BRANCH  20  21
HETATM   21  C15 UNL     1      29.053   0.240  54.535  1.00  0.00     0.191 C 
BRANCH  21  22
HETATM   22  C16 UNL     1      29.053   1.358  53.825  1.00  0.00    -0.006 C 
BRANCH  22  23
HETATM   23  N4  UNL     1      29.084   2.568  53.394  1.00  0.00    -0.257 NA
HETATM   24  H22 UNL     1      29.758   2.759  52.598  1.00  0.00     0.197 HD
ENDBRANCH  22  23
ENDBRANCH  21  22
ENDBRANCH  20  21
ENDBRANCH  18  19
ENDBRANCH  17  18
ENDBRANCH   6  17
TORSDOF 10
ENDMDL
MODEL 4
REMARK VINA RESULT:      -6.3      1.655      5.061
REMARK  10 active torsions:
REMARK  status: ('A' for Active; 'I' for Inactive)
REMARK    1  A    between atoms: C2_2  and  C3_3 
REMARK    2  A    between atoms: C2_2  and  C6_7 
REMARK    3  A    between atoms: C3_3  and  N1_4 
REMARK       I    between atoms: C6_7  and  N2_9 
REMARK    4  A    between atoms: N2_9  and  C7_10 
REMARK    5  A    between atoms: C12_15  and  O2_16 
REMARK    6  A    between atoms: O2_16  and  C13_17 
REMARK    7  A    between atoms: C13_17  and  C14_18 
REMARK    8  A    between atoms: N3_19  and  C15_20 
REMARK    9  A    between atoms: C15_20  and  C16_21 
REMARK   10  A    between atoms: C16_21  and  N4_22 
ROOT
HETATM    1  C7  UNL     1      24.457   2.861  51.419  1.00  0.00     0.064 A 
HETATM    2  C8  UNL     1      24.418   3.805  50.471  1.00  0.00     0.006 A 
HETATM    3  C9  UNL     1      25.349   4.384  49.476  1.00  0.00     0.033 A 
HETATM    4  C10 UNL     1      26.684   3.708  49.581  1.00  0.00     0.034 A 
HETATM    5  C11 UNL     1      26.640   2.684  50.645  1.00  0.00     0.012 A 
HETATM    6  C12 UNL     1      25.781   2.206  51.507  1.00  0.00     0.091 A 
ENDROOT
BRANCH   1   7
HETATM    7  N2  UNL     1      23.451   2.388  52.337  1.00  0.00    -0.321 N 
HETATM    8  C6  UNL     1      22.564   1.497  51.697  1.00  0.00     0.250 C 
HETATM    9  O1  UNL     1      22.846   1.310  50.478  1.00  0.00    -0.268 OA
HETATM   10  H11 UNL     1      23.256   2.576  53.365  1.00  0.00     0.169 HD
BRANCH   8  11
HETATM   11  C2  UNL     1      21.420   0.815  52.288  1.00  0.00     0.016 C 
HETATM   12  C1  UNL     1      20.447   0.642  51.423  1.00  0.00     0.046 C 
BRANCH  11  13
HETATM   13  C3  UNL     1      21.470   0.411  53.700  1.00  0.00     0.311 C 
BRANCH  13  14
HETATM   14  N1  UNL     1      21.948  -0.944  53.852  1.00  0.00     0.084 N 
HETATM   15  C4  UNL     1      20.798  -1.734  54.318  1.00  0.00     0.309 C 
HETATM   16  C5  UNL     1      22.946  -1.070  54.895  1.00  0.00     0.309 C 
ENDBRANCH  13  14
ENDBRANCH  11  13
ENDBRANCH   8  11
ENDBRANCH   1   7
BRANCH   6  17
HETATM   17  O2  UNL     1      26.138   1.199  52.378  1.00  0.00    -0.344 OA
BRANCH  17  18
HETATM   18  C13 UNL     1      26.668   1.449  53.662  1.00  0.00     0.222 C 
BRANCH  18  19
HETATM   19  C14 UNL     1      27.499   0.301  54.117  1.00  0.00     0.116 C 
HETATM   20  N3  UNL     1      28.504   0.046  53.363  1.00  0.00    -0.265 NA
BRANCH  20  21
HETATM   21  C15 UNL     1      29.441  -0.975  53.561  1.00  0.00     0.191 C 
BRANCH  21  22
HETATM   22  C16 UNL     1      28.954  -2.150  53.191  1.00  0.00    -0.006 C 
BRANCH  22  23
HETATM   23  N4  UNL     1      28.550  -3.365  53.102  1.00  0.00    -0.257 NA
HETATM   24  H22 UNL     1      28.355  -3.858  54.020  1.00  0.00     0.197 HD
ENDBRANCH  22  23
ENDBRANCH  21  22
ENDBRANCH  20  21
ENDBRANCH  18  19
ENDBRANCH  17  18
ENDBRANCH   6  17
TORSDOF 10
ENDMDL
MODEL 5
REMARK VINA RESULT:      -6.2      1.708      2.273
REMARK  10 active torsions:
REMARK  status: ('A' for Active; 'I' for Inactive)
REMARK    1  A    between atoms: C2_2  and  C3_3 
REMARK    2  A    between atoms: C2_2  and  C6_7 
REMARK    3  A    between atoms: C3_3  and  N1_4 
REMARK       I    between atoms: C6_7  and  N2_9 
REMARK    4  A    between atoms: N2_9  and  C7_10 
REMARK    5  A    between atoms: C12_15  and  O2_16 
REMARK    6  A    between atoms: O2_16  and  C13_17 
REMARK    7  A    between atoms: C13_17  and  C14_18 
REMARK    8  A    between atoms: N3_19  and  C15_20 
REMARK    9  A    between atoms: C15_20  and  C16_21 
REMARK   10  A    between atoms: C16_21  and  N4_22 
ROOT
HETATM    1  C7  UNL     1      22.468   0.702  52.277  1.00  0.00     0.064 A 
HETATM    2  C8  UNL     1      21.267   0.822  52.857  1.00  0.00     0.006 A 
HETATM    3  C9  UNL     1      20.611   0.357  54.099  1.00  0.00     0.033 A 
HETATM    4  C10 UNL     1      21.576  -0.464  54.904  1.00  0.00     0.034 A 
HETATM    5  C11 UNL     1      22.870  -0.544  54.195  1.00  0.00     0.012 A 
HETATM    6  C12 UNL     1      23.405  -0.110  53.084  1.00  0.00     0.091 A 
ENDROOT
BRANCH   1   7
HETATM    7  N2  UNL     1      22.983   1.222  51.034  1.00  0.00    -0.321 N 
HETATM    8  C6  UNL     1      23.351   2.577  51.170  1.00  0.00     0.250 C 
HETATM    9  O1  UNL     1      23.154   3.029  52.335  1.00  0.00    -0.268 OA
HETATM   10  H11 UNL     1      23.132   0.795  50.071  1.00  0.00     0.169 HD
BRANCH   8  11
HETATM   11  C2  UNL     1      23.908   3.446  50.141  1.00  0.00     0.016 C 
HETATM   12  C1  UNL     1      23.375   3.219  48.962  1.00  0.00     0.046 C 
BRANCH  11  13
HETATM   13  C3  UNL     1      24.939   4.428  50.504  1.00  0.00     0.311 C 
BRANCH  13  14
HETATM   14  N1  UNL     1      24.564   5.767  50.110  1.00  0.00     0.084 N 
HETATM   15  C4  UNL     1      25.807   6.432  49.691  1.00  0.00     0.309 C 
HETATM   16  C5  UNL     1      24.063   6.555  51.219  1.00  0.00     0.309 C 
ENDBRANCH  13  14
ENDBRANCH  11  13
ENDBRANCH   8  11
ENDBRANCH   1   7
BRANCH   6  17
HETATM   17  O2  UNL     1      24.710  -0.414  52.760  1.00  0.00    -0.344 OA
BRANCH  17  18
HETATM   18  C13 UNL     1      25.783   0.472  52.994  1.00  0.00     0.222 C 
BRANCH  18  19
HETATM   19  C14 UNL     1      27.080  -0.179  52.660  1.00  0.00     0.116 C 
HETATM   20  N3  UNL     1      27.847  -0.374  53.667  1.00  0.00    -0.265 NA
BRANCH  20  21
HETATM   21  C15 UNL     1      29.116  -0.965  53.632  1.00  0.00     0.191 C 
BRANCH  21  22
HETATM   22  C16 UNL     1      29.041  -2.240  53.283  1.00  0.00    -0.006 C 
BRANCH  22  23
HETATM   23  N4  UNL     1      28.735  -3.476  53.115  1.00  0.00    -0.257 NA
HETATM   24  H22 UNL     1      27.923  -3.836  53.693  1.00  0.00     0.197 HD
ENDBRANCH  22  23
ENDBRANCH  21  22
ENDBRANCH  20  21
ENDBRANCH  18  19
ENDBRANCH  17  18
ENDBRANCH   6  17
TORSDOF 10
ENDMDL
MODEL 6
REMARK VINA RESULT:      -5.9      1.884      5.353
REMARK  10 active torsions:
REMARK  status: ('A' for Active; 'I' for Inactive)
REMARK    1  A    between atoms: C2_2  and  C3_3 
REMARK    2  A    between atoms: C2_2  and  C6_7 
REMARK    3  A    between atoms: C3_3  and  N1_4 
REMARK       I    between atoms: C6_7  and  N2_9 
REMARK    4  A    between atoms: N2_9  and  C7_10 
REMARK    5  A    between atoms: C12_15  and  O2_16 
REMARK    6  A    between atoms: O2_16  and  C13_17 
REMARK    7  A    between atoms: C13_17  and  C14_18 
REMARK    8  A    between atoms: N3_19  and  C15_20 
REMARK    9  A    between atoms: C15_20  and  C16_21 
REMARK   10  A    between atoms: C16_21  and  N4_22 
ROOT
HETATM    1  C7  UNL     1      27.335   1.024  53.424  1.00  0.00     0.064 A 
HETATM    2  C8  UNL     1      28.660   1.210  53.436  1.00  0.00     0.006 A 
HETATM    3  C9  UNL     1      29.875   0.366  53.497  1.00  0.00     0.033 A 
HETATM    4  C10 UNL     1      29.482  -1.081  53.557  1.00  0.00     0.034 A 
HETATM    5  C11 UNL     1      28.009  -1.196  53.538  1.00  0.00     0.012 A 
HETATM    6  C12 UNL     1      26.968  -0.408  53.484  1.00  0.00     0.091 A 
ENDROOT
BRANCH   1   7
HETATM    7  N2  UNL     1      26.240   1.960  53.361  1.00  0.00    -0.321 N 
HETATM    8  C6  UNL     1      25.882   2.224  52.022  1.00  0.00     0.250 C 
HETATM    9  O1  UNL     1      26.587   1.588  51.186  1.00  0.00    -0.268 OA
HETATM   10  H11 UNL     1      25.674   2.471  54.101  1.00  0.00     0.169 HD
BRANCH   8  11
HETATM   11  C2  UNL     1      24.828   3.114  51.551  1.00  0.00     0.016 C 
HETATM   12  C1  UNL     1      24.003   3.455  52.515  1.00  0.00     0.046 C 
BRANCH  11  13
HETATM   13  C3  UNL     1      24.800   3.518  50.139  1.00  0.00     0.311 C 
BRANCH  13  14
HETATM   14  N1  UNL     1      25.573   4.717  49.910  1.00  0.00     0.084 N 
HETATM   15  C4  UNL     1      24.750   5.574  49.043  1.00  0.00     0.309 C 
HETATM   16  C5  UNL     1      26.785   4.464  49.158  1.00  0.00     0.309 C 
ENDBRANCH  13  14
ENDBRANCH  11  13
ENDBRANCH   8  11
ENDBRANCH   1   7
BRANCH   6  17
HETATM   17  O2  UNL     1      25.689  -0.923  53.487  1.00  0.00    -0.344 OA
BRANCH  17  18
HETATM   18  C13 UNL     1      24.871  -0.936  54.637  1.00  0.00     0.222 C 
BRANCH  18  19
HETATM   19  C14 UNL     1      23.443  -0.741  54.265  1.00  0.00     0.116 C 
HETATM   20  N3  UNL     1      23.266  -0.118  53.160  1.00  0.00    -0.265 NA
BRANCH  20  21
HETATM   21  C15 UNL     1      22.029   0.197  52.582  1.00  0.00     0.191 C 
BRANCH  21  22
HETATM   22  C16 UNL     1      21.028  -0.259  53.319  1.00  0.00    -0.006 C 
BRANCH  22  23
HETATM   23  N4  UNL     1      20.032  -0.425  54.112  1.00  0.00    -0.257 NA
HETATM   24  H22 UNL     1      20.225  -0.257  55.141  1.00  0.00     0.197 HD
ENDBRANCH  22  23
ENDBRANCH  21  22
ENDBRANCH  20  21
ENDBRANCH  18  19
ENDBRANCH  17  18
ENDBRANCH   6  17
TORSDOF 10
ENDMDL
MODEL 7
REMARK VINA RESULT:      -5.9      2.038      5.434
REMARK  10 active torsions:
REMARK  status: ('A' for Active; 'I' for Inactive)
REMARK    1  A    between atoms: C2_2  and  C3_3 
REMARK    2  A    between atoms: C2_2  and  C6_7 
REMARK    3  A    between atoms: C3_3  and  N1_4 
REMARK       I    between atoms: C6_7  and  N2_9 
REMARK    4  A    between atoms: N2_9  and  C7_10 
REMARK    5  A    between atoms: C12_15  and  O2_16 
REMARK    6  A    between atoms: O2_16  and  C13_17 
REMARK    7  A    between atoms: C13_17  and  C14_18 
REMARK    8  A    between atoms: N3_19  and  C15_20 
REMARK    9  A    between atoms: C15_20  and  C16_21 
REMARK   10  A    between atoms: C16_21  and  N4_22 
ROOT
HETATM    1  C7  UNL     1      26.782   2.030  53.503  1.00  0.00     0.064 A 
HETATM    2  C8  UNL     1      28.106   2.196  53.607  1.00  0.00     0.006 A 
HETATM    3  C9  UNL     1      29.248   1.467  54.202  1.00  0.00     0.033 A 
HETATM    4  C10 UNL     1      28.759   0.208  54.854  1.00  0.00     0.034 A 
HETATM    5  C11 UNL     1      27.294   0.103  54.693  1.00  0.00     0.012 A 
HETATM    6  C12 UNL     1      26.319   0.783  54.152  1.00  0.00     0.091 A 
ENDROOT
BRANCH   1   7
HETATM    7  N2  UNL     1      25.764   2.839  52.879  1.00  0.00    -0.321 N 
HETATM    8  C6  UNL     1      25.686   2.571  51.496  1.00  0.00     0.250 C 
HETATM    9  O1  UNL     1      26.511   1.690  51.116  1.00  0.00    -0.268 OA
HETATM   10  H11 UNL     1      25.088   3.573  53.248  1.00  0.00     0.169 HD
BRANCH   8  11
HETATM   11  C2  UNL     1      24.787   3.186  50.529  1.00  0.00     0.016 C 
HETATM   12  C1  UNL     1      25.438   3.720  49.521  1.00  0.00     0.046 C 
BRANCH  11  13
HETATM   13  C3  UNL     1      23.337   3.145  50.761  1.00  0.00     0.311 C 
BRANCH  13  14
HETATM   14  N1  UNL     1      22.610   2.825  49.554  1.00  0.00     0.084 N 
HETATM   15  C4  UNL     1      21.452   3.730  49.522  1.00  0.00     0.309 C 
HETATM   16  C5  UNL     1      22.051   1.489  49.577  1.00  0.00     0.309 C 
ENDBRANCH  13  14
ENDBRANCH  11  13
ENDBRANCH   8  11
ENDBRANCH   1   7
BRANCH   6  17
HETATM   17  O2  UNL     1      25.018   0.331  54.216  1.00  0.00    -0.344 OA
BRANCH  17  18
HETATM   18  C13 UNL     1      24.453  -0.518  53.240  1.00  0.00     0.222 C 
BRANCH  18  19
HETATM   19  C14 UNL     1      23.023  -0.175  53.014  1.00  0.00     0.116 C 
HETATM   20  N3  UNL     1      22.318  -0.118  54.082  1.00  0.00    -0.265 NA
BRANCH  20  21
HETATM   21  C15 UNL     1      20.952   0.182  54.151  1.00  0.00     0.191 C 
BRANCH  21  22
HETATM   22  C16 UNL     1      20.630   1.145  53.302  1.00  0.00    -0.006 C 
BRANCH  22  23
HETATM   23  N4  UNL     1      20.280   2.233  52.717  1.00  0.00    -0.257 NA
HETATM   24  H22 UNL     1      21.060   2.786  52.258  1.00  0.00     0.197 HD
ENDBRANCH  22  23
ENDBRANCH  21  22
ENDBRANCH  20  21
ENDBRANCH  18  19
ENDBRANCH  17  18
ENDBRANCH   6  17
TORSDOF 10
ENDMDL
MODEL 8
REMARK VINA RESULT:      -5.9      2.271      3.009
REMARK  10 active torsions:
REMARK  status: ('A' for Active; 'I' for Inactive)
REMARK    1  A    between atoms: C2_2  and  C3_3 
REMARK    2  A    between atoms: C2_2  and  C6_7 
REMARK    3  A    between atoms: C3_3  and  N1_4 
REMARK       I    between atoms: C6_7  and  N2_9 
REMARK    4  A    between atoms: N2_9  and  C7_10 
REMARK    5  A    between atoms: C12_15  and  O2_16 
REMARK    6  A    between atoms: O2_16  and  C13_17 
REMARK    7  A    between atoms: C13_17  and  C14_18 
REMARK    8  A    between atoms: N3_19  and  C15_20 
REMARK    9  A    between atoms: C15_20  and  C16_21 
REMARK   10  A    between atoms: C16_21  and  N4_22 
ROOT
HETATM    1  C7  UNL     1      22.975   2.056  52.528  1.00  0.00     0.064 A 
HETATM    2  C8  UNL     1      21.759   1.500  52.460  1.00  0.00     0.006 A 
HETATM    3  C9  UNL     1      21.146   0.190  52.774  1.00  0.00     0.033 A 
HETATM    4  C10 UNL     1      22.192  -0.741  53.314  1.00  0.00     0.034 A 
HETATM    5  C11 UNL     1      23.497  -0.050  53.357  1.00  0.00     0.012 A 
HETATM    6  C12 UNL     1      23.991   1.123  53.063  1.00  0.00     0.091 A 
ENDROOT
BRANCH   1   7
HETATM    7  N2  UNL     1      23.441   3.375  52.180  1.00  0.00    -0.321 N 
HETATM    8  C6  UNL     1      23.735   3.458  50.803  1.00  0.00     0.250 C 
HETATM    9  O1  UNL     1      23.524   2.374  50.186  1.00  0.00    -0.268 OA
HETATM   10  H11 UNL     1      23.601   4.264  52.742  1.00  0.00     0.169 HD
BRANCH   8  11
HETATM   11  C2  UNL     1      24.229   4.620  50.075  1.00  0.00     0.016 C 
HETATM   12  C1  UNL     1      25.518   4.538  49.833  1.00  0.00     0.046 C 
BRANCH  11  13
HETATM   13  C3  UNL     1      23.297   5.693  49.707  1.00  0.00     0.311 C 
BRANCH  13  14
HETATM   14  N1  UNL     1      23.109   6.634  50.787  1.00  0.00     0.084 N 
HETATM   15  C4  UNL     1      21.655   6.796  50.940  1.00  0.00     0.309 C 
HETATM   16  C5  UNL     1      23.611   7.956  50.470  1.00  0.00     0.309 C 
ENDBRANCH  13  14
ENDBRANCH  11  13
ENDBRANCH   8  11
ENDBRANCH   1   7
BRANCH   6  17
HETATM   17  O2  UNL     1      25.329   1.397  53.255  1.00  0.00    -0.344 OA
BRANCH  17  18
HETATM   18  C13 UNL     1      26.298   1.226  52.243  1.00  0.00     0.222 C 
BRANCH  18  19
HETATM   19  C14 UNL     1      27.617   0.873  52.837  1.00  0.00     0.116 C 
HETATM   20  N3  UNL     1      27.848  -0.386  52.895  1.00  0.00    -0.265 NA
BRANCH  20  21
HETATM   21  C15 UNL     1      29.006  -0.986  53.405  1.00  0.00     0.191 C 
BRANCH  21  22
HETATM   22  C16 UNL     1      28.945  -2.305  53.305  1.00  0.00    -0.006 C 
BRANCH  22  23
HETATM   23  N4  UNL     1      28.612  -3.534  53.134  1.00  0.00    -0.257 NA
HETATM   24  H22 UNL     1      27.941  -3.726  52.336  1.00  0.00     0.197 HD
ENDBRANCH  22  23
ENDBRANCH  21  22
ENDBRANCH  20  21
ENDBRANCH  18  19
ENDBRANCH  17  18
ENDBRANCH   6  17
TORSDOF 10
ENDMDL
MODEL 9
REMARK VINA RESULT:      -5.8      1.891      5.418
REMARK  10 active torsions:
REMARK  status: ('A' for Active; 'I' for Inactive)
REMARK    1  A    between atoms: C2_2  and  C3_3 
REMARK    2  A    between atoms: C2_2  and  C6_7 
REMARK    3  A    between atoms: C3_3  and  N1_4 
REMARK       I    between atoms: C6_7  and  N2_9 
REMARK    4  A    between atoms: N2_9  and  C7_10 
REMARK    5  A    between atoms: C12_15  and  O2_16 
REMARK    6  A    between atoms: O2_16  and  C13_17 
REMARK    7  A    between atoms: C13_17  and  C14_18 
REMARK    8  A    between atoms: N3_19  and  C15_20 
REMARK    9  A    between atoms: C15_20  and  C16_21 
REMARK   10  A    between atoms: C16_21  and  N4_22 
ROOT
HETATM    1  C7  UNL     1      22.947   3.824  50.498  1.00  0.00     0.064 A 
HETATM    2  C8  UNL     1      21.874   4.056  49.732  1.00  0.00     0.006 A 
HETATM    3  C9  UNL     1      21.577   4.760  48.465  1.00  0.00     0.033 A 
HETATM    4  C10 UNL     1      22.836   5.360  47.912  1.00  0.00     0.034 A 
HETATM    5  C11 UNL     1      23.967   5.056  48.813  1.00  0.00     0.012 A 
HETATM    6  C12 UNL     1      24.179   4.423  49.937  1.00  0.00     0.091 A 
ENDROOT
BRANCH   1   7
HETATM    7  N2  UNL     1      23.097   3.105  51.738  1.00  0.00    -0.321 N 
HETATM    8  C6  UNL     1      22.986   1.714  51.529  1.00  0.00     0.250 C 
HETATM    9  O1  UNL     1      22.787   1.410  50.318  1.00  0.00    -0.268 OA
HETATM   10  H11 UNL     1      23.267   3.410  52.742  1.00  0.00     0.169 HD
BRANCH   8  11
HETATM   11  C2  UNL     1      23.079   0.662  52.533  1.00  0.00     0.016 C 
HETATM   12  C1  UNL     1      24.120   0.821  53.319  1.00  0.00     0.046 C 
BRANCH  11  13
HETATM   13  C3  UNL     1      22.064  -0.399  52.566  1.00  0.00     0.311 C 
BRANCH  13  14
HETATM   14  N1  UNL     1      21.150  -0.231  53.672  1.00  0.00     0.084 N 
HETATM   15  C4  UNL     1      21.289  -1.436  54.504  1.00  0.00     0.309 C 
HETATM   16  C5  UNL     1      19.763  -0.214  53.253  1.00  0.00     0.309 C 
ENDBRANCH  13  14
ENDBRANCH  11  13
ENDBRANCH   8  11
ENDBRANCH   1   7
BRANCH   6  17
HETATM   17  O2  UNL     1      25.441   4.359  50.487  1.00  0.00    -0.344 OA
BRANCH  17  18
HETATM   18  C13 UNL     1      26.429   3.459  50.036  1.00  0.00     0.222 C 
BRANCH  18  19
HETATM   19  C14 UNL     1      26.574   2.322  50.986  1.00  0.00     0.116 C 
HETATM   20  N3  UNL     1      27.457   2.505  51.896  1.00  0.00    -0.265 NA
BRANCH  20  21
HETATM   21  C15 UNL     1      27.792   1.599  52.910  1.00  0.00     0.191 C 
BRANCH  21  22
HETATM   22  C16 UNL     1      28.676   2.122  53.745  1.00  0.00    -0.006 C 
BRANCH  22  23
HETATM   23  N4  UNL     1      29.620   2.356  54.585  1.00  0.00    -0.257 NA
HETATM   24  H22 UNL     1      29.879   1.554  55.228  1.00  0.00     0.197 HD
ENDBRANCH  22  23
ENDBRANCH  21  22
ENDBRANCH  20  21
ENDBRANCH  18  19
ENDBRANCH  17  18
ENDBRANCH   6  17
TORSDOF 10
ENDMDL
