MODEL 1
REMARK VINA RESULT:      -8.3      0.000      0.000
REMARK  2 active torsions:
REMARK  status: ('A' for Active; 'I' for Inactive)
REMARK    1  A    between atoms: C2_2  and  C3_3 
REMARK    2  A    between atoms: C8_9  and  S1_10 
ROOT
HETATM    1  C3  UNL     1      28.758  -0.052  53.596  1.00  0.00    -0.061 A 
HETATM    2  C4  UNL     1      27.951   0.925  53.703  1.00  0.00     0.015 A 
HETATM    3  C5  UNL     1      28.130   2.291  52.934  1.00  0.00     0.022 A 
HETATM    4  C6  UNL     1      28.239   1.088  53.425  1.00  0.00     0.015 A 
HETATM    5  N1  UNL     1      27.250   2.041  54.154  1.00  0.00     0.000 N 
HETATM    6  C7  UNL     1      25.899   2.518  53.725  1.00  0.00     0.084 C 
HETATM    7  C8  UNL     1      25.099   1.262  53.721  1.00  0.00     0.207 C 
HETATM    8  N2  UNL     1      25.779   0.380  54.499  1.00  0.00     0.256 N 
HETATM    9  C14 UNL     1      25.044  -0.875  54.479  1.00  0.00     0.430 A 
HETATM   10  N3  UNL     1      26.378  -0.863  54.547  1.00  0.00     0.035 NA
HETATM   11  O1  UNL     1      27.165   0.213  54.583  1.00  0.00     0.000 OA
HETATM   12  H5  UNL     1      27.489   2.439  55.143  1.00  0.00     0.000 HD
ENDROOT
BRANCH   7  13
HETATM   13  S1  UNL     1      23.552   0.978  52.922  1.00  0.00    -0.113 SA
HETATM   14  C9  UNL     1      23.435   1.437  51.302  1.00  0.00     0.048 A 
HETATM   15  C10 UNL     1      22.162   1.178  50.660  1.00  0.00     0.050 A 
HETATM   16  C11 UNL     1      21.116   0.617  51.246  1.00  0.00     0.139 A 
HETATM   17  F1  UNL     1      20.021   0.469  50.462  1.00  0.00    -0.204 F 
HETATM   18  C12 UNL     1      21.111   0.176  52.633  1.00  0.00     0.078 A 
HETATM   19 CL1  UNL     1      19.603  -0.545  53.197  1.00  0.00    -0.081 Cl
HETATM   20  C13 UNL     1      22.072   0.233  53.561  1.00  0.00     0.072 A 
ENDBRANCH   7  13
BRANCH   1  21
HETATM   21  C2  UNL     1      29.591  -1.195  53.553  1.00  0.00    -0.022 C 
HETATM   22  C1  UNL     1      29.180  -2.431  53.181  1.00  0.00     0.031 C 
ENDBRANCH   1  21
TORSDOF 2
ENDMDL
MODEL 2
REMARK VINA RESULT:      -7.6      4.130      6.860
REMARK  2 active torsions:
REMARK  status: ('A' for Active; 'I' for Inactive)
REMARK    1  A    between atoms: C2_2  and  C3_3 
REMARK    2  A    between atoms: C8_9  and  S1_10 
ROOT
HETATM    1  C3  UNL     1      22.796   2.528  49.448  1.00  0.00    -0.061 A 
HETATM    2  C4  UNL     1      23.058   2.545  50.693  1.00  0.00     0.015 A 
HETATM    3  C5  UNL     1      22.156   1.849  51.785  1.00  0.00     0.022 A 
HETATM    4  C6  UNL     1      22.693   2.317  50.691  1.00  0.00     0.015 A 
HETATM    5  N1  UNL     1      23.212   2.922  52.025  1.00  0.00     0.000 N 
HETATM    6  C7  UNL     1      24.108   2.317  53.059  1.00  0.00     0.084 C 
HETATM    7  C8  UNL     1      25.393   2.162  52.322  1.00  0.00     0.207 C 
HETATM    8  N2  UNL     1      25.321   3.004  51.259  1.00  0.00     0.256 N 
HETATM    9  C14 UNL     1      26.546   2.842  50.491  1.00  0.00     0.430 A 
HETATM   10  N3  UNL     1      25.387   3.102  49.883  1.00  0.00     0.035 NA
HETATM   11  O1  UNL     1      24.202   3.282  50.468  1.00  0.00     0.000 OA
HETATM   12  H5  UNL     1      22.957   3.947  52.308  1.00  0.00     0.000 HD
ENDROOT
BRANCH   7  13
HETATM   13  S1  UNL     1      26.763   1.140  52.759  1.00  0.00    -0.113 SA
HETATM   14  C9  UNL     1      28.086   1.902  53.476  1.00  0.00     0.048 A 
HETATM   15  C10 UNL     1      29.192   1.041  53.843  1.00  0.00     0.050 A 
HETATM   16  C11 UNL     1      29.228  -0.269  53.660  1.00  0.00     0.139 A 
HETATM   17  F1  UNL     1      30.362  -0.883  54.075  1.00  0.00    -0.204 F 
HETATM   18  C12 UNL     1      28.140  -1.028  53.059  1.00  0.00     0.078 A 
HETATM   19 CL1  UNL     1      28.411  -2.765  52.918  1.00  0.00    -0.081 Cl
HETATM   20  C13 UNL     1      26.957  -0.617  52.590  1.00  0.00     0.072 A 
ENDBRANCH   7  13
BRANCH   1  21
HETATM   21  C2  UNL     1      22.597   2.572  48.049  1.00  0.00    -0.022 C 
HETATM   22  C1  UNL     1      21.441   2.943  47.449  1.00  0.00     0.031 C 
ENDBRANCH   1  21
TORSDOF 2
ENDMDL
MODEL 3
REMARK VINA RESULT:      -7.4      2.934      3.708
REMARK  2 active torsions:
REMARK  status: ('A' for Active; 'I' for Inactive)
REMARK    1  A    between atoms: C2_2  and  C3_3 
REMARK    2  A    between atoms: C8_9  and  S1_10 
ROOT
HETATM    1  C3  UNL     1      27.603   0.006  54.212  1.00  0.00    -0.061 A 
HETATM    2  C4  UNL     1      26.380  -0.190  53.919  1.00  0.00     0.015 A 
HETATM    3  C5  UNL     1      25.282  -0.587  54.980  1.00  0.00     0.022 A 
HETATM    4  C6  UNL     1      26.374  -0.263  54.344  1.00  0.00     0.015 A 
HETATM    5  N1  UNL     1      25.182  -0.737  53.467  1.00  0.00     0.000 N 
HETATM    6  C7  UNL     1      23.914  -0.023  53.119  1.00  0.00     0.084 C 
HETATM    7  C8  UNL     1      24.402   1.123  52.303  1.00  0.00     0.207 C 
HETATM    8  N2  UNL     1      25.645   0.780  51.877  1.00  0.00     0.256 N 
HETATM    9  C14 UNL     1      26.169   1.901  51.113  1.00  0.00     0.430 A 
HETATM   10  N3  UNL     1      26.978   1.143  51.857  1.00  0.00     0.035 NA
HETATM   11  O1  UNL     1      26.627   0.086  52.591  1.00  0.00     0.000 OA
HETATM   12  H5  UNL     1      25.210  -1.709  52.969  1.00  0.00     0.000 HD
ENDROOT
BRANCH   7  13
HETATM   13  S1  UNL     1      23.533   2.607  51.912  1.00  0.00    -0.113 SA
HETATM   14  C9  UNL     1      23.732   3.909  52.967  1.00  0.00     0.048 A 
HETATM   15  C10 UNL     1      23.023   5.123  52.616  1.00  0.00     0.050 A 
HETATM   16  C11 UNL     1      22.254   5.274  51.550  1.00  0.00     0.139 A 
HETATM   17  F1  UNL     1      21.683   6.494  51.413  1.00  0.00    -0.204 F 
HETATM   18  C12 UNL     1      22.021   4.221  50.572  1.00  0.00     0.078 A 
HETATM   19 CL1  UNL     1      20.959   4.651  49.230  1.00  0.00    -0.081 Cl
HETATM   20  C13 UNL     1      22.481   2.967  50.526  1.00  0.00     0.072 A 
ENDBRANCH   7  13
BRANCH   1  21
HETATM   21  C2  UNL     1      28.980   0.244  54.427  1.00  0.00    -0.022 C 
HETATM   22  C1  UNL     1      29.973  -0.229  53.636  1.00  0.00     0.031 C 
ENDBRANCH   1  21
TORSDOF 2
ENDMDL
MODEL 4
REMARK VINA RESULT:      -7.3      4.066      6.953
REMARK  2 active torsions:
REMARK  status: ('A' for Active; 'I' for Inactive)
REMARK    1  A    between atoms: C2_2  and  C3_3 
REMARK    2  A    between atoms: C8_9  and  S1_10 
ROOT
HETATM    1  C3  UNL     1      21.468   1.047  49.972  1.00  0.00    -0.061 A 
HETATM    2  C4  UNL     1      21.738   0.897  51.206  1.00  0.00     0.015 A 
HETATM    3  C5  UNL     1      21.250  -0.335  52.063  1.00  0.00     0.022 A 
HETATM    4  C6  UNL     1      21.503   0.543  51.132  1.00  0.00     0.015 A 
HETATM    5  N1  UNL     1      21.761   1.000  52.595  1.00  0.00     0.000 N 
HETATM    6  C7  UNL     1      22.861   0.615  53.532  1.00  0.00     0.084 C 
HETATM    7  C8  UNL     1      24.067   1.179  52.865  1.00  0.00     0.207 C 
HETATM    8  N2  UNL     1      23.612   2.124  52.003  1.00  0.00     0.256 N 
HETATM    9  C14 UNL     1      24.765   2.664  51.300  1.00  0.00     0.430 A 
HETATM   10  N3  UNL     1      23.586   2.542  50.686  1.00  0.00     0.035 NA
HETATM   11  O1  UNL     1      22.455   2.075  51.218  1.00  0.00     0.000 OA
HETATM   12  H5  UNL     1      21.106   1.733  53.072  1.00  0.00     0.000 HD
ENDROOT
BRANCH   7  13
HETATM   13  S1  UNL     1      25.753   0.756  53.162  1.00  0.00    -0.113 SA
HETATM   14  C9  UNL     1      26.253  -0.780  52.673  1.00  0.00     0.048 A 
HETATM   15  C10 UNL     1      27.646  -1.099  52.911  1.00  0.00     0.050 A 
HETATM   16  C11 UNL     1      28.528  -0.285  53.468  1.00  0.00     0.139 A 
HETATM   17  F1  UNL     1      29.780  -0.784  53.598  1.00  0.00    -0.204 F 
HETATM   18  C12 UNL     1      28.207   1.063  53.918  1.00  0.00     0.078 A 
HETATM   19 CL1  UNL     1      29.544   1.966  54.629  1.00  0.00    -0.081 Cl
HETATM   20  C13 UNL     1      27.050   1.732  53.882  1.00  0.00     0.072 A 
ENDBRANCH   7  13
BRANCH   1  21
HETATM   21  C2  UNL     1      21.225   1.310  48.604  1.00  0.00    -0.022 C 
HETATM   22  C1  UNL     1      20.307   2.194  48.144  1.00  0.00     0.031 C 
ENDBRANCH   1  21
TORSDOF 2
ENDMDL
MODEL 5
REMARK VINA RESULT:      -7.2      2.247      2.592
REMARK  2 active torsions:
REMARK  status: ('A' for Active; 'I' for Inactive)
REMARK    1  A    between atoms: C2_2  and  C3_3 
REMARK    2  A    between atoms: C8_9  and  S1_10 
ROOT
HETATM    1  C3  UNL     1      26.704   0.053  52.497  1.00  0.00    -0.061 A 
HETATM    2  C4  UNL     1      26.171   1.196  52.338  1.00  0.00     0.015 A 
HETATM    3  C5  UNL     1      26.659   2.245  51.265  1.00  0.00     0.022 A 
HETATM    4  C6  UNL     1      26.481   1.210  52.038  1.00  0.00     0.015 A 
HETATM    5  N1  UNL     1      25.786   2.528  52.483  1.00  0.00     0.000 N 
HETATM    6  C7  UNL     1      24.584   3.208  51.911  1.00  0.00     0.084 C 
HETATM    7  C8  UNL     1      23.495   2.231  52.190  1.00  0.00     0.207 C 
HETATM    8  N2  UNL     1      23.959   1.423  53.178  1.00  0.00     0.256 N 
HETATM    9  C14 UNL     1      22.934   0.426  53.443  1.00  0.00     0.430 A 
HETATM   10  N3  UNL     1      24.229   0.120  53.546  1.00  0.00     0.035 NA
HETATM   11  O1  UNL     1      25.261   0.940  53.342  1.00  0.00     0.000 OA
HETATM   12  H5  UNL     1      26.150   3.082  53.352  1.00  0.00     0.000 HD
ENDROOT
BRANCH   7  13
HETATM   13  S1  UNL     1      21.902   2.158  51.438  1.00  0.00    -0.113 SA
HETATM   14  C9  UNL     1      21.772   1.271  50.008  1.00  0.00     0.048 A 
HETATM   15  C10 UNL     1      20.450   1.210  49.417  1.00  0.00     0.050 A 
HETATM   16  C11 UNL     1      19.368   1.785  49.915  1.00  0.00     0.139 A 
HETATM   17  F1  UNL     1      18.231   1.603  49.202  1.00  0.00    -0.204 F 
HETATM   18  C12 UNL     1      19.365   2.564  51.146  1.00  0.00     0.078 A 
HETATM   19 CL1  UNL     1      17.803   3.235  51.617  1.00  0.00    -0.081 Cl
HETATM   20  C13 UNL     1      20.364   2.859  51.983  1.00  0.00     0.072 A 
ENDBRANCH   7  13
BRANCH   1  21
HETATM   21  C2  UNL     1      27.223  -1.237  52.758  1.00  0.00    -0.022 C 
HETATM   22  C1  UNL     1      28.494  -1.488  53.153  1.00  0.00     0.031 C 
ENDBRANCH   1  21
TORSDOF 2
ENDMDL
MODEL 6
REMARK VINA RESULT:      -7.1     10.212     11.580
REMARK  2 active torsions:
REMARK  status: ('A' for Active; 'I' for Inactive)
REMARK    1  A    between atoms: C2_2  and  C3_3 
REMARK    2  A    between atoms: C8_9  and  S1_10 
ROOT
HETATM    1  C3  UNL     1      32.559   3.203  47.132  1.00  0.00    -0.061 A 
HETATM    2  C4  UNL     1      33.132   4.149  47.759  1.00  0.00     0.015 A 
HETATM    3  C5  UNL     1      34.645   4.546  47.550  1.00  0.00     0.022 A 
HETATM    4  C6  UNL     1      33.457   4.007  47.514  1.00  0.00     0.015 A 
HETATM    5  N1  UNL     1      33.758   4.928  48.730  1.00  0.00     0.000 N 
HETATM    6  C7  UNL     1      33.865   6.418  48.791  1.00  0.00     0.084 C 
HETATM    7  C8  UNL     1      32.479   6.856  48.467  1.00  0.00     0.207 C 
HETATM    8  N2  UNL     1      31.682   5.781  48.700  1.00  0.00     0.256 N 
HETATM    9  C14 UNL     1      30.323   6.164  48.349  1.00  0.00     0.430 A 
HETATM   10  N3  UNL     1      30.755   4.916  48.152  1.00  0.00     0.035 NA
HETATM   11  O1  UNL     1      31.967   4.437  48.439  1.00  0.00     0.000 OA
HETATM   12  H5  UNL     1      33.892   4.504  49.728  1.00  0.00     0.000 HD
ENDROOT
BRANCH   7  13
HETATM   13  S1  UNL     1      31.955   8.456  47.942  1.00  0.00    -0.113 SA
HETATM   14  C9  UNL     1      32.177   8.835  46.313  1.00  0.00     0.048 A 
HETATM   15  C10 UNL     1      31.723  10.148  45.901  1.00  0.00     0.050 A 
HETATM   16  C11 UNL     1      31.158  11.042  46.696  1.00  0.00     0.139 A 
HETATM   17  F1  UNL     1      30.810  12.209  46.104  1.00  0.00    -0.204 F 
HETATM   18  C12 UNL     1      30.912  10.816  48.113  1.00  0.00     0.078 A 
HETATM   19 CL1  UNL     1      30.145  12.151  48.974  1.00  0.00    -0.081 Cl
HETATM   20  C13 UNL     1      31.178   9.751  48.877  1.00  0.00     0.072 A 
ENDBRANCH   7  13
BRANCH   1  21
HETATM   21  C2  UNL     1      31.829   2.173  46.493  1.00  0.00    -0.022 C 
HETATM   22  C1  UNL     1      32.056   0.850  46.667  1.00  0.00     0.031 C 
ENDBRANCH   1  21
TORSDOF 2
ENDMDL
MODEL 7
REMARK VINA RESULT:      -7.1      4.611      6.721
REMARK  2 active torsions:
REMARK  status: ('A' for Active; 'I' for Inactive)
REMARK    1  A    between atoms: C2_2  and  C3_3 
REMARK    2  A    between atoms: C8_9  and  S1_10 
ROOT
HETATM    1  C3  UNL     1      21.287   0.315  53.135  1.00  0.00    -0.061 A 
HETATM    2  C4  UNL     1      21.440   0.692  51.930  1.00  0.00     0.015 A 
HETATM    3  C5  UNL     1      20.255   1.185  51.011  1.00  0.00     0.022 A 
HETATM    4  C6  UNL     1      21.015   0.743  51.976  1.00  0.00     0.015 A 
HETATM    5  N1  UNL     1      21.635   0.727  50.551  1.00  0.00     0.000 N 
HETATM    6  C7  UNL     1      22.129   1.865  49.716  1.00  0.00     0.084 C 
HETATM    7  C8  UNL     1      23.292   2.362  50.503  1.00  0.00     0.207 C 
HETATM    8  N2  UNL     1      23.646   1.346  51.332  1.00  0.00     0.256 N 
HETATM    9  C14 UNL     1      24.754   1.817  52.149  1.00  0.00     0.430 A 
HETATM   10  N3  UNL     1      23.848   0.972  52.647  1.00  0.00     0.035 NA
HETATM   11  O1  UNL     1      22.798   0.460  52.003  1.00  0.00     0.000 OA
HETATM   12  H5  UNL     1      21.796  -0.217  50.025  1.00  0.00     0.000 HD
ENDROOT
BRANCH   7  13
HETATM   13  S1  UNL     1      24.094   3.926  50.360  1.00  0.00    -0.113 SA
HETATM   14  C9  UNL     1      23.484   5.186  51.303  1.00  0.00     0.048 A 
HETATM   15  C10 UNL     1      24.169   6.457  51.183  1.00  0.00     0.050 A 
HETATM   16  C11 UNL     1      25.215   6.686  50.406  1.00  0.00     0.139 A 
HETATM   17  F1  UNL     1      25.702   7.950  50.444  1.00  0.00    -0.204 F 
HETATM   18  C12 UNL     1      25.826   5.671  49.559  1.00  0.00     0.078 A 
HETATM   19 CL1  UNL     1      27.213   6.207  48.610  1.00  0.00    -0.081 Cl
HETATM   20  C13 UNL     1      25.502   4.387  49.380  1.00  0.00     0.072 A 
ENDBRANCH   7  13
BRANCH   1  21
HETATM   21  C2  UNL     1      21.227  -0.125  54.478  1.00  0.00    -0.022 C 
HETATM   22  C1  UNL     1      21.941  -1.161  54.978  1.00  0.00     0.031 C 
ENDBRANCH   1  21
TORSDOF 2
ENDMDL
MODEL 8
REMARK VINA RESULT:      -7.0      3.805      4.789
REMARK  2 active torsions:
REMARK  status: ('A' for Active; 'I' for Inactive)
REMARK    1  A    between atoms: C2_2  and  C3_3 
REMARK    2  A    between atoms: C8_9  and  S1_10 
ROOT
HETATM    1  C3  UNL     1      25.652   4.752  49.874  1.00  0.00    -0.061 A 
HETATM    2  C4  UNL     1      24.733   4.923  50.735  1.00  0.00     0.015 A 
HETATM    3  C5  UNL     1      23.742   6.152  50.721  1.00  0.00     0.022 A 
HETATM    4  C6  UNL     1      24.675   5.271  50.486  1.00  0.00     0.015 A 
HETATM    5  N1  UNL     1      24.022   5.221  51.896  1.00  0.00     0.000 N 
HETATM    6  C7  UNL     1      22.667   4.735  52.300  1.00  0.00     0.084 C 
HETATM    7  C8  UNL     1      22.740   3.280  51.993  1.00  0.00     0.207 C 
HETATM    8  N2  UNL     1      24.062   2.977  51.923  1.00  0.00     0.256 N 
HETATM    9  C14 UNL     1      24.168   1.567  51.579  1.00  0.00     0.430 A 
HETATM   10  N3  UNL     1      25.066   2.450  51.133  1.00  0.00     0.035 NA
HETATM   11  O1  UNL     1      25.088   3.760  51.384  1.00  0.00     0.000 OA
HETATM   12  H5  UNL     1      24.581   5.541  52.779  1.00  0.00     0.000 HD
ENDROOT
BRANCH   7  13
HETATM   13  S1  UNL     1      21.395   2.154  51.810  1.00  0.00    -0.113 SA
HETATM   14  C9  UNL     1      20.570   2.183  50.339  1.00  0.00     0.048 A 
HETATM   15  C10 UNL     1      19.480   1.237  50.204  1.00  0.00     0.050 A 
HETATM   16  C11 UNL     1      19.104   0.373  51.133  1.00  0.00     0.139 A 
HETATM   17  F1  UNL     1      18.058  -0.420  50.801  1.00  0.00    -0.204 F 
HETATM   18  C12 UNL     1      19.752   0.257  52.432  1.00  0.00     0.078 A 
HETATM   19 CL1  UNL     1      19.080  -0.967  53.510  1.00  0.00    -0.081 Cl
HETATM   20  C13 UNL     1      20.781   0.937  52.948  1.00  0.00     0.072 A 
ENDBRANCH   7  13
BRANCH   1  21
HETATM   21  C2  UNL     1      26.704   4.467  48.971  1.00  0.00    -0.022 C 
HETATM   22  C1  UNL     1      27.659   5.353  48.602  1.00  0.00     0.031 C 
ENDBRANCH   1  21
TORSDOF 2
ENDMDL
MODEL 9
REMARK VINA RESULT:      -6.9     10.190     12.187
REMARK  2 active torsions:
REMARK  status: ('A' for Active; 'I' for Inactive)
REMARK    1  A    between atoms: C2_2  and  C3_3 
REMARK    2  A    between atoms: C8_9  and  S1_10 
ROOT
HETATM    1  C3  UNL     1      29.544   9.620  48.627  1.00  0.00    -0.061 A 
HETATM    2  C4  UNL     1      29.391   8.359  48.570  1.00  0.00     0.015 A 
HETATM    3  C5  UNL     1      28.246   7.655  47.744  1.00  0.00     0.022 A 
HETATM    4  C6  UNL     1      29.065   8.490  48.321  1.00  0.00     0.015 A 
HETATM    5  N1  UNL     1      29.079   7.032  48.858  1.00  0.00     0.000 N 
HETATM    6  C7  UNL     1      29.642   5.794  48.236  1.00  0.00     0.084 C 
HETATM    7  C8  UNL     1      31.104   6.080  48.212  1.00  0.00     0.207 C 
HETATM    8  N2  UNL     1      31.308   7.067  49.123  1.00  0.00     0.256 N 
HETATM    9  C14 UNL     1      32.724   7.401  49.092  1.00  0.00     0.430 A 
HETATM   10  N3  UNL     1      31.803   8.340  49.324  1.00  0.00     0.035 NA
HETATM   11  O1  UNL     1      30.483   8.164  49.389  1.00  0.00     0.000 OA
HETATM   12  H5  UNL     1      28.665   6.798  49.842  1.00  0.00     0.000 HD
ENDROOT
BRANCH   7  13
HETATM   13  S1  UNL     1      32.338   5.273  47.246  1.00  0.00    -0.113 SA
HETATM   14  C9  UNL     1      32.968   3.833  47.861  1.00  0.00     0.048 A 
HETATM   15  C10 UNL     1      33.968   3.177  47.042  1.00  0.00     0.050 A 
HETATM   16  C11 UNL     1      34.404   3.621  45.874  1.00  0.00     0.139 A 
HETATM   17  F1  UNL     1      35.345   2.853  45.275  1.00  0.00    -0.204 F 
HETATM   18  C12 UNL     1      33.923   4.845  45.249  1.00  0.00     0.078 A 
HETATM   19 CL1  UNL     1      34.649   5.237  43.689  1.00  0.00    -0.081 Cl
HETATM   20  C13 UNL     1      33.015   5.731  45.669  1.00  0.00     0.072 A 
ENDBRANCH   7  13
BRANCH   1  21
HETATM   21  C2  UNL     1      29.801  11.005  48.760  1.00  0.00    -0.022 C 
HETATM   22  C1  UNL     1      30.855  11.646  48.202  1.00  0.00     0.031 C 
ENDBRANCH   1  21
TORSDOF 2
ENDMDL
