MODEL 1
REMARK VINA RESULT:      -6.5      0.000      0.000
REMARK  1 active torsions:
REMARK  status: ('A' for Active; 'I' for Inactive)
REMARK    1  A    between atoms: S1_2  and  C2_3 
ROOT
HETATM    1  C2  UNL     1      24.544   2.059  53.001  1.00  0.00     0.261 C 
HETATM    2  N1  UNL     1      24.361   1.521  51.657  1.00  0.00    -0.360 N 
HETATM    3  C3  UNL     1      25.264   2.249  50.864  1.00  0.00     0.044 C 
HETATM    4  C4  UNL     1      24.330   2.901  50.144  1.00  0.00     0.142 C 
HETATM    5  N2  UNL     1      22.980   3.251  49.756  1.00  0.00    -0.273 NA
HETATM    6  C5  UNL     1      22.105   3.429  50.703  1.00  0.00     0.110 C 
HETATM    7  C6  UNL     1      22.236   3.339  52.171  1.00  0.00     0.190 C 
HETATM    8  N3  UNL     1      23.319   4.082  52.656  1.00  0.00    -0.314 N 
HETATM    9  C7  UNL     1      23.270   5.487  52.670  1.00  0.00     0.241 C 
HETATM   10  S2  UNL     1      23.217   6.216  51.046  1.00  0.00    -0.009 SA
HETATM   11  N4  UNL     1      24.653   6.142  50.123  1.00  0.00    -0.231 NA
HETATM   12  C8  UNL     1      25.405   7.081  49.729  1.00  0.00     0.098 C 
HETATM   13  C9  UNL     1      26.569   7.684  49.038  1.00  0.00     0.053 C 
HETATM   14  C10 UNL     1      27.208   6.785  48.033  1.00  0.00     0.053 C 
HETATM   15  C11 UNL     1      27.776   5.534  48.561  1.00  0.00     0.111 C 
HETATM   16  N5  UNL     1      27.681   4.362  49.052  1.00  0.00    -0.196 NA
HETATM   17  N6  UNL     1      26.477   3.679  49.333  1.00  0.00    -0.309 N 
HETATM   18  C12 UNL     1      26.562   2.701  50.392  1.00  0.00     0.199 C 
HETATM   19  N7  UNL     1      24.446   3.471  53.081  1.00  0.00    -0.305 N 
HETATM   20  H5  UNL     1      23.725   0.754  51.280  1.00  0.00     0.162 HD
HETATM   21  H18 UNL     1      25.834   4.108  48.631  1.00  0.00     0.182 HD
HETATM   22  H21 UNL     1      25.302   4.026  53.014  1.00  0.00     0.183 HD
ENDROOT
BRANCH   1  23
HETATM   23  S1  UNL     1      26.184   1.469  53.551  1.00  0.00    -0.126 SA
HETATM   24  C1  UNL     1      26.177  -0.341  53.413  1.00  0.00     0.093 C 
ENDBRANCH   1  23
TORSDOF 1
ENDMDL
MODEL 2
REMARK VINA RESULT:      -6.4      2.467      5.739
REMARK  1 active torsions:
REMARK  status: ('A' for Active; 'I' for Inactive)
REMARK    1  A    between atoms: S1_2  and  C2_3 
ROOT
HETATM    1  C2  UNL     1      24.883   4.421  49.635  1.00  0.00     0.261 C 
HETATM    2  N1  UNL     1      24.850   4.911  51.010  1.00  0.00    -0.360 N 
HETATM    3  C3  UNL     1      24.855   3.745  51.795  1.00  0.00     0.044 C 
HETATM    4  C4  UNL     1      23.608   3.896  52.284  1.00  0.00     0.142 C 
HETATM    5  N2  UNL     1      22.331   4.559  52.439  1.00  0.00    -0.273 NA
HETATM    6  C5  UNL     1      21.769   5.049  51.372  1.00  0.00     0.110 C 
HETATM    7  C6  UNL     1      22.211   5.055  49.963  1.00  0.00     0.190 C 
HETATM    8  N3  UNL     1      22.583   3.782  49.515  1.00  0.00    -0.314 N 
HETATM    9  C7  UNL     1      21.610   2.794  49.286  1.00  0.00     0.241 C 
HETATM   10  S2  UNL     1      20.767   2.266  50.764  1.00  0.00    -0.009 SA
HETATM   11  N4  UNL     1      21.665   1.316  51.863  1.00  0.00    -0.231 NA
HETATM   12  C8  UNL     1      21.497   0.109  52.206  1.00  0.00     0.098 C 
HETATM   13  C9  UNL     1      21.793  -1.142  52.944  1.00  0.00     0.053 C 
HETATM   14  C10 UNL     1      22.657  -0.948  54.145  1.00  0.00     0.053 C 
HETATM   15  C11 UNL     1      24.005  -0.415  53.885  1.00  0.00     0.111 C 
HETATM   16  N5  UNL     1      24.817   0.513  53.567  1.00  0.00    -0.196 NA
HETATM   17  N6  UNL     1      24.467   1.841  53.239  1.00  0.00    -0.309 N 
HETATM   18  C12 UNL     1      25.390   2.517  52.356  1.00  0.00     0.199 C 
HETATM   19  N7  UNL     1      23.883   3.463  49.334  1.00  0.00    -0.305 N 
HETATM   20  H5  UNL     1      24.834   5.896  51.412  1.00  0.00     0.162 HD
HETATM   21  H18 UNL     1      23.581   1.955  53.781  1.00  0.00     0.182 HD
HETATM   22  H21 UNL     1      24.112   2.471  49.427  1.00  0.00     0.183 HD
ENDROOT
BRANCH   1  23
HETATM   23  S1  UNL     1      26.561   3.738  49.394  1.00  0.00    -0.126 SA
HETATM   24  C1  UNL     1      27.561   5.034  48.612  1.00  0.00     0.093 C 
ENDBRANCH   1  23
TORSDOF 1
ENDMDL
MODEL 3
REMARK VINA RESULT:      -6.3      5.251      8.767
REMARK  1 active torsions:
REMARK  status: ('A' for Active; 'I' for Inactive)
REMARK    1  A    between atoms: S1_2  and  C2_3 
ROOT
HETATM    1  C2  UNL     1      32.520   8.703  46.603  1.00  0.00     0.261 C 
HETATM    2  N1  UNL     1      32.619   8.397  48.027  1.00  0.00    -0.360 N 
HETATM    3  C3  UNL     1      31.588   7.471  48.256  1.00  0.00     0.044 C 
HETATM    4  C4  UNL     1      30.840   8.278  49.035  1.00  0.00     0.142 C 
HETATM    5  N2  UNL     1      30.526   9.508  49.729  1.00  0.00    -0.273 NA
HETATM    6  C5  UNL     1      30.749  10.629  49.105  1.00  0.00     0.110 C 
HETATM    7  C6  UNL     1      31.288  10.895  47.756  1.00  0.00     0.190 C 
HETATM    8  N3  UNL     1      30.630  10.157  46.765  1.00  0.00    -0.314 N 
HETATM    9  C7  UNL     1      29.316  10.483  46.388  1.00  0.00     0.241 C 
HETATM   10  S2  UNL     1      28.117  10.225  47.680  1.00  0.00    -0.009 SA
HETATM   11  N4  UNL     1      27.746   8.604  48.072  1.00  0.00    -0.231 NA
HETATM   12  C8  UNL     1      26.657   7.972  47.932  1.00  0.00     0.098 C 
HETATM   13  C9  UNL     1      25.750   6.804  48.018  1.00  0.00     0.053 C 
HETATM   14  C10 UNL     1      26.212   5.747  48.966  1.00  0.00     0.053 C 
HETATM   15  C11 UNL     1      27.501   5.114  48.641  1.00  0.00     0.111 C 
HETATM   16  N5  UNL     1      28.770   5.110  48.545  1.00  0.00    -0.196 NA
HETATM   17  N6  UNL     1      29.628   6.186  48.865  1.00  0.00    -0.309 N 
HETATM   18  C12 UNL     1      30.878   6.208  48.141  1.00  0.00     0.199 C 
HETATM   19  N7  UNL     1      31.225   9.095  46.180  1.00  0.00    -0.305 N 
HETATM   20  H5  UNL     1      33.287   8.741  48.781  1.00  0.00     0.162 HD
HETATM   21  H18 UNL     1      29.066   6.680  49.593  1.00  0.00     0.182 HD
HETATM   22  H21 UNL     1      30.593   8.380  45.813  1.00  0.00     0.183 HD
ENDROOT
BRANCH   1  23
HETATM   23  S1  UNL     1      33.083   7.198  45.733  1.00  0.00    -0.126 SA
HETATM   24  C1  UNL     1      32.169   7.108  44.168  1.00  0.00     0.093 C 
ENDBRANCH   1  23
TORSDOF 1
ENDMDL
MODEL 4
REMARK VINA RESULT:      -6.2      2.443      5.571
REMARK  1 active torsions:
REMARK  status: ('A' for Active; 'I' for Inactive)
REMARK    1  A    between atoms: S1_2  and  C2_3 
ROOT
HETATM    1  C2  UNL     1      25.893   2.799  51.422  1.00  0.00     0.261 C 
HETATM    2  N1  UNL     1      25.292   3.233  52.680  1.00  0.00    -0.360 N 
HETATM    3  C3  UNL     1      24.194   2.375  52.856  1.00  0.00     0.044 C 
HETATM    4  C4  UNL     1      23.247   3.321  52.704  1.00  0.00     0.142 C 
HETATM    5  N2  UNL     1      22.759   4.664  52.470  1.00  0.00    -0.273 NA
HETATM    6  C5  UNL     1      23.345   5.368  51.545  1.00  0.00     0.110 C 
HETATM    7  C6  UNL     1      24.469   5.040  50.645  1.00  0.00     0.190 C 
HETATM    8  N3  UNL     1      24.282   3.821  49.982  1.00  0.00    -0.314 N 
HETATM    9  C7  UNL     1      23.327   3.706  48.957  1.00  0.00     0.241 C 
HETATM   10  S2  UNL     1      21.648   3.907  49.519  1.00  0.00    -0.009 SA
HETATM   11  N4  UNL     1      20.994   2.636  50.453  1.00  0.00    -0.231 NA
HETATM   12  C8  UNL     1      20.043   1.845  50.182  1.00  0.00     0.098 C 
HETATM   13  C9  UNL     1      19.097   0.730  50.426  1.00  0.00     0.053 C 
HETATM   14  C10 UNL     1      18.971   0.348  51.863  1.00  0.00     0.053 C 
HETATM   15  C11 UNL     1      20.201  -0.142  52.507  1.00  0.00     0.111 C 
HETATM   16  N5  UNL     1      21.364   0.016  52.999  1.00  0.00    -0.196 NA
HETATM   17  N6  UNL     1      22.069   1.237  53.082  1.00  0.00    -0.309 N 
HETATM   18  C12 UNL     1      23.508   1.115  53.085  1.00  0.00     0.199 C 
HETATM   19  N7  UNL     1      24.982   2.723  50.338  1.00  0.00    -0.305 N 
HETATM   20  H5  UNL     1      25.563   4.000  53.367  1.00  0.00     0.162 HD
HETATM   21  H18 UNL     1      21.280   1.921  53.130  1.00  0.00     0.182 HD
HETATM   22  H21 UNL     1      24.531   1.827  50.141  1.00  0.00     0.183 HD
ENDROOT
BRANCH   1  23
HETATM   23  S1  UNL     1      26.657   1.176  51.772  1.00  0.00    -0.126 SA
HETATM   24  C1  UNL     1      27.857   1.425  53.110  1.00  0.00     0.093 C 
ENDBRANCH   1  23
TORSDOF 1
ENDMDL
MODEL 5
REMARK VINA RESULT:      -6.1      2.837      5.264
REMARK  1 active torsions:
REMARK  status: ('A' for Active; 'I' for Inactive)
REMARK    1  A    between atoms: S1_2  and  C2_3 
ROOT
HETATM    1  C2  UNL     1      21.527   2.511  48.862  1.00  0.00     0.261 C 
HETATM    2  N1  UNL     1      21.854   3.789  49.487  1.00  0.00    -0.360 N 
HETATM    3  C3  UNL     1      23.162   3.616  49.970  1.00  0.00     0.044 C 
HETATM    4  C4  UNL     1      22.841   3.676  51.278  1.00  0.00     0.142 C 
HETATM    5  N2  UNL     1      21.941   3.810  52.404  1.00  0.00    -0.273 NA
HETATM    6  C5  UNL     1      20.802   3.184  52.345  1.00  0.00     0.110 C 
HETATM    7  C6  UNL     1      20.225   2.319  51.295  1.00  0.00     0.190 C 
HETATM    8  N3  UNL     1      21.110   1.313  50.888  1.00  0.00    -0.314 N 
HETATM    9  C7  UNL     1      21.394   0.228  51.734  1.00  0.00     0.241 C 
HETATM   10  S2  UNL     1      22.259   0.688  53.222  1.00  0.00    -0.009 SA
HETATM   11  N4  UNL     1      23.894   1.151  53.047  1.00  0.00    -0.231 NA
HETATM   12  C8  UNL     1      24.941   0.584  53.477  1.00  0.00     0.098 C 
HETATM   13  C9  UNL     1      26.398   0.413  53.692  1.00  0.00     0.053 C 
HETATM   14  C10 UNL     1      27.191   1.659  53.478  1.00  0.00     0.053 C 
HETATM   15  C11 UNL     1      27.142   2.225  52.120  1.00  0.00     0.111 C 
HETATM   16  N5  UNL     1      26.561   2.833  51.164  1.00  0.00    -0.196 NA
HETATM   17  N6  UNL     1      25.238   3.328  51.182  1.00  0.00    -0.309 N 
HETATM   18  C12 UNL     1      24.597   3.408  49.889  1.00  0.00     0.199 C 
HETATM   19  N7  UNL     1      21.740   1.385  49.696  1.00  0.00    -0.305 N 
HETATM   20  H5  UNL     1      21.298   4.692  49.590  1.00  0.00     0.162 HD
HETATM   21  H18 UNL     1      25.107   3.512  52.201  1.00  0.00     0.182 HD
HETATM   22  H21 UNL     1      22.636   0.897  49.639  1.00  0.00     0.183 HD
ENDROOT
BRANCH   1  23
HETATM   23  S1  UNL     1      22.545   2.427  47.347  1.00  0.00    -0.126 SA
HETATM   24  C1  UNL     1      21.832   3.595  46.155  1.00  0.00     0.093 C 
ENDBRANCH   1  23
TORSDOF 1
ENDMDL
MODEL 6
REMARK VINA RESULT:      -6.0      3.464      6.334
REMARK  1 active torsions:
REMARK  status: ('A' for Active; 'I' for Inactive)
REMARK    1  A    between atoms: S1_2  and  C2_3 
ROOT
HETATM    1  C2  UNL     1      18.909   3.050  49.896  1.00  0.00     0.261 C 
HETATM    2  N1  UNL     1      19.144   1.735  49.308  1.00  0.00    -0.360 N 
HETATM    3  C3  UNL     1      19.917   1.058  50.266  1.00  0.00     0.044 C 
HETATM    4  C4  UNL     1      21.040   0.991  49.524  1.00  0.00     0.142 C 
HETATM    5  N2  UNL     1      21.851   1.221  48.347  1.00  0.00    -0.273 NA
HETATM    6  C5  UNL     1      21.761   2.383  47.768  1.00  0.00     0.110 C 
HETATM    7  C6  UNL     1      20.949   3.570  48.102  1.00  0.00     0.190 C 
HETATM    8  N3  UNL     1      21.079   3.945  49.444  1.00  0.00    -0.314 N 
HETATM    9  C7  UNL     1      22.268   4.532  49.909  1.00  0.00     0.241 C 
HETATM   10  S2  UNL     1      23.675   3.440  49.852  1.00  0.00    -0.009 SA
HETATM   11  N4  UNL     1      23.703   2.164  50.988  1.00  0.00    -0.231 NA
HETATM   12  C8  UNL     1      24.500   1.962  51.951  1.00  0.00     0.098 C 
HETATM   13  C9  UNL     1      25.055   1.241  53.121  1.00  0.00     0.053 C 
HETATM   14  C10 UNL     1      24.622  -0.184  53.214  1.00  0.00     0.053 C 
HETATM   15  C11 UNL     1      23.175  -0.406  53.371  1.00  0.00     0.111 C 
HETATM   16  N5  UNL     1      21.976  -0.420  52.943  1.00  0.00    -0.196 NA
HETATM   17  N6  UNL     1      21.560  -0.073  51.639  1.00  0.00    -0.309 N 
HETATM   18  C12 UNL     1      20.207   0.424  51.541  1.00  0.00     0.199 C 
HETATM   19  N7  UNL     1      20.085   3.713  50.328  1.00  0.00    -0.305 N 
HETATM   20  H5  UNL     1      18.834   1.305  48.384  1.00  0.00     0.162 HD
HETATM   21  H18 UNL     1      22.415  -0.304  51.087  1.00  0.00     0.182 HD
HETATM   22  H21 UNL     1      20.375   3.607  51.303  1.00  0.00     0.183 HD
ENDROOT
BRANCH   1  23
HETATM   23  S1  UNL     1      17.747   2.773  51.278  1.00  0.00    -0.126 SA
HETATM   24  C1  UNL     1      16.689   4.243  51.393  1.00  0.00     0.093 C 
ENDBRANCH   1  23
TORSDOF 1
ENDMDL
MODEL 7
REMARK VINA RESULT:      -6.0      5.551      8.760
REMARK  1 active torsions:
REMARK  status: ('A' for Active; 'I' for Inactive)
REMARK    1  A    between atoms: S1_2  and  C2_3 
ROOT
HETATM    1  C2  UNL     1      28.829   6.761  47.966  1.00  0.00     0.261 C 
HETATM    2  N1  UNL     1      29.594   7.309  49.082  1.00  0.00    -0.360 N 
HETATM    3  C3  UNL     1      29.164   8.642  49.177  1.00  0.00     0.044 C 
HETATM    4  C4  UNL     1      30.336   9.197  48.808  1.00  0.00     0.142 C 
HETATM    5  N2  UNL     1      31.721   9.181  48.387  1.00  0.00    -0.273 NA
HETATM    6  C5  UNL     1      32.072   8.301  47.495  1.00  0.00     0.110 C 
HETATM    7  C6  UNL     1      31.285   7.264  46.797  1.00  0.00     0.190 C 
HETATM    8  N3  UNL     1      30.115   7.778  46.226  1.00  0.00    -0.314 N 
HETATM    9  C7  UNL     1      30.178   8.605  45.091  1.00  0.00     0.241 C 
HETATM   10  S2  UNL     1      30.978  10.168  45.389  1.00  0.00    -0.009 SA
HETATM   11  N4  UNL     1      30.119  11.303  46.333  1.00  0.00    -0.231 NA
HETATM   12  C8  UNL     1      29.646  12.431  46.001  1.00  0.00     0.098 C 
HETATM   13  C9  UNL     1      28.935  13.714  46.209  1.00  0.00     0.053 C 
HETATM   14  C10 UNL     1      28.807  14.110  47.642  1.00  0.00     0.053 C 
HETATM   15  C11 UNL     1      28.037  13.189  48.495  1.00  0.00     0.111 C 
HETATM   16  N5  UNL     1      27.877  12.097  49.131  1.00  0.00    -0.196 NA
HETATM   17  N6  UNL     1      28.808  11.038  49.202  1.00  0.00    -0.309 N 
HETATM   18  C12 UNL     1      28.232   9.730  49.419  1.00  0.00     0.199 C 
HETATM   19  N7  UNL     1      28.907   7.527  46.775  1.00  0.00    -0.305 N 
HETATM   20  H5  UNL     1      30.317   6.870  49.729  1.00  0.00     0.162 HD
HETATM   21  H18 UNL     1      29.708  11.552  49.076  1.00  0.00     0.182 HD
HETATM   22  H21 UNL     1      28.185   8.229  46.598  1.00  0.00     0.183 HD
ENDROOT
BRANCH   1  23
HETATM   23  S1  UNL     1      27.108   6.625  48.565  1.00  0.00    -0.126 SA
HETATM   24  C1  UNL     1      26.812   4.877  48.955  1.00  0.00     0.093 C 
ENDBRANCH   1  23
TORSDOF 1
ENDMDL
MODEL 8
REMARK VINA RESULT:      -5.8      2.186      4.675
REMARK  1 active torsions:
REMARK  status: ('A' for Active; 'I' for Inactive)
REMARK    1  A    between atoms: S1_2  and  C2_3 
ROOT
HETATM    1  C2  UNL     1      20.569   3.999  50.439  1.00  0.00     0.261 C 
HETATM    2  N1  UNL     1      20.937   4.534  51.746  1.00  0.00    -0.360 N 
HETATM    3  C3  UNL     1      21.772   5.625  51.453  1.00  0.00     0.044 C 
HETATM    4  C4  UNL     1      22.897   5.085  51.961  1.00  0.00     0.142 C 
HETATM    5  N2  UNL     1      23.683   4.055  52.606  1.00  0.00    -0.273 NA
HETATM    6  C5  UNL     1      23.478   2.821  52.244  1.00  0.00     0.110 C 
HETATM    7  C6  UNL     1      22.550   2.247  51.249  1.00  0.00     0.190 C 
HETATM    8  N3  UNL     1      22.639   2.885  50.006  1.00  0.00    -0.314 N 
HETATM    9  C7  UNL     1      23.761   2.691  49.184  1.00  0.00     0.241 C 
HETATM   10  S2  UNL     1      25.271   3.343  49.870  1.00  0.00    -0.009 SA
HETATM   11  N4  UNL     1      25.426   5.043  49.908  1.00  0.00    -0.231 NA
HETATM   12  C8  UNL     1      26.237   5.791  49.287  1.00  0.00     0.098 C 
HETATM   13  C9  UNL     1      26.860   7.075  48.886  1.00  0.00     0.053 C 
HETATM   14  C10 UNL     1      26.573   8.204  49.818  1.00  0.00     0.053 C 
HETATM   15  C11 UNL     1      25.155   8.577  49.956  1.00  0.00     0.111 C 
HETATM   16  N5  UNL     1      23.965   8.381  50.363  1.00  0.00    -0.196 NA
HETATM   17  N6  UNL     1      23.518   7.267  51.106  1.00  0.00    -0.309 N 
HETATM   18  C12 UNL     1      22.122   6.937  50.935  1.00  0.00     0.199 C 
HETATM   19  N7  UNL     1      21.671   3.730  49.589  1.00  0.00    -0.305 N 
HETATM   20  H5  UNL     1      20.673   4.237  52.734  1.00  0.00     0.162 HD
HETATM   21  H18 UNL     1      24.394   6.995  51.606  1.00  0.00     0.182 HD
HETATM   22  H21 UNL     1      21.968   4.452  48.930  1.00  0.00     0.183 HD
ENDROOT
BRANCH   1  23
HETATM   23  S1  UNL     1      19.438   5.230  49.701  1.00  0.00    -0.126 SA
HETATM   24  C1  UNL     1      20.065   5.608  48.040  1.00  0.00     0.093 C 
ENDBRANCH   1  23
TORSDOF 1
ENDMDL
MODEL 9
REMARK VINA RESULT:      -5.7     21.854     23.793
REMARK  1 active torsions:
REMARK  status: ('A' for Active; 'I' for Inactive)
REMARK    1  A    between atoms: S1_2  and  C2_3 
ROOT
HETATM    1  C2  UNL     1      41.083  -1.381  67.507  1.00  0.00     0.261 C 
HETATM    2  N1  UNL     1      40.031  -0.712  66.748  1.00  0.00    -0.360 N 
HETATM    3  C3  UNL     1      39.265  -0.052  67.722  1.00  0.00     0.044 C 
HETATM    4  C4  UNL     1      38.155  -0.800  67.564  1.00  0.00     0.142 C 
HETATM    5  N2  UNL     1      37.356  -1.855  66.978  1.00  0.00    -0.273 NA
HETATM    6  C5  UNL     1      37.933  -3.001  66.761  1.00  0.00     0.110 C 
HETATM    7  C6  UNL     1      39.317  -3.451  67.014  1.00  0.00     0.190 C 
HETATM    8  N3  UNL     1      39.735  -3.178  68.322  1.00  0.00    -0.314 N 
HETATM    9  C7  UNL     1      39.217  -3.911  69.404  1.00  0.00     0.241 C 
HETATM   10  S2  UNL     1      37.476  -3.650  69.675  1.00  0.00    -0.009 SA
HETATM   11  N4  UNL     1      37.016  -2.132  70.309  1.00  0.00    -0.231 NA
HETATM   12  C8  UNL     1      36.493  -1.853  71.429  1.00  0.00     0.098 C 
HETATM   13  C9  UNL     1      35.927  -0.971  72.476  1.00  0.00     0.053 C 
HETATM   14  C10 UNL     1      35.508   0.371  71.975  1.00  0.00     0.053 C 
HETATM   15  C11 UNL     1      36.580   1.208  71.411  1.00  0.00     0.111 C 
HETATM   16  N5  UNL     1      37.430   1.510  70.513  1.00  0.00    -0.196 NA
HETATM   17  N6  UNL     1      37.649   0.804  69.310  1.00  0.00    -0.309 N 
HETATM   18  C12 UNL     1      38.982   0.919  68.766  1.00  0.00     0.199 C 
HETATM   19  N7  UNL     1      40.610  -2.182  68.577  1.00  0.00    -0.305 N 
HETATM   20  H5  UNL     1      39.825  -0.674  65.704  1.00  0.00     0.162 HD
HETATM   21  H18 UNL     1      36.707   0.382  69.151  1.00  0.00     0.182 HD
HETATM   22  H21 UNL     1      40.549  -1.767  69.509  1.00  0.00     0.183 HD
ENDROOT
BRANCH   1  23
HETATM   23  S1  UNL     1      42.185  -0.050  68.102  1.00  0.00    -0.126 SA
HETATM   24  C1  UNL     1      42.418  -0.301  69.884  1.00  0.00     0.093 C 
ENDBRANCH   1  23
TORSDOF 1
ENDMDL
