MODEL 1
REMARK VINA RESULT:      -8.0      0.000      0.000
REMARK  3 active torsions:
REMARK  status: ('A' for Active; 'I' for Inactive)
REMARK    1  A    between atoms: C7_7  and  N1_8 
REMARK    2  A    between atoms: N1_8  and  C8_9 
REMARK    3  A    between atoms: C10_13  and  O1_14 
ROOT
HETATM    1  C1  UNL     1      30.166  -0.716  53.541  1.00  0.00     0.018 C 
HETATM    2  C2  UNL     1      28.991  -0.432  53.406  1.00  0.00    -0.078 C 
HETATM    3  C3  UNL     1      27.604  -0.092  53.264  1.00  0.00     0.019 A 
HETATM    4  C4  UNL     1      26.724  -1.163  53.218  1.00  0.00     0.021 A 
HETATM    5  C5  UNL     1      25.379  -0.892  53.082  1.00  0.00     0.004 A 
HETATM    6  C6  UNL     1      24.898   0.391  52.994  1.00  0.00     0.029 A 
HETATM    7  C7  UNL     1      25.760   1.451  53.040  1.00  0.00     0.034 A 
HETATM    8  C19 UNL     1      27.132   1.204  53.176  1.00  0.00     0.050 A 
ENDROOT
BRANCH   7   9
HETATM    9  N1  UNL     1      25.486   2.832  52.971  1.00  0.00    -0.343 N 
HETATM   10  H5  UNL     1      25.904   3.640  53.466  1.00  0.00     0.167 HD
BRANCH   9  11
HETATM   11  C8  UNL     1      24.501   3.373  52.107  1.00  0.00     0.122 C 
HETATM   12  N2  UNL     1      23.475   4.051  52.707  1.00  0.00    -0.228 NA
HETATM   13  C9  UNL     1      22.481   4.582  51.783  1.00  0.00     0.232 C 
HETATM   14  N3  UNL     1      22.806   5.413  50.888  1.00  0.00    -0.249 NA
HETATM   15  C10 UNL     1      21.964   6.031  49.879  1.00  0.00     0.268 C 
HETATM   16  C12 UNL     1      22.837   6.266  48.616  1.00  0.00     0.225 C 
HETATM   17  O2  UNL     1      23.420   4.981  48.209  1.00  0.00    -0.368 OA
HETATM   18  C13 UNL     1      24.115   4.383  49.348  1.00  0.00     0.103 A 
HETATM   19  C14 UNL     1      23.035   3.561  49.227  1.00  0.00     0.012 A 
HETATM   20  C18 UNL     1      25.199   5.142  49.543  1.00  0.00     0.013 A 
HETATM   21  C17 UNL     1      25.313   4.310  50.627  1.00  0.00     0.090 A 
HETATM   22  C16 UNL     1      24.286   3.439  50.615  1.00  0.00     0.086 A 
HETATM   23  C15 UNL     1      23.179   2.717  50.344  1.00  0.00    -0.006 A 
HETATM   24 BR1  UNL     1      25.982   6.576  48.583  1.00  0.00    -0.056 Br
BRANCH  15  25
HETATM   25  O1  UNL     1      21.625   7.300  50.325  1.00  0.00    -0.368 OA
HETATM   26  C11 UNL     1      22.387   8.293  49.705  1.00  0.00     0.204 C 
ENDBRANCH  15  25
ENDBRANCH   9  11
ENDBRANCH   7   9
TORSDOF 3
ENDMDL
MODEL 2
REMARK VINA RESULT:      -7.8      1.205      2.254
REMARK  3 active torsions:
REMARK  status: ('A' for Active; 'I' for Inactive)
REMARK    1  A    between atoms: C7_7  and  N1_8 
REMARK    2  A    between atoms: N1_8  and  C8_9 
REMARK    3  A    between atoms: C10_13  and  O1_14 
ROOT
HETATM    1  C1  UNL     1      22.558  -1.223  54.700  1.00  0.00     0.018 C 
HETATM    2  C2  UNL     1      23.478  -0.692  54.106  1.00  0.00    -0.078 C 
HETATM    3  C3  UNL     1      24.553  -0.066  53.391  1.00  0.00     0.019 A 
HETATM    4  C4  UNL     1      25.612  -0.895  53.051  1.00  0.00     0.021 A 
HETATM    5  C5  UNL     1      26.672  -0.343  52.363  1.00  0.00     0.004 A 
HETATM    6  C6  UNL     1      26.702   0.984  52.012  1.00  0.00     0.029 A 
HETATM    7  C7  UNL     1      25.662   1.806  52.344  1.00  0.00     0.034 A 
HETATM    8  C19 UNL     1      24.573   1.271  53.044  1.00  0.00     0.050 A 
ENDROOT
BRANCH   7   9
HETATM    9  N1  UNL     1      25.487   3.180  52.084  1.00  0.00    -0.343 N 
HETATM   10  H5  UNL     1      26.044   4.008  52.363  1.00  0.00     0.167 HD
BRANCH   9  11
HETATM   11  C8  UNL     1      24.412   3.679  51.306  1.00  0.00     0.122 C 
HETATM   12  N2  UNL     1      23.357   4.207  51.998  1.00  0.00    -0.228 NA
HETATM   13  C9  UNL     1      22.271   4.699  51.160  1.00  0.00     0.232 C 
HETATM   14  N3  UNL     1      22.469   5.620  50.317  1.00  0.00    -0.249 NA
HETATM   15  C10 UNL     1      21.523   6.220  49.394  1.00  0.00     0.268 C 
HETATM   16  C12 UNL     1      22.305   6.631  48.117  1.00  0.00     0.225 C 
HETATM   17  O2  UNL     1      22.989   5.443  47.589  1.00  0.00    -0.368 OA
HETATM   18  C13 UNL     1      23.794   4.838  48.650  1.00  0.00     0.103 A 
HETATM   19  C14 UNL     1      22.795   3.923  48.513  1.00  0.00     0.012 A 
HETATM   20  C18 UNL     1      24.808   5.687  48.856  1.00  0.00     0.013 A 
HETATM   21  C17 UNL     1      25.056   4.796  49.869  1.00  0.00     0.090 A 
HETATM   22  C16 UNL     1      24.119   3.829  49.834  1.00  0.00     0.086 A 
HETATM   23  C15 UNL     1      23.076   3.021  49.555  1.00  0.00    -0.006 A 
HETATM   24 BR1  UNL     1      25.400   7.257  47.974  1.00  0.00    -0.056 Br
BRANCH  15  25
HETATM   25  O1  UNL     1      21.084   7.414  49.948  1.00  0.00    -0.368 OA
HETATM   26  C11 UNL     1      21.930   8.479  49.631  1.00  0.00     0.204 C 
ENDBRANCH  15  25
ENDBRANCH   9  11
ENDBRANCH   7   9
TORSDOF 3
ENDMDL
MODEL 3
REMARK VINA RESULT:      -7.7      7.630      8.948
REMARK  3 active torsions:
REMARK  status: ('A' for Active; 'I' for Inactive)
REMARK    1  A    between atoms: C7_7  and  N1_8 
REMARK    2  A    between atoms: N1_8  and  C8_9 
REMARK    3  A    between atoms: C10_13  and  O1_14 
ROOT
HETATM    1  C1  UNL     1      32.042   0.288  46.708  1.00  0.00     0.018 C 
HETATM    2  C2  UNL     1      32.480   1.415  46.840  1.00  0.00    -0.078 C 
HETATM    3  C3  UNL     1      33.004   2.744  46.981  1.00  0.00     0.019 A 
HETATM    4  C4  UNL     1      34.166   2.856  47.729  1.00  0.00     0.021 A 
HETATM    5  C5  UNL     1      34.712   4.112  47.895  1.00  0.00     0.004 A 
HETATM    6  C6  UNL     1      34.142   5.233  47.346  1.00  0.00     0.029 A 
HETATM    7  C7  UNL     1      32.997   5.130  46.608  1.00  0.00     0.034 A 
HETATM    8  C19 UNL     1      32.421   3.866  46.424  1.00  0.00     0.050 A 
ENDROOT
BRANCH   7   9
HETATM    9  N1  UNL     1      32.254   6.137  45.959  1.00  0.00    -0.343 N 
HETATM   10  H5  UNL     1      31.929   6.227  44.980  1.00  0.00     0.167 HD
BRANCH   9  11
HETATM   11  C8  UNL     1      31.781   7.291  46.634  1.00  0.00     0.122 C 
HETATM   12  N2  UNL     1      31.838   8.467  45.936  1.00  0.00    -0.228 NA
HETATM   13  C9  UNL     1      31.350   9.628  46.670  1.00  0.00     0.232 C 
HETATM   14  N3  UNL     1      30.160   9.675  47.093  1.00  0.00    -0.249 NA
HETATM   15  C10 UNL     1      29.511  10.731  47.849  1.00  0.00     0.268 C 
HETATM   16  C12 UNL     1      28.464  10.066  48.784  1.00  0.00     0.225 C 
HETATM   17  O2  UNL     1      29.151   9.067  49.613  1.00  0.00    -0.368 OA
HETATM   18  C13 UNL     1      29.892   8.149  48.750  1.00  0.00     0.103 A 
HETATM   19  C14 UNL     1      30.904   8.851  49.330  1.00  0.00     0.012 A 
HETATM   20  C18 UNL     1      28.962   7.416  48.127  1.00  0.00     0.013 A 
HETATM   21  C17 UNL     1      30.079   6.952  47.480  1.00  0.00     0.090 A 
HETATM   22  C16 UNL     1      31.161   7.582  47.978  1.00  0.00     0.086 A 
HETATM   23  C15 UNL     1      32.035   8.353  48.656  1.00  0.00    -0.006 A 
HETATM   24 BR1  UNL     1      27.081   7.265  48.303  1.00  0.00    -0.056 Br
BRANCH  15  25
HETATM   25  O1  UNL     1      28.767  11.496  46.961  1.00  0.00    -0.368 OA
HETATM   26  C11 UNL     1      27.589  10.853  46.577  1.00  0.00     0.204 C 
ENDBRANCH  15  25
ENDBRANCH   9  11
ENDBRANCH   7   9
TORSDOF 3
ENDMDL
MODEL 4
REMARK VINA RESULT:      -7.6      6.900      8.119
REMARK  3 active torsions:
REMARK  status: ('A' for Active; 'I' for Inactive)
REMARK    1  A    between atoms: C7_7  and  N1_8 
REMARK    2  A    between atoms: N1_8  and  C8_9 
REMARK    3  A    between atoms: C10_13  and  O1_14 
ROOT
HETATM    1  C1  UNL     1      32.024   0.779  46.608  1.00  0.00     0.018 C 
HETATM    2  C2  UNL     1      32.504   1.868  46.862  1.00  0.00    -0.078 C 
HETATM    3  C3  UNL     1      33.075   3.154  47.143  1.00  0.00     0.019 A 
HETATM    4  C4  UNL     1      34.315   3.137  47.765  1.00  0.00     0.021 A 
HETATM    5  C5  UNL     1      34.909   4.347  48.058  1.00  0.00     0.004 A 
HETATM    6  C6  UNL     1      34.312   5.545  47.755  1.00  0.00     0.029 A 
HETATM    7  C7  UNL     1      33.091   5.569  47.142  1.00  0.00     0.034 A 
HETATM    8  C19 UNL     1      32.465   4.354  46.833  1.00  0.00     0.050 A 
ENDROOT
BRANCH   7   9
HETATM    9  N1  UNL     1      32.309   6.671  46.743  1.00  0.00    -0.343 N 
HETATM   10  H5  UNL     1      32.410   7.334  45.953  1.00  0.00     0.167 HD
BRANCH   9  11
HETATM   11  C8  UNL     1      31.135   7.064  47.433  1.00  0.00     0.122 C 
HETATM   12  N2  UNL     1      31.311   7.903  48.500  1.00  0.00    -0.228 NA
HETATM   13  C9  UNL     1      30.080   8.275  49.185  1.00  0.00     0.232 C 
HETATM   14  N3  UNL     1      29.155   8.881  48.573  1.00  0.00    -0.249 NA
HETATM   15  C10 UNL     1      27.865   9.311  49.083  1.00  0.00     0.268 C 
HETATM   16  C12 UNL     1      26.846   9.231  47.914  1.00  0.00     0.225 C 
HETATM   17  O2  UNL     1      26.856   7.862  47.382  1.00  0.00    -0.368 OA
HETATM   18  C13 UNL     1      28.228   7.485  47.044  1.00  0.00     0.103 A 
HETATM   19  C14 UNL     1      27.996   6.710  48.139  1.00  0.00     0.012 A 
HETATM   20  C18 UNL     1      28.543   8.215  45.968  1.00  0.00     0.013 A 
HETATM   21  C17 UNL     1      29.760   7.627  46.200  1.00  0.00     0.090 A 
HETATM   22  C16 UNL     1      29.654   6.823  47.276  1.00  0.00     0.086 A 
HETATM   23  C15 UNL     1      29.253   6.115  48.352  1.00  0.00    -0.006 A 
HETATM   24 BR1  UNL     1      27.557   9.373  44.837  1.00  0.00    -0.056 Br
BRANCH  15  25
HETATM   25  O1  UNL     1      27.956  10.661  49.390  1.00  0.00    -0.368 OA
HETATM   26  C11 UNL     1      28.246  11.435  48.264  1.00  0.00     0.204 C 
ENDBRANCH  15  25
ENDBRANCH   9  11
ENDBRANCH   7   9
TORSDOF 3
ENDMDL
MODEL 5
REMARK VINA RESULT:      -7.6      2.096      3.081
REMARK  3 active torsions:
REMARK  status: ('A' for Active; 'I' for Inactive)
REMARK    1  A    between atoms: C7_7  and  N1_8 
REMARK    2  A    between atoms: N1_8  and  C8_9 
REMARK    3  A    between atoms: C10_13  and  O1_14 
ROOT
HETATM    1  C1  UNL     1      29.183  -0.702  53.604  1.00  0.00     0.018 C 
HETATM    2  C2  UNL     1      28.030  -0.328  53.501  1.00  0.00    -0.078 C 
HETATM    3  C3  UNL     1      26.669   0.117  53.398  1.00  0.00     0.019 A 
HETATM    4  C4  UNL     1      25.711  -0.885  53.347  1.00  0.00     0.021 A 
HETATM    5  C5  UNL     1      24.387  -0.512  53.247  1.00  0.00     0.004 A 
HETATM    6  C6  UNL     1      24.002   0.805  53.198  1.00  0.00     0.029 A 
HETATM    7  C7  UNL     1      24.941   1.797  53.248  1.00  0.00     0.034 A 
HETATM    8  C19 UNL     1      26.293   1.446  53.349  1.00  0.00     0.050 A 
ENDROOT
BRANCH   7   9
HETATM    9  N1  UNL     1      24.770   3.195  53.216  1.00  0.00    -0.343 N 
HETATM   10  H5  UNL     1      25.023   3.934  53.897  1.00  0.00     0.167 HD
BRANCH   9  11
HETATM   11  C8  UNL     1      24.173   3.866  52.119  1.00  0.00     0.122 C 
HETATM   12  N2  UNL     1      24.625   3.515  50.875  1.00  0.00    -0.228 NA
HETATM   13  C9  UNL     1      23.990   4.235  49.778  1.00  0.00     0.232 C 
HETATM   14  N3  UNL     1      22.743   4.165  49.592  1.00  0.00    -0.249 NA
HETATM   15  C10 UNL     1      21.942   4.820  48.572  1.00  0.00     0.268 C 
HETATM   16  C12 UNL     1      20.545   5.112  49.184  1.00  0.00     0.225 C 
HETATM   17  O2  UNL     1      20.730   5.906  50.405  1.00  0.00    -0.368 OA
HETATM   18  C13 UNL     1      21.671   5.220  51.290  1.00  0.00     0.103 A 
HETATM   19  C14 UNL     1      22.415   6.283  50.876  1.00  0.00     0.012 A 
HETATM   20  C18 UNL     1      21.015   4.145  51.742  1.00  0.00     0.013 A 
HETATM   21  C17 UNL     1      22.250   3.896  52.286  1.00  0.00     0.090 A 
HETATM   22  C16 UNL     1      23.085   4.895  51.940  1.00  0.00     0.086 A 
HETATM   23  C15 UNL     1      23.670   6.007  51.450  1.00  0.00    -0.006 A 
HETATM   24 BR1  UNL     1      19.225   3.544  51.590  1.00  0.00    -0.056 Br
BRANCH  15  25
HETATM   25  O1  UNL     1      21.708   3.901  47.559  1.00  0.00    -0.368 OA
HETATM   26  C11 UNL     1      20.568   3.133  47.803  1.00  0.00     0.204 C 
ENDBRANCH  15  25
ENDBRANCH   9  11
ENDBRANCH   7   9
TORSDOF 3
ENDMDL
MODEL 6
REMARK VINA RESULT:      -7.5      7.049      9.652
REMARK  3 active torsions:
REMARK  status: ('A' for Active; 'I' for Inactive)
REMARK    1  A    between atoms: C7_7  and  N1_8 
REMARK    2  A    between atoms: N1_8  and  C8_9 
REMARK    3  A    between atoms: C10_13  and  O1_14 
ROOT
HETATM    1  C1  UNL     1      23.168   4.805  49.349  1.00  0.00     0.018 C 
HETATM    2  C2  UNL     1      24.164   5.397  48.981  1.00  0.00    -0.078 C 
HETATM    3  C3  UNL     1      25.341   6.104  48.562  1.00  0.00     0.019 A 
HETATM    4  C4  UNL     1      25.121   7.220  47.769  1.00  0.00     0.021 A 
HETATM    5  C5  UNL     1      26.219   7.937  47.339  1.00  0.00     0.004 A 
HETATM    6  C6  UNL     1      27.501   7.577  47.673  1.00  0.00     0.029 A 
HETATM    7  C7  UNL     1      27.724   6.479  48.455  1.00  0.00     0.034 A 
HETATM    8  C19 UNL     1      26.627   5.733  48.904  1.00  0.00     0.050 A 
ENDROOT
BRANCH   7   9
HETATM    9  N1  UNL     1      28.942   5.938  48.914  1.00  0.00    -0.343 N 
HETATM   10  H5  UNL     1      29.146   5.220  49.633  1.00  0.00     0.167 HD
BRANCH   9  11
HETATM   11  C8  UNL     1      30.198   6.333  48.391  1.00  0.00     0.122 C 
HETATM   12  N2  UNL     1      30.963   7.136  49.193  1.00  0.00    -0.228 NA
HETATM   13  C9  UNL     1      32.242   7.525  48.613  1.00  0.00     0.232 C 
HETATM   14  N3  UNL     1      33.098   6.654  48.286  1.00  0.00    -0.249 NA
HETATM   15  C10 UNL     1      34.405   6.852  47.685  1.00  0.00     0.268 C 
HETATM   16  C12 UNL     1      34.693   5.631  46.770  1.00  0.00     0.225 C 
HETATM   17  O2  UNL     1      33.598   5.509  45.799  1.00  0.00    -0.368 OA
HETATM   18  C13 UNL     1      32.322   5.470  46.513  1.00  0.00     0.103 A 
HETATM   19  C14 UNL     1      32.268   6.699  45.930  1.00  0.00     0.012 A 
HETATM   20  C18 UNL     1      32.295   4.283  47.129  1.00  0.00     0.013 A 
HETATM   21  C17 UNL     1      31.145   4.825  47.644  1.00  0.00     0.090 A 
HETATM   22  C16 UNL     1      30.982   6.060  47.131  1.00  0.00     0.086 A 
HETATM   23  C15 UNL     1      31.081   7.230  46.467  1.00  0.00    -0.006 A 
HETATM   24 BR1  UNL     1      33.417   2.756  47.079  1.00  0.00    -0.056 Br
BRANCH  15  25
HETATM   25  O1  UNL     1      35.354   6.779  48.694  1.00  0.00    -0.368 OA
HETATM   26  C11 UNL     1      35.419   5.503  49.259  1.00  0.00     0.204 C 
ENDBRANCH  15  25
ENDBRANCH   9  11
ENDBRANCH   7   9
TORSDOF 3
ENDMDL
MODEL 7
REMARK VINA RESULT:      -7.4      1.952      2.742
REMARK  3 active torsions:
REMARK  status: ('A' for Active; 'I' for Inactive)
REMARK    1  A    between atoms: C7_7  and  N1_8 
REMARK    2  A    between atoms: N1_8  and  C8_9 
REMARK    3  A    between atoms: C10_13  and  O1_14 
ROOT
HETATM    1  C1  UNL     1      29.013   2.457  53.798  1.00  0.00     0.018 C 
HETATM    2  C2  UNL     1      27.917   1.943  53.679  1.00  0.00    -0.078 C 
HETATM    3  C3  UNL     1      26.618   1.345  53.554  1.00  0.00     0.019 A 
HETATM    4  C4  UNL     1      26.521   0.026  53.971  1.00  0.00     0.021 A 
HETATM    5  C5  UNL     1      25.294  -0.597  53.873  1.00  0.00     0.004 A 
HETATM    6  C6  UNL     1      24.187   0.048  53.380  1.00  0.00     0.029 A 
HETATM    7  C7  UNL     1      24.275   1.348  52.969  1.00  0.00     0.034 A 
HETATM    8  C19 UNL     1      25.510   2.004  53.057  1.00  0.00     0.050 A 
ENDROOT
BRANCH   7   9
HETATM    9  N1  UNL     1      23.277   2.191  52.441  1.00  0.00    -0.343 N 
HETATM   10  H5  UNL     1      22.378   2.521  52.835  1.00  0.00     0.167 HD
BRANCH   9  11
HETATM   11  C8  UNL     1      23.380   2.785  51.158  1.00  0.00     0.122 C 
HETATM   12  N2  UNL     1      22.796   2.102  50.125  1.00  0.00    -0.228 NA
HETATM   13  C9  UNL     1      22.933   2.745  48.824  1.00  0.00     0.232 C 
HETATM   14  N3  UNL     1      22.468   3.901  48.619  1.00  0.00    -0.249 NA
HETATM   15  C10 UNL     1      22.524   4.697  47.406  1.00  0.00     0.268 C 
HETATM   16  C12 UNL     1      22.596   6.191  47.824  1.00  0.00     0.225 C 
HETATM   17  O2  UNL     1      23.751   6.369  48.714  1.00  0.00    -0.368 OA
HETATM   18  C13 UNL     1      23.663   5.413  49.818  1.00  0.00     0.103 A 
HETATM   19  C14 UNL     1      24.704   4.905  49.102  1.00  0.00     0.012 A 
HETATM   20  C18 UNL     1      22.646   5.837  50.576  1.00  0.00     0.013 A 
HETATM   21  C17 UNL     1      22.929   4.661  51.223  1.00  0.00     0.090 A 
HETATM   22  C16 UNL     1      23.960   4.060  50.598  1.00  0.00     0.086 A 
HETATM   23  C15 UNL     1      24.979   3.708  49.787  1.00  0.00    -0.006 A 
HETATM   24 BR1  UNL     1      21.559   7.389  50.559  1.00  0.00    -0.056 Br
BRANCH  15  25
HETATM   25  O1  UNL     1      21.308   4.564  46.751  1.00  0.00    -0.368 OA
HETATM   26  C11 UNL     1      21.445   3.920  45.520  1.00  0.00     0.204 C 
ENDBRANCH  15  25
ENDBRANCH   9  11
ENDBRANCH   7   9
TORSDOF 3
ENDMDL
MODEL 8
REMARK VINA RESULT:      -7.2      8.040      9.180
REMARK  3 active torsions:
REMARK  status: ('A' for Active; 'I' for Inactive)
REMARK    1  A    between atoms: C7_7  and  N1_8 
REMARK    2  A    between atoms: N1_8  and  C8_9 
REMARK    3  A    between atoms: C10_13  and  O1_14 
ROOT
HETATM    1  C1  UNL     1      31.969   0.424  46.707  1.00  0.00     0.018 C 
HETATM    2  C2  UNL     1      32.542   1.486  46.857  1.00  0.00    -0.078 C 
HETATM    3  C3  UNL     1      33.206   2.748  47.023  1.00  0.00     0.019 A 
HETATM    4  C4  UNL     1      34.383   2.905  46.306  1.00  0.00     0.021 A 
HETATM    5  C5  UNL     1      35.062   4.100  46.430  1.00  0.00     0.004 A 
HETATM    6  C6  UNL     1      34.607   5.118  47.230  1.00  0.00     0.029 A 
HETATM    7  C7  UNL     1      33.447   4.969  47.938  1.00  0.00     0.034 A 
HETATM    8  C19 UNL     1      32.738   3.765  47.832  1.00  0.00     0.050 A 
ENDROOT
BRANCH   7   9
HETATM    9  N1  UNL     1      32.804   5.874  48.806  1.00  0.00    -0.343 N 
HETATM   10  H5  UNL     1      32.926   6.059  49.818  1.00  0.00     0.167 HD
BRANCH   9  11
HETATM   11  C8  UNL     1      31.796   6.769  48.366  1.00  0.00     0.122 C 
HETATM   12  N2  UNL     1      30.768   7.000  49.239  1.00  0.00    -0.228 NA
HETATM   13  C9  UNL     1      29.751   7.919  48.743  1.00  0.00     0.232 C 
HETATM   14  N3  UNL     1      30.048   9.105  48.427  1.00  0.00    -0.249 NA
HETATM   15  C10 UNL     1      29.180  10.146  47.904  1.00  0.00     0.268 C 
HETATM   16  C12 UNL     1      30.029  11.037  46.957  1.00  0.00     0.225 C 
HETATM   17  O2  UNL     1      30.629  10.180  45.926  1.00  0.00    -0.368 OA
HETATM   18  C13 UNL     1      31.351   9.083  46.570  1.00  0.00     0.103 A 
HETATM   19  C14 UNL     1      30.285   8.427  46.034  1.00  0.00     0.012 A 
HETATM   20  C18 UNL     1      32.424   9.647  47.135  1.00  0.00     0.013 A 
HETATM   21  C17 UNL     1      32.570   8.368  47.611  1.00  0.00     0.090 A 
HETATM   22  C16 UNL     1      31.558   7.613  47.140  1.00  0.00     0.086 A 
HETATM   23  C15 UNL     1      30.461   7.122  46.529  1.00  0.00    -0.006 A 
HETATM   24 BR1  UNL     1      33.168  11.389  47.084  1.00  0.00    -0.056 Br
BRANCH  15  25
HETATM   25  O1  UNL     1      28.825  10.975  48.958  1.00  0.00    -0.368 OA
HETATM   26  C11 UNL     1      29.558  12.164  48.958  1.00  0.00     0.204 C 
ENDBRANCH  15  25
ENDBRANCH   9  11
ENDBRANCH   7   9
TORSDOF 3
ENDMDL
MODEL 9
REMARK VINA RESULT:      -7.0      2.065      3.159
REMARK  3 active torsions:
REMARK  status: ('A' for Active; 'I' for Inactive)
REMARK    1  A    between atoms: C7_7  and  N1_8 
REMARK    2  A    between atoms: N1_8  and  C8_9 
REMARK    3  A    between atoms: C10_13  and  O1_14 
ROOT
HETATM    1  C1  UNL     1      22.702  -0.888  53.842  1.00  0.00     0.018 C 
HETATM    2  C2  UNL     1      23.721  -0.300  53.534  1.00  0.00    -0.078 C 
HETATM    3  C3  UNL     1      24.927   0.382  53.158  1.00  0.00     0.019 A 
HETATM    4  C4  UNL     1      26.003   0.218  54.018  1.00  0.00     0.021 A 
HETATM    5  C5  UNL     1      27.187   0.852  53.704  1.00  0.00     0.004 A 
HETATM    6  C6  UNL     1      27.323   1.627  52.579  1.00  0.00     0.029 A 
HETATM    7  C7  UNL     1      26.267   1.792  51.727  1.00  0.00     0.034 A 
HETATM    8  C19 UNL     1      25.052   1.159  52.023  1.00  0.00     0.050 A 
ENDROOT
BRANCH   7   9
HETATM    9  N1  UNL     1      26.187   2.531  50.529  1.00  0.00    -0.343 N 
HETATM   10  H5  UNL     1      26.663   2.413  49.617  1.00  0.00     0.167 HD
BRANCH   9  11
HETATM   11  C8  UNL     1      25.340   3.658  50.383  1.00  0.00     0.122 C 
HETATM   12  N2  UNL     1      25.954   4.842  50.075  1.00  0.00    -0.228 NA
HETATM   13  C9  UNL     1      25.047   5.975  49.943  1.00  0.00     0.232 C 
HETATM   14  N3  UNL     1      24.125   5.970  49.079  1.00  0.00    -0.249 NA
HETATM   15  C10 UNL     1      23.126   6.991  48.816  1.00  0.00     0.268 C 
HETATM   16  C12 UNL     1      21.834   6.276  48.338  1.00  0.00     0.225 C 
HETATM   17  O2  UNL     1      21.439   5.298  49.360  1.00  0.00    -0.368 OA
HETATM   18  C13 UNL     1      22.571   4.419  49.651  1.00  0.00     0.103 A 
HETATM   19  C14 UNL     1      22.501   5.156  50.794  1.00  0.00     0.012 A 
HETATM   20  C18 UNL     1      22.718   3.655  48.563  1.00  0.00     0.013 A 
HETATM   21  C17 UNL     1      23.817   3.242  49.272  1.00  0.00     0.090 A 
HETATM   22  C16 UNL     1      23.854   3.911  50.441  1.00  0.00     0.086 A 
HETATM   23  C15 UNL     1      23.631   4.711  51.503  1.00  0.00    -0.006 A 
HETATM   24 BR1  UNL     1      21.703   3.425  46.978  1.00  0.00    -0.056 Br
BRANCH  15  25
HETATM   25  O1  UNL     1      23.553   7.734  47.725  1.00  0.00    -0.368 OA
HETATM   26  C11 UNL     1      23.330   7.066  46.519  1.00  0.00     0.204 C 
ENDBRANCH  15  25
ENDBRANCH   9  11
ENDBRANCH   7   9
TORSDOF 3
ENDMDL
