MODEL 1
REMARK VINA RESULT:      -7.3      0.000      0.000
REMARK  8 active torsions:
REMARK  status: ('A' for Active; 'I' for Inactive)
REMARK    1  A    between atoms: O1_2  and  C2_3 
REMARK    2  A    between atoms: C6_9  and  N3_10 
REMARK    3  A    between atoms: N3_10  and  C7_11 
REMARK    4  A    between atoms: C13_18  and  O2_19 
REMARK    5  A    between atoms: O2_19  and  C14_20 
REMARK    6  A    between atoms: C14_20  and  C15_21 
REMARK    7  A    between atoms: C15_21  and  C16_22 
REMARK    8  A    between atoms: C16_22  and  N4_23 
ROOT
HETATM    1  C2  UNL     1      23.066   0.125  53.378  1.00  0.00     0.103 A 
HETATM    2  C3  UNL     1      22.034   1.024  53.205  1.00  0.00     0.072 A 
HETATM    3  C4  UNL     1      22.264   2.228  52.579  1.00  0.00     0.075 A 
HETATM    4  N1  UNL     1      21.206   3.067  52.442  1.00  0.00    -0.241 NA
HETATM    5  C5  UNL     1      21.359   4.272  51.834  1.00  0.00     0.235 A 
HETATM    6  N2  UNL     1      22.579   4.583  51.390  1.00  0.00    -0.224 NA
HETATM    7  C6  UNL     1      23.681   3.832  51.474  1.00  0.00     0.138 A 
HETATM    8  C11 UNL     1      23.494   2.618  52.094  1.00  0.00     0.041 A 
HETATM    9  C12 UNL     1      24.480   1.687  52.295  1.00  0.00     0.057 A 
HETATM   10  C13 UNL     1      24.314   0.475  52.908  1.00  0.00     0.103 A 
ENDROOT
BRANCH   7  11
HETATM   11  N3  UNL     1      24.966   4.191  50.992  1.00  0.00    -0.367 N 
HETATM   12  H6  UNL     1      25.686   4.556  51.646  1.00  0.00     0.161 HD
BRANCH  11  13
HETATM   13  C7  UNL     1      25.461   4.114  49.643  1.00  0.00     0.112 A 
HETATM   14  C8  UNL     1      26.278   5.147  49.073  1.00  0.00     0.059 A 
HETATM   15  C9  UNL     1      27.658   4.920  48.637  1.00  0.00     0.091 A 
HETATM   16  C10 UNL     1      26.863   3.837  49.306  1.00  0.00     0.086 A 
HETATM   17  F1  UNL     1      28.833   5.383  48.086  1.00  0.00    -0.214 F 
ENDBRANCH  11  13
ENDBRANCH   7  11
BRANCH  10  18
HETATM   18  O2  UNL     1      25.370  -0.430  53.080  1.00  0.00    -0.348 OA
BRANCH  18  19
HETATM   19  C14 UNL     1      26.524  -0.422  52.304  1.00  0.00     0.177 C 
BRANCH  19  20
HETATM   20  C15 UNL     1      27.554  -1.329  52.987  1.00  0.00     0.042 C 
BRANCH  20  21
HETATM   21  C16 UNL     1      28.600  -0.421  53.598  1.00  0.00     0.102 C 
BRANCH  21  22
HETATM   22  N4  UNL     1      27.897   0.683  54.257  1.00  0.00    -0.260 NA
HETATM   23 BR1  UNL     1      28.559   2.326  53.617  1.00  0.00     0.009 Br
HETATM   24  H16 UNL     1      26.877   0.582  54.155  1.00  0.00     0.135 HD
ENDBRANCH  21  22
ENDBRANCH  20  21
ENDBRANCH  19  20
ENDBRANCH  18  19
ENDBRANCH  10  18
BRANCH   1  25
HETATM   25  O1  UNL     1      22.872  -1.098  54.005  1.00  0.00    -0.353 OA
HETATM   26  C1  UNL     1      21.557  -1.396  54.422  1.00  0.00     0.210 C 
ENDBRANCH   1  25
TORSDOF 8
ENDMDL
MODEL 2
REMARK VINA RESULT:      -7.2      3.986      6.625
REMARK  8 active torsions:
REMARK  status: ('A' for Active; 'I' for Inactive)
REMARK    1  A    between atoms: O1_2  and  C2_3 
REMARK    2  A    between atoms: C6_9  and  N3_10 
REMARK    3  A    between atoms: N3_10  and  C7_11 
REMARK    4  A    between atoms: C13_18  and  O2_19 
REMARK    5  A    between atoms: O2_19  and  C14_20 
REMARK    6  A    between atoms: C14_20  and  C15_21 
REMARK    7  A    between atoms: C15_21  and  C16_22 
REMARK    8  A    between atoms: C16_22  and  N4_23 
ROOT
HETATM    1  C2  UNL     1      27.147   0.602  53.273  1.00  0.00     0.103 A 
HETATM    2  C3  UNL     1      26.662  -0.100  54.356  1.00  0.00     0.072 A 
HETATM    3  C4  UNL     1      25.329  -0.436  54.422  1.00  0.00     0.075 A 
HETATM    4  N1  UNL     1      24.918  -1.126  55.516  1.00  0.00    -0.241 NA
HETATM    5  C5  UNL     1      23.616  -1.492  55.647  1.00  0.00     0.235 A 
HETATM    6  N2  UNL     1      22.780  -1.145  54.666  1.00  0.00    -0.224 NA
HETATM    7  C6  UNL     1      23.083  -0.470  53.554  1.00  0.00     0.138 A 
HETATM    8  C11 UNL     1      24.407  -0.114  53.449  1.00  0.00     0.041 A 
HETATM    9  C12 UNL     1      24.945   0.583  52.397  1.00  0.00     0.057 A 
HETATM   10  C13 UNL     1      26.259   0.946  52.275  1.00  0.00     0.103 A 
ENDROOT
BRANCH   7  11
HETATM   11  N3  UNL     1      22.171  -0.114  52.527  1.00  0.00    -0.367 N 
HETATM   12  H6  UNL     1      22.406  -0.297  51.532  1.00  0.00     0.161 HD
BRANCH  11  13
HETATM   13  C7  UNL     1      20.876   0.500  52.664  1.00  0.00     0.112 A 
HETATM   14  C8  UNL     1      19.909   0.481  51.603  1.00  0.00     0.059 A 
HETATM   15  C9  UNL     1      18.610  -0.185  51.723  1.00  0.00     0.091 A 
HETATM   16  C10 UNL     1      19.629  -0.258  52.823  1.00  0.00     0.086 A 
HETATM   17  F1  UNL     1      17.390  -0.539  51.190  1.00  0.00    -0.214 F 
ENDBRANCH  11  13
ENDBRANCH   7  11
BRANCH  10  18
HETATM   18  O2  UNL     1      26.740   1.660  51.170  1.00  0.00    -0.348 OA
BRANCH  18  19
HETATM   19  C14 UNL     1      26.436   2.995  50.924  1.00  0.00     0.177 C 
BRANCH  19  20
HETATM   20  C15 UNL     1      26.541   3.228  49.413  1.00  0.00     0.042 C 
BRANCH  20  21
HETATM   21  C16 UNL     1      26.705   4.720  49.210  1.00  0.00     0.102 C 
BRANCH  21  22
HETATM   22  N4  UNL     1      28.142   5.007  49.182  1.00  0.00    -0.260 NA
HETATM   23 BR1  UNL     1      28.472   6.469  48.042  1.00  0.00     0.009 Br
HETATM   24  H16 UNL     1      28.511   5.137  50.135  1.00  0.00     0.135 HD
ENDBRANCH  21  22
ENDBRANCH  20  21
ENDBRANCH  19  20
ENDBRANCH  18  19
ENDBRANCH  10  18
BRANCH   1  25
HETATM   25  O1  UNL     1      28.484   0.960  53.171  1.00  0.00    -0.353 OA
HETATM   26  C1  UNL     1      29.403   0.201  53.930  1.00  0.00     0.210 C 
ENDBRANCH   1  25
TORSDOF 8
ENDMDL
MODEL 3
REMARK VINA RESULT:      -7.1      3.150      5.499
REMARK  8 active torsions:
REMARK  status: ('A' for Active; 'I' for Inactive)
REMARK    1  A    between atoms: O1_2  and  C2_3 
REMARK    2  A    between atoms: C6_9  and  N3_10 
REMARK    3  A    between atoms: N3_10  and  C7_11 
REMARK    4  A    between atoms: C13_18  and  O2_19 
REMARK    5  A    between atoms: O2_19  and  C14_20 
REMARK    6  A    between atoms: C14_20  and  C15_21 
REMARK    7  A    between atoms: C15_21  and  C16_22 
REMARK    8  A    between atoms: C16_22  and  N4_23 
ROOT
HETATM    1  C2  UNL     1      27.050   1.474  52.566  1.00  0.00     0.103 A 
HETATM    2  C3  UNL     1      26.396   0.576  53.384  1.00  0.00     0.072 A 
HETATM    3  C4  UNL     1      25.042   0.377  53.249  1.00  0.00     0.075 A 
HETATM    4  N1  UNL     1      24.461  -0.520  54.087  1.00  0.00    -0.241 NA
HETATM    5  C5  UNL     1      23.128  -0.768  54.010  1.00  0.00     0.235 A 
HETATM    6  N2  UNL     1      22.433  -0.097  53.088  1.00  0.00    -0.224 NA
HETATM    7  C6  UNL     1      22.906   0.801  52.220  1.00  0.00     0.138 A 
HETATM    8  C11 UNL     1      24.258   1.030  52.322  1.00  0.00     0.041 A 
HETATM    9  C12 UNL     1      24.960   1.910  51.537  1.00  0.00     0.057 A 
HETATM   10  C13 UNL     1      26.304   2.151  51.624  1.00  0.00     0.103 A 
ENDROOT
BRANCH   7  11
HETATM   11  N3  UNL     1      22.140   1.499  51.251  1.00  0.00    -0.367 N 
HETATM   12  H6  UNL     1      22.197   1.231  50.249  1.00  0.00     0.161 HD
BRANCH  11  13
HETATM   13  C7  UNL     1      21.229   2.593  51.459  1.00  0.00     0.112 A 
HETATM   14  C8  UNL     1      21.629   3.800  52.125  1.00  0.00     0.059 A 
HETATM   15  C9  UNL     1      21.634   5.108  51.465  1.00  0.00     0.091 A 
HETATM   16  C10 UNL     1      21.290   3.856  50.713  1.00  0.00     0.086 A 
HETATM   17  F1  UNL     1      21.857   6.467  51.498  1.00  0.00    -0.214 F 
ENDBRANCH  11  13
ENDBRANCH   7  11
BRANCH  10  18
HETATM   18  O2  UNL     1      26.957   3.066  50.787  1.00  0.00    -0.348 OA
BRANCH  18  19
HETATM   19  C14 UNL     1      26.552   3.344  49.486  1.00  0.00     0.177 C 
BRANCH  19  20
HETATM   20  C15 UNL     1      26.013   4.779  49.460  1.00  0.00     0.042 C 
BRANCH  20  21
HETATM   21  C16 UNL     1      27.017   5.610  48.690  1.00  0.00     0.102 C 
BRANCH  21  22
HETATM   22  N4  UNL     1      28.346   5.052  48.952  1.00  0.00    -0.260 NA
HETATM   23 BR1  UNL     1      29.650   6.078  48.061  1.00  0.00     0.009 Br
HETATM   24  H16 UNL     1      28.515   4.962  49.965  1.00  0.00     0.135 HD
ENDBRANCH  21  22
ENDBRANCH  20  21
ENDBRANCH  19  20
ENDBRANCH  18  19
ENDBRANCH  10  18
BRANCH   1  25
HETATM   25  O1  UNL     1      28.415   1.703  52.672  1.00  0.00    -0.353 OA
HETATM   26  C1  UNL     1      28.852   2.409  53.814  1.00  0.00     0.210 C 
ENDBRANCH   1  25
TORSDOF 8
ENDMDL
MODEL 4
REMARK VINA RESULT:      -7.0      3.385      5.921
REMARK  8 active torsions:
REMARK  status: ('A' for Active; 'I' for Inactive)
REMARK    1  A    between atoms: O1_2  and  C2_3 
REMARK    2  A    between atoms: C6_9  and  N3_10 
REMARK    3  A    between atoms: N3_10  and  C7_11 
REMARK    4  A    between atoms: C13_18  and  O2_19 
REMARK    5  A    between atoms: O2_19  and  C14_20 
REMARK    6  A    between atoms: C14_20  and  C15_21 
REMARK    7  A    between atoms: C15_21  and  C16_22 
REMARK    8  A    between atoms: C16_22  and  N4_23 
ROOT
HETATM    1  C2  UNL     1      23.217   3.111  50.324  1.00  0.00     0.103 A 
HETATM    2  C3  UNL     1      22.475   2.020  50.726  1.00  0.00     0.072 A 
HETATM    3  C4  UNL     1      22.939   1.198  51.727  1.00  0.00     0.075 A 
HETATM    4  N1  UNL     1      22.160   0.142  52.072  1.00  0.00    -0.241 NA
HETATM    5  C5  UNL     1      22.555  -0.711  53.053  1.00  0.00     0.235 A 
HETATM    6  N2  UNL     1      23.725  -0.462  53.646  1.00  0.00    -0.224 NA
HETATM    7  C6  UNL     1      24.562   0.544  53.382  1.00  0.00     0.138 A 
HETATM    8  C11 UNL     1      24.135   1.391  52.386  1.00  0.00     0.041 A 
HETATM    9  C12 UNL     1      24.830   2.488  51.945  1.00  0.00     0.057 A 
HETATM   10  C13 UNL     1      24.422   3.341  50.956  1.00  0.00     0.103 A 
ENDROOT
BRANCH   7  11
HETATM   11  N3  UNL     1      25.801   0.782  54.030  1.00  0.00    -0.367 N 
HETATM   12  H6  UNL     1      26.052   1.741  54.343  1.00  0.00     0.161 HD
BRANCH  11  13
HETATM   13  C7  UNL     1      26.834  -0.169  54.347  1.00  0.00     0.112 A 
HETATM   14  C8  UNL     1      27.918  -0.444  53.447  1.00  0.00     0.059 A 
HETATM   15  C9  UNL     1      29.317  -0.169  53.779  1.00  0.00     0.091 A 
HETATM   16  C10 UNL     1      28.205   0.211  54.712  1.00  0.00     0.086 A 
HETATM   17  F1  UNL     1      30.654  -0.184  53.446  1.00  0.00    -0.214 F 
ENDBRANCH  11  13
ENDBRANCH   7  11
BRANCH  10  18
HETATM   18  O2  UNL     1      25.185   4.446  50.556  1.00  0.00    -0.348 OA
BRANCH  18  19
HETATM   19  C14 UNL     1      26.225   4.371  49.635  1.00  0.00     0.177 C 
BRANCH  19  20
HETATM   20  C15 UNL     1      26.342   5.737  48.950  1.00  0.00     0.042 C 
BRANCH  20  21
HETATM   21  C16 UNL     1      25.395   6.672  49.671  1.00  0.00     0.102 C 
BRANCH  21  22
HETATM   22  N4  UNL     1      26.164   7.368  50.706  1.00  0.00    -0.260 NA
HETATM   23 BR1  UNL     1      26.993   8.887  49.961  1.00  0.00     0.009 Br
HETATM   24  H16 UNL     1      25.574   7.581  51.523  1.00  0.00     0.135 HD
ENDBRANCH  21  22
ENDBRANCH  20  21
ENDBRANCH  19  20
ENDBRANCH  18  19
ENDBRANCH  10  18
BRANCH   1  25
HETATM   25  O1  UNL     1      22.783   3.962  49.318  1.00  0.00    -0.353 OA
HETATM   26  C1  UNL     1      22.493   3.370  48.069  1.00  0.00     0.210 C 
ENDBRANCH   1  25
TORSDOF 8
ENDMDL
MODEL 5
REMARK VINA RESULT:      -6.8      2.996      5.157
REMARK  8 active torsions:
REMARK  status: ('A' for Active; 'I' for Inactive)
REMARK    1  A    between atoms: O1_2  and  C2_3 
REMARK    2  A    between atoms: C6_9  and  N3_10 
REMARK    3  A    between atoms: N3_10  and  C7_11 
REMARK    4  A    between atoms: C13_18  and  O2_19 
REMARK    5  A    between atoms: O2_19  and  C14_20 
REMARK    6  A    between atoms: C14_20  and  C15_21 
REMARK    7  A    between atoms: C15_21  and  C16_22 
REMARK    8  A    between atoms: C16_22  and  N4_23 
ROOT
HETATM    1  C2  UNL     1      23.243  -0.199  53.080  1.00  0.00     0.103 A 
HETATM    2  C3  UNL     1      24.407  -0.628  53.685  1.00  0.00     0.072 A 
HETATM    3  C4  UNL     1      25.586   0.048  53.474  1.00  0.00     0.075 A 
HETATM    4  N1  UNL     1      26.693  -0.428  54.098  1.00  0.00    -0.241 NA
HETATM    5  C5  UNL     1      27.892   0.190  53.936  1.00  0.00     0.235 A 
HETATM    6  N2  UNL     1      27.924   1.267  53.147  1.00  0.00    -0.224 NA
HETATM    7  C6  UNL     1      26.897   1.813  52.490  1.00  0.00     0.138 A 
HETATM    8  C11 UNL     1      25.697   1.166  52.675  1.00  0.00     0.041 A 
HETATM    9  C12 UNL     1      24.511   1.546  52.100  1.00  0.00     0.057 A 
HETATM   10  C13 UNL     1      23.309   0.915  52.271  1.00  0.00     0.103 A 
ENDROOT
BRANCH   7  11
HETATM   11  N3  UNL     1      26.962   2.959  51.657  1.00  0.00    -0.367 N 
HETATM   12  H6  UNL     1      27.400   3.835  52.005  1.00  0.00     0.161 HD
BRANCH  11  13
HETATM   13  C7  UNL     1      26.487   3.102  50.305  1.00  0.00     0.112 A 
HETATM   14  C8  UNL     1      25.683   4.218  49.896  1.00  0.00     0.059 A 
HETATM   15  C9  UNL     1      26.121   5.189  48.891  1.00  0.00     0.091 A 
HETATM   16  C10 UNL     1      27.025   4.084  49.354  1.00  0.00     0.086 A 
HETATM   17  F1  UNL     1      25.895   6.319  48.135  1.00  0.00    -0.214 F 
ENDBRANCH  11  13
ENDBRANCH   7  11
BRANCH  10  18
HETATM   18  O2  UNL     1      22.134   1.360  51.650  1.00  0.00    -0.348 OA
BRANCH  18  19
HETATM   19  C14 UNL     1      21.579   2.617  51.865  1.00  0.00     0.177 C 
BRANCH  19  20
HETATM   20  C15 UNL     1      20.349   2.439  52.763  1.00  0.00     0.042 C 
BRANCH  20  21
HETATM   21  C16 UNL     1      19.303   1.723  51.935  1.00  0.00     0.102 C 
BRANCH  21  22
HETATM   22  N4  UNL     1      19.433   0.288  52.203  1.00  0.00    -0.260 NA
HETATM   23 BR1  UNL     1      17.755  -0.545  52.009  1.00  0.00     0.009 Br
HETATM   24  H16 UNL     1      20.170  -0.130  51.618  1.00  0.00     0.135 HD
ENDBRANCH  21  22
ENDBRANCH  20  21
ENDBRANCH  19  20
ENDBRANCH  18  19
ENDBRANCH  10  18
BRANCH   1  25
HETATM   25  O1  UNL     1      22.035  -0.856  53.268  1.00  0.00    -0.353 OA
HETATM   26  C1  UNL     1      21.703  -1.204  54.596  1.00  0.00     0.210 C 
ENDBRANCH   1  25
TORSDOF 8
ENDMDL
MODEL 6
REMARK VINA RESULT:      -6.8      3.645      6.056
REMARK  8 active torsions:
REMARK  status: ('A' for Active; 'I' for Inactive)
REMARK    1  A    between atoms: O1_2  and  C2_3 
REMARK    2  A    between atoms: C6_9  and  N3_10 
REMARK    3  A    between atoms: N3_10  and  C7_11 
REMARK    4  A    between atoms: C13_18  and  O2_19 
REMARK    5  A    between atoms: O2_19  and  C14_20 
REMARK    6  A    between atoms: C14_20  and  C15_21 
REMARK    7  A    between atoms: C15_21  and  C16_22 
REMARK    8  A    between atoms: C16_22  and  N4_23 
ROOT
HETATM    1  C2  UNL     1      26.209   3.179  50.318  1.00  0.00     0.103 A 
HETATM    2  C3  UNL     1      24.990   3.415  49.718  1.00  0.00     0.072 A 
HETATM    3  C4  UNL     1      23.857   2.790  50.184  1.00  0.00     0.075 A 
HETATM    4  N1  UNL     1      22.690   3.066  49.547  1.00  0.00    -0.241 NA
HETATM    5  C5  UNL     1      21.532   2.485  49.954  1.00  0.00     0.235 A 
HETATM    6  N2  UNL     1      21.599   1.645  50.989  1.00  0.00    -0.224 NA
HETATM    7  C6  UNL     1      22.690   1.307  51.682  1.00  0.00     0.138 A 
HETATM    8  C11 UNL     1      23.847   1.912  51.247  1.00  0.00     0.041 A 
HETATM    9  C12 UNL     1      25.085   1.715  51.804  1.00  0.00     0.057 A 
HETATM   10  C13 UNL     1      26.245   2.306  51.386  1.00  0.00     0.103 A 
ENDROOT
BRANCH   7  11
HETATM   11  N3  UNL     1      22.730   0.409  52.779  1.00  0.00    -0.367 N 
HETATM   12  H6  UNL     1      23.563  -0.192  52.933  1.00  0.00     0.161 HD
BRANCH  11  13
HETATM   13  C7  UNL     1      21.724   0.192  53.786  1.00  0.00     0.112 A 
HETATM   14  C8  UNL     1      20.392  -0.225  53.453  1.00  0.00     0.059 A 
HETATM   15  C9  UNL     1      19.824  -1.501  53.891  1.00  0.00     0.091 A 
HETATM   16  C10 UNL     1      21.250  -1.138  54.188  1.00  0.00     0.086 A 
HETATM   17  F1  UNL     1      18.779  -2.398  53.935  1.00  0.00    -0.214 F 
ENDBRANCH  11  13
ENDBRANCH   7  11
BRANCH  10  18
HETATM   18  O2  UNL     1      27.479   2.058  52.003  1.00  0.00    -0.348 OA
BRANCH  18  19
HETATM   19  C14 UNL     1      27.661   2.047  53.382  1.00  0.00     0.177 C 
BRANCH  19  20
HETATM   20  C15 UNL     1      29.004   1.367  53.672  1.00  0.00     0.042 C 
BRANCH  20  21
HETATM   21  C16 UNL     1      28.690  -0.033  54.153  1.00  0.00     0.102 C 
BRANCH  21  22
HETATM   22  N4  UNL     1      27.245  -0.234  54.018  1.00  0.00    -0.260 NA
HETATM   23 BR1  UNL     1      26.909  -1.550  52.713  1.00  0.00     0.009 Br
HETATM   24  H16 UNL     1      26.815  -0.441  54.931  1.00  0.00     0.135 HD
ENDBRANCH  21  22
ENDBRANCH  20  21
ENDBRANCH  19  20
ENDBRANCH  18  19
ENDBRANCH  10  18
BRANCH   1  25
HETATM   25  O1  UNL     1      27.374   3.791  49.876  1.00  0.00    -0.353 OA
HETATM   26  C1  UNL     1      27.238   4.734  48.833  1.00  0.00     0.210 C 
ENDBRANCH   1  25
TORSDOF 8
ENDMDL
MODEL 7
REMARK VINA RESULT:      -6.8      3.771      7.244
REMARK  8 active torsions:
REMARK  status: ('A' for Active; 'I' for Inactive)
REMARK    1  A    between atoms: O1_2  and  C2_3 
REMARK    2  A    between atoms: C6_9  and  N3_10 
REMARK    3  A    between atoms: N3_10  and  C7_11 
REMARK    4  A    between atoms: C13_18  and  O2_19 
REMARK    5  A    between atoms: O2_19  and  C14_20 
REMARK    6  A    between atoms: C14_20  and  C15_21 
REMARK    7  A    between atoms: C15_21  and  C16_22 
REMARK    8  A    between atoms: C16_22  and  N4_23 
ROOT
HETATM    1  C2  UNL     1      25.594   3.013  51.055  1.00  0.00     0.103 A 
HETATM    2  C3  UNL     1      26.600   2.107  51.322  1.00  0.00     0.072 A 
HETATM    3  C4  UNL     1      26.359   1.026  52.138  1.00  0.00     0.075 A 
HETATM    4  N1  UNL     1      27.392   0.174  52.359  1.00  0.00    -0.241 NA
HETATM    5  C5  UNL     1      27.226  -0.914  53.154  1.00  0.00     0.235 A 
HETATM    6  N2  UNL     1      26.020  -1.099  53.696  1.00  0.00    -0.224 NA
HETATM    7  C6  UNL     1      24.943  -0.324  53.543  1.00  0.00     0.138 A 
HETATM    8  C11 UNL     1      25.142   0.769  52.732  1.00  0.00     0.041 A 
HETATM    9  C12 UNL     1      24.181   1.702  52.433  1.00  0.00     0.057 A 
HETATM   10  C13 UNL     1      24.360   2.795  51.630  1.00  0.00     0.103 A 
ENDROOT
BRANCH   7  11
HETATM   11  N3  UNL     1      23.673  -0.546  54.133  1.00  0.00    -0.367 N 
HETATM   12  H6  UNL     1      23.453  -0.145  55.067  1.00  0.00     0.161 HD
BRANCH  11  13
HETATM   13  C7  UNL     1      22.561  -1.288  53.598  1.00  0.00     0.112 A 
HETATM   14  C8  UNL     1      21.284  -1.321  54.250  1.00  0.00     0.059 A 
HETATM   15  C9  UNL     1      20.064  -0.789  53.639  1.00  0.00     0.091 A 
HETATM   16  C10 UNL     1      21.396  -0.660  52.961  1.00  0.00     0.086 A 
HETATM   17  F1  UNL     1      18.710  -0.535  53.686  1.00  0.00    -0.214 F 
ENDBRANCH  11  13
ENDBRANCH   7  11
BRANCH  10  18
HETATM   18  O2  UNL     1      23.330   3.709  51.368  1.00  0.00    -0.348 OA
BRANCH  18  19
HETATM   19  C14 UNL     1      22.890   4.657  52.286  1.00  0.00     0.177 C 
BRANCH  19  20
HETATM   20  C15 UNL     1      21.995   5.652  51.539  1.00  0.00     0.042 C 
BRANCH  20  21
HETATM   21  C16 UNL     1      22.916   6.594  50.792  1.00  0.00     0.102 C 
BRANCH  21  22
HETATM   22  N4  UNL     1      24.202   6.604  51.495  1.00  0.00    -0.260 NA
HETATM   23 BR1  UNL     1      25.470   7.554  50.478  1.00  0.00     0.009 Br
HETATM   24  H16 UNL     1      24.094   6.960  52.456  1.00  0.00     0.135 HD
ENDBRANCH  21  22
ENDBRANCH  20  21
ENDBRANCH  19  20
ENDBRANCH  18  19
ENDBRANCH  10  18
BRANCH   1  25
HETATM   25  O1  UNL     1      25.800   4.115  50.238  1.00  0.00    -0.353 OA
HETATM   26  C1  UNL     1      26.859   4.027  49.308  1.00  0.00     0.210 C 
ENDBRANCH   1  25
TORSDOF 8
ENDMDL
MODEL 8
REMARK VINA RESULT:      -6.7      2.404      4.783
REMARK  8 active torsions:
REMARK  status: ('A' for Active; 'I' for Inactive)
REMARK    1  A    between atoms: O1_2  and  C2_3 
REMARK    2  A    between atoms: C6_9  and  N3_10 
REMARK    3  A    between atoms: N3_10  and  C7_11 
REMARK    4  A    between atoms: C13_18  and  O2_19 
REMARK    5  A    between atoms: O2_19  and  C14_20 
REMARK    6  A    between atoms: C14_20  and  C15_21 
REMARK    7  A    between atoms: C15_21  and  C16_22 
REMARK    8  A    between atoms: C16_22  and  N4_23 
ROOT
HETATM    1  C2  UNL     1      22.680   0.146  53.539  1.00  0.00     0.103 A 
HETATM    2  C3  UNL     1      23.803  -0.606  53.815  1.00  0.00     0.072 A 
HETATM    3  C4  UNL     1      25.044  -0.168  53.416  1.00  0.00     0.075 A 
HETATM    4  N1  UNL     1      26.107  -0.957  53.719  1.00  0.00    -0.241 NA
HETATM    5  C5  UNL     1      27.362  -0.586  53.356  1.00  0.00     0.235 A 
HETATM    6  N2  UNL     1      27.494   0.568  52.699  1.00  0.00    -0.224 NA
HETATM    7  C6  UNL     1      26.519   1.413  52.354  1.00  0.00     0.138 A 
HETATM    8  C11 UNL     1      25.260   1.011  52.736  1.00  0.00     0.041 A 
HETATM    9  C12 UNL     1      24.109   1.716  52.488  1.00  0.00     0.057 A 
HETATM   10  C13 UNL     1      22.849   1.333  52.859  1.00  0.00     0.103 A 
ENDROOT
BRANCH   7  11
HETATM   11  N3  UNL     1      26.690   2.635  51.654  1.00  0.00    -0.367 N 
HETATM   12  H6  UNL     1      26.992   3.490  52.161  1.00  0.00     0.161 HD
BRANCH  11  13
HETATM   13  C7  UNL     1      26.504   2.886  50.249  1.00  0.00     0.112 A 
HETATM   14  C8  UNL     1      25.470   3.755  49.762  1.00  0.00     0.059 A 
HETATM   15  C9  UNL     1      25.749   4.991  49.029  1.00  0.00     0.091 A 
HETATM   16  C10 UNL     1      26.858   4.153  49.596  1.00  0.00     0.086 A 
HETATM   17  F1  UNL     1      25.312   6.121  48.371  1.00  0.00    -0.214 F 
ENDBRANCH  11  13
ENDBRANCH   7  11
BRANCH  10  18
HETATM   18  O2  UNL     1      21.715   2.106  52.572  1.00  0.00    -0.348 OA
BRANCH  18  19
HETATM   19  C14 UNL     1      21.627   2.968  51.484  1.00  0.00     0.177 C 
BRANCH  19  20
HETATM   20  C15 UNL     1      21.630   4.403  52.023  1.00  0.00     0.042 C 
BRANCH  20  21
HETATM   21  C16 UNL     1      22.289   5.266  50.968  1.00  0.00     0.102 C 
BRANCH  21  22
HETATM   22  N4  UNL     1      23.225   6.163  51.651  1.00  0.00    -0.260 NA
HETATM   23 BR1  UNL     1      23.443   7.737  50.640  1.00  0.00     0.009 Br
HETATM   24  H16 UNL     1      22.927   6.336  52.622  1.00  0.00     0.135 HD
ENDBRANCH  21  22
ENDBRANCH  20  21
ENDBRANCH  19  20
ENDBRANCH  18  19
ENDBRANCH  10  18
BRANCH   1  25
HETATM   25  O1  UNL     1      21.411  -0.264  53.925  1.00  0.00    -0.353 OA
HETATM   26  C1  UNL     1      21.310  -1.545  54.511  1.00  0.00     0.210 C 
ENDBRANCH   1  25
TORSDOF 8
ENDMDL
MODEL 9
REMARK VINA RESULT:      -6.7      3.635      5.831
REMARK  8 active torsions:
REMARK  status: ('A' for Active; 'I' for Inactive)
REMARK    1  A    between atoms: O1_2  and  C2_3 
REMARK    2  A    between atoms: C6_9  and  N3_10 
REMARK    3  A    between atoms: N3_10  and  C7_11 
REMARK    4  A    between atoms: C13_18  and  O2_19 
REMARK    5  A    between atoms: O2_19  and  C14_20 
REMARK    6  A    between atoms: C14_20  and  C15_21 
REMARK    7  A    between atoms: C15_21  and  C16_22 
REMARK    8  A    between atoms: C16_22  and  N4_23 
ROOT
HETATM    1  C2  UNL     1      25.777  -0.283  52.965  1.00  0.00     0.103 A 
HETATM    2  C3  UNL     1      26.530   0.498  52.113  1.00  0.00     0.072 A 
HETATM    3  C4  UNL     1      26.020   1.679  51.625  1.00  0.00     0.075 A 
HETATM    4  N1  UNL     1      26.814   2.398  50.791  1.00  0.00    -0.241 NA
HETATM    5  C5  UNL     1      26.376   3.575  50.272  1.00  0.00     0.235 A 
HETATM    6  N2  UNL     1      25.151   3.978  50.616  1.00  0.00    -0.224 NA
HETATM    7  C6  UNL     1      24.295   3.348  51.425  1.00  0.00     0.138 A 
HETATM    8  C11 UNL     1      24.767   2.161  51.935  1.00  0.00     0.041 A 
HETATM    9  C12 UNL     1      24.063   1.344  52.784  1.00  0.00     0.057 A 
HETATM   10  C13 UNL     1      24.515   0.161  53.301  1.00  0.00     0.103 A 
ENDROOT
BRANCH   7  11
HETATM   11  N3  UNL     1      22.997   3.802  51.772  1.00  0.00    -0.367 N 
HETATM   12  H6  UNL     1      22.828   4.246  52.696  1.00  0.00     0.161 HD
BRANCH  11  13
HETATM   13  C7  UNL     1      21.794   3.742  50.982  1.00  0.00     0.112 A 
HETATM   14  C8  UNL     1      20.755   2.790  51.251  1.00  0.00     0.059 A 
HETATM   15  C9  UNL     1      19.401   3.181  51.649  1.00  0.00     0.091 A 
HETATM   16  C10 UNL     1      20.484   4.203  51.460  1.00  0.00     0.086 A 
HETATM   17  F1  UNL     1      18.111   2.849  52.003  1.00  0.00    -0.214 F 
ENDBRANCH  11  13
ENDBRANCH   7  11
BRANCH  10  18
HETATM   18  O2  UNL     1      23.739  -0.625  54.165  1.00  0.00    -0.348 OA
BRANCH  18  19
HETATM   19  C14 UNL     1      22.469  -1.094  53.847  1.00  0.00     0.177 C 
BRANCH  19  20
HETATM   20  C15 UNL     1      21.461  -0.354  54.734  1.00  0.00     0.042 C 
BRANCH  20  21
HETATM   21  C16 UNL     1      20.341   0.112  53.828  1.00  0.00     0.102 C 
BRANCH  21  22
HETATM   22  N4  UNL     1      19.377  -0.985  53.718  1.00  0.00    -0.260 NA
HETATM   23 BR1  UNL     1      18.102  -0.575  52.393  1.00  0.00     0.009 Br
HETATM   24  H16 UNL     1      19.857  -1.883  53.562  1.00  0.00     0.135 HD
ENDBRANCH  21  22
ENDBRANCH  20  21
ENDBRANCH  19  20
ENDBRANCH  18  19
ENDBRANCH  10  18
BRANCH   1  25
HETATM   25  O1  UNL     1      26.256  -1.481  53.476  1.00  0.00    -0.353 OA
HETATM   26  C1  UNL     1      27.108  -2.233  52.638  1.00  0.00     0.210 C 
ENDBRANCH   1  25
TORSDOF 8
ENDMDL
