MODEL 1
REMARK VINA RESULT:      -9.0      0.000      0.000
REMARK  5 active torsions:
REMARK  status: ('A' for Active; 'I' for Inactive)
REMARK    1  A    between atoms: N2_6  and  C4_7 
REMARK    2  A    between atoms: C4_7  and  C5_8 
REMARK    3  A    between atoms: C11_14  and  C12_15 
REMARK       I    between atoms: C12_15  and  N3_17 
REMARK    4  A    between atoms: N3_17  and  C13_18 
REMARK    5  A    between atoms: C16_21  and  N4_22 
ROOT
HETATM    1  C12 UNL     1      24.153   2.147  52.110  1.00  0.00     0.259 C 
HETATM    2  O2  UNL     1      24.544   3.183  52.706  1.00  0.00    -0.267 OA
HETATM    3  N3  UNL     1      24.402   2.239  50.737  1.00  0.00    -0.323 N 
HETATM    4  H12 UNL     1      24.113   1.433  50.146  1.00  0.00     0.169 HD
ENDROOT
BRANCH   1   5
HETATM    5  C11 UNL     1      23.546   1.092  52.891  1.00  0.00     0.070 A 
HETATM    6  C2  UNL     1      24.187  -0.004  53.589  1.00  0.00     0.031 A 
HETATM    7  C1  UNL     1      25.498  -0.085  53.529  1.00  0.00     0.064 C 
HETATM    8  N1  UNL     1      23.544  -1.018  54.345  1.00  0.00    -0.311 N 
HETATM    9  C3  UNL     1      22.128  -0.951  54.429  1.00  0.00     0.326 A 
HETATM   10  H3  UNL     1      24.078  -1.766  54.815  1.00  0.00     0.170 HD
HETATM   11  O1  UNL     1      21.503  -1.821  55.086  1.00  0.00    -0.246 OA
HETATM   12  N2  UNL     1      21.518   0.125  53.742  1.00  0.00    -0.308 N 
HETATM   13  C10 UNL     1      22.228   1.115  52.995  1.00  0.00     0.114 A 
BRANCH  12  14
HETATM   14  C4  UNL     1      20.077   0.194  53.823  1.00  0.00     0.145 C 
BRANCH  14  15
HETATM   15  C5  UNL     1      19.428  -0.692  52.762  1.00  0.00     0.049 A 
HETATM   16  C6  UNL     1      18.256  -1.398  53.303  1.00  0.00    -0.017 A 
HETATM   17  C7  UNL     1      17.208  -1.018  52.590  1.00  0.00    -0.004 A 
HETATM   18  C8  UNL     1      17.609  -0.066  51.562  1.00  0.00    -0.004 A 
HETATM   19  C9  UNL     1      18.898   0.136  51.649  1.00  0.00    -0.017 A 
ENDBRANCH  14  15
ENDBRANCH  12  14
ENDBRANCH   1   5
BRANCH   3  20
HETATM   20  C13 UNL     1      25.012   3.343  50.089  1.00  0.00     0.035 A 
HETATM   21  C14 UNL     1      26.383   3.222  49.866  1.00  0.00     0.032 A 
HETATM   22  C15 UNL     1      27.078   4.260  49.236  1.00  0.00     0.031 A 
HETATM   23  C16 UNL     1      26.460   5.417  48.817  1.00  0.00     0.030 A 
HETATM   24  C22 UNL     1      25.104   5.473  49.066  1.00  0.00     0.031 A 
HETATM   25  C23 UNL     1      24.372   4.482  49.683  1.00  0.00     0.032 A 
BRANCH  23  26
HETATM   26  N4  UNL     1      27.170   6.471  48.178  1.00  0.00    -0.378 N 
HETATM   27  C17 UNL     1      26.354   7.580  47.720  1.00  0.00     0.153 C 
HETATM   28  C18 UNL     1      27.102   8.629  46.971  1.00  0.00     0.291 C 
HETATM   29  N5  UNL     1      28.514   8.617  47.206  1.00  0.00     0.087 N 
HETATM   30  C19 UNL     1      28.846   9.177  48.486  1.00  0.00     0.310 C 
HETATM   31  C20 UNL     1      29.057   7.309  46.994  1.00  0.00     0.291 C 
HETATM   32  C21 UNL     1      28.606   6.325  48.055  1.00  0.00     0.153 C 
ENDBRANCH  23  26
ENDBRANCH   3  20
TORSDOF 5
ENDMDL
MODEL 2
REMARK VINA RESULT:      -8.5      2.644      5.432
REMARK  5 active torsions:
REMARK  status: ('A' for Active; 'I' for Inactive)
REMARK    1  A    between atoms: N2_6  and  C4_7 
REMARK    2  A    between atoms: C4_7  and  C5_8 
REMARK    3  A    between atoms: C11_14  and  C12_15 
REMARK       I    between atoms: C12_15  and  N3_17 
REMARK    4  A    between atoms: N3_17  and  C13_18 
REMARK    5  A    between atoms: C16_21  and  N4_22 
ROOT
HETATM    1  C12 UNL     1      24.297   2.837  51.675  1.00  0.00     0.259 C 
HETATM    2  O2  UNL     1      23.810   3.915  52.101  1.00  0.00    -0.267 OA
HETATM    3  N3  UNL     1      24.666   2.955  50.331  1.00  0.00    -0.323 N 
HETATM    4  H12 UNL     1      25.078   2.115  49.876  1.00  0.00     0.169 HD
ENDROOT
BRANCH   1   5
HETATM    5  C11 UNL     1      24.392   1.717  52.585  1.00  0.00     0.070 A 
HETATM    6  C2  UNL     1      23.348   0.809  53.017  1.00  0.00     0.031 A 
HETATM    7  C1  UNL     1      22.138   0.994  52.538  1.00  0.00     0.064 C 
HETATM    8  N1  UNL     1      23.493  -0.281  53.914  1.00  0.00    -0.311 N 
HETATM    9  C3  UNL     1      24.791  -0.506  54.442  1.00  0.00     0.326 A 
HETATM   10  H3  UNL     1      22.694  -0.884  54.170  1.00  0.00     0.170 HD
HETATM   11  O1  UNL     1      24.982  -1.456  55.242  1.00  0.00    -0.246 OA
HETATM   12  N2  UNL     1      25.798   0.391  54.010  1.00  0.00    -0.308 N 
HETATM   13  C10 UNL     1      25.583   1.472  53.101  1.00  0.00     0.114 A 
BRANCH  12  14
HETATM   14  C4  UNL     1      27.120   0.166  54.548  1.00  0.00     0.145 C 
BRANCH  14  15
HETATM   15  C5  UNL     1      28.126  -0.099  53.431  1.00  0.00     0.049 A 
HETATM   16  C6  UNL     1      29.504   0.148  53.886  1.00  0.00    -0.017 A 
HETATM   17  C7  UNL     1      30.164  -0.993  53.766  1.00  0.00    -0.004 A 
HETATM   18  C8  UNL     1      29.292  -2.034  53.240  1.00  0.00    -0.004 A 
HETATM   19  C9  UNL     1      28.102  -1.532  53.039  1.00  0.00    -0.017 A 
ENDBRANCH  14  15
ENDBRANCH  12  14
ENDBRANCH   1   5
BRANCH   3  20
HETATM   20  C13 UNL     1      24.518   4.124  49.542  1.00  0.00     0.035 A 
HETATM   21  C14 UNL     1      25.650   4.933  49.455  1.00  0.00     0.032 A 
HETATM   22  C15 UNL     1      25.604   6.112  48.703  1.00  0.00     0.031 A 
HETATM   23  C16 UNL     1      24.473   6.517  48.030  1.00  0.00     0.030 A 
HETATM   24  C22 UNL     1      23.389   5.672  48.156  1.00  0.00     0.031 A 
HETATM   25  C23 UNL     1      23.379   4.502  48.885  1.00  0.00     0.032 A 
BRANCH  23  26
HETATM   26  N4  UNL     1      24.429   7.717  47.267  1.00  0.00    -0.378 N 
HETATM   27  C17 UNL     1      25.462   8.688  47.577  1.00  0.00     0.153 C 
HETATM   28  C18 UNL     1      25.343   9.974  46.834  1.00  0.00     0.291 C 
HETATM   29  N5  UNL     1      24.544   9.890  45.650  1.00  0.00     0.087 N 
HETATM   30  C19 UNL     1      25.247   9.242  44.578  1.00  0.00     0.310 C 
HETATM   31  C20 UNL     1      23.267   9.308  45.932  1.00  0.00     0.291 C 
HETATM   32  C21 UNL     1      23.375   7.837  46.281  1.00  0.00     0.153 C 
ENDBRANCH  23  26
ENDBRANCH   3  20
TORSDOF 5
ENDMDL
MODEL 3
REMARK VINA RESULT:      -8.4      2.557      4.756
REMARK  5 active torsions:
REMARK  status: ('A' for Active; 'I' for Inactive)
REMARK    1  A    between atoms: N2_6  and  C4_7 
REMARK    2  A    between atoms: C4_7  and  C5_8 
REMARK    3  A    between atoms: C11_14  and  C12_15 
REMARK       I    between atoms: C12_15  and  N3_17 
REMARK    4  A    between atoms: N3_17  and  C13_18 
REMARK    5  A    between atoms: C16_21  and  N4_22 
ROOT
HETATM    1  C12 UNL     1      24.978   3.458  50.732  1.00  0.00     0.259 C 
HETATM    2  O2  UNL     1      24.850   4.588  51.268  1.00  0.00    -0.267 OA
HETATM    3  N3  UNL     1      25.698   3.553  49.537  1.00  0.00    -0.323 N 
HETATM    4  H12 UNL     1      25.859   2.673  49.007  1.00  0.00     0.169 HD
ENDROOT
BRANCH   1   5
HETATM    5  C11 UNL     1      24.395   2.312  51.394  1.00  0.00     0.070 A 
HETATM    6  C2  UNL     1      23.008   1.892  51.429  1.00  0.00     0.031 A 
HETATM    7  C1  UNL     1      22.130   2.627  50.784  1.00  0.00     0.064 C 
HETATM    8  N1  UNL     1      22.485   0.754  52.094  1.00  0.00    -0.311 N 
HETATM    9  C3  UNL     1      23.414  -0.060  52.796  1.00  0.00     0.326 A 
HETATM   10  H3  UNL     1      21.479   0.524  52.069  1.00  0.00     0.170 HD
HETATM   11  O1  UNL     1      23.010  -1.082  53.404  1.00  0.00    -0.246 OA
HETATM   12  N2  UNL     1      24.764   0.364  52.751  1.00  0.00    -0.308 N 
HETATM   13  C10 UNL     1      25.225   1.527  52.060  1.00  0.00     0.114 A 
BRANCH  12  14
HETATM   14  C4  UNL     1      25.711  -0.460  53.466  1.00  0.00     0.145 C 
BRANCH  14  15
HETATM   15  C5  UNL     1      26.928  -0.770  52.598  1.00  0.00     0.049 A 
HETATM   16  C6  UNL     1      28.173  -0.329  53.250  1.00  0.00    -0.017 A 
HETATM   17  C7  UNL     1      28.925  -1.404  53.422  1.00  0.00    -0.004 A 
HETATM   18  C8  UNL     1      28.248  -2.588  52.910  1.00  0.00    -0.004 A 
HETATM   19  C9  UNL     1      27.084  -2.238  52.427  1.00  0.00    -0.017 A 
ENDBRANCH  14  15
ENDBRANCH  12  14
ENDBRANCH   1   5
BRANCH   3  20
HETATM   20  C13 UNL     1      26.221   4.753  48.991  1.00  0.00     0.035 A 
HETATM   21  C14 UNL     1      27.601   4.770  48.799  1.00  0.00     0.032 A 
HETATM   22  C15 UNL     1      28.214   5.911  48.268  1.00  0.00     0.031 A 
HETATM   23  C16 UNL     1      27.505   7.038  47.919  1.00  0.00     0.030 A 
HETATM   24  C22 UNL     1      26.143   6.956  48.134  1.00  0.00     0.031 A 
HETATM   25  C23 UNL     1      25.490   5.859  48.654  1.00  0.00     0.032 A 
BRANCH  23  26
HETATM   26  N4  UNL     1      28.130   8.197  47.382  1.00  0.00    -0.378 N 
HETATM   27  C17 UNL     1      27.511   9.459  47.740  1.00  0.00     0.153 C 
HETATM   28  C18 UNL     1      28.123  10.653  47.091  1.00  0.00     0.291 C 
HETATM   29  N5  UNL     1      29.452  10.433  46.605  1.00  0.00     0.087 N 
HETATM   30  C19 UNL     1      30.414  10.417  47.671  1.00  0.00     0.310 C 
HETATM   31  C20 UNL     1      29.506   9.275  45.766  1.00  0.00     0.291 C 
HETATM   32  C21 UNL     1      29.298   7.994  46.549  1.00  0.00     0.153 C 
ENDBRANCH  23  26
ENDBRANCH   3  20
TORSDOF 5
ENDMDL
MODEL 4
REMARK VINA RESULT:      -8.3      2.262      4.647
REMARK  5 active torsions:
REMARK  status: ('A' for Active; 'I' for Inactive)
REMARK    1  A    between atoms: N2_6  and  C4_7 
REMARK    2  A    between atoms: C4_7  and  C5_8 
REMARK    3  A    between atoms: C11_14  and  C12_15 
REMARK       I    between atoms: C12_15  and  N3_17 
REMARK    4  A    between atoms: N3_17  and  C13_18 
REMARK    5  A    between atoms: C16_21  and  N4_22 
ROOT
HETATM    1  C12 UNL     1      24.219   3.205  51.381  1.00  0.00     0.259 C 
HETATM    2  O2  UNL     1      24.240   4.335  51.932  1.00  0.00    -0.267 OA
HETATM    3  N3  UNL     1      24.622   3.296  50.045  1.00  0.00    -0.323 N 
HETATM    4  H12 UNL     1      24.637   2.415  49.492  1.00  0.00     0.169 HD
ENDROOT
BRANCH   1   5
HETATM    5  C11 UNL     1      23.806   2.063  52.167  1.00  0.00     0.070 A 
HETATM    6  C2  UNL     1      22.465   1.647  52.527  1.00  0.00     0.031 A 
HETATM    7  C1  UNL     1      21.461   2.381  52.101  1.00  0.00     0.064 C 
HETATM    8  N1  UNL     1      22.110   0.513  53.302  1.00  0.00    -0.311 N 
HETATM    9  C3  UNL     1      23.177  -0.299  53.771  1.00  0.00     0.326 A 
HETATM   10  H3  UNL     1      21.125   0.286  53.513  1.00  0.00     0.170 HD
HETATM   11  O1  UNL     1      22.925  -1.317  54.463  1.00  0.00    -0.246 OA
HETATM   12  N2  UNL     1      24.479   0.122  53.411  1.00  0.00    -0.308 N 
HETATM   13  C10 UNL     1      24.767   1.280  52.625  1.00  0.00     0.114 A 
BRANCH  12  14
HETATM   14  C4  UNL     1      25.566  -0.701  53.890  1.00  0.00     0.145 C 
BRANCH  14  15
HETATM   15  C5  UNL     1      26.686  -0.781  52.855  1.00  0.00     0.049 A 
HETATM   16  C6  UNL     1      27.947  -0.243  53.394  1.00  0.00    -0.017 A 
HETATM   17  C7  UNL     1      28.833  -1.226  53.366  1.00  0.00    -0.004 A 
HETATM   18  C8  UNL     1      28.234  -2.438  52.822  1.00  0.00    -0.004 A 
HETATM   19  C9  UNL     1      26.984  -2.197  52.521  1.00  0.00    -0.017 A 
ENDBRANCH  14  15
ENDBRANCH  12  14
ENDBRANCH   1   5
BRANCH   3  20
HETATM   20  C13 UNL     1      25.007   4.492  49.386  1.00  0.00     0.035 A 
HETATM   21  C14 UNL     1      26.381   4.708  49.295  1.00  0.00     0.032 A 
HETATM   22  C15 UNL     1      26.862   5.862  48.666  1.00  0.00     0.031 A 
HETATM   23  C16 UNL     1      26.026   6.811  48.122  1.00  0.00     0.030 A 
HETATM   24  C22 UNL     1      24.678   6.536  48.245  1.00  0.00     0.031 A 
HETATM   25  C23 UNL     1      24.152   5.417  48.855  1.00  0.00     0.032 A 
BRANCH  23  26
HETATM   26  N4  UNL     1      26.517   7.983  47.484  1.00  0.00    -0.378 N 
HETATM   27  C17 UNL     1      27.936   7.977  47.181  1.00  0.00     0.153 C 
HETATM   28  C18 UNL     1      28.449   9.249  46.600  1.00  0.00     0.291 C 
HETATM   29  N5  UNL     1      27.433  10.079  46.027  1.00  0.00     0.087 N 
HETATM   30  C19 UNL     1      26.993   9.579  44.754  1.00  0.00     0.310 C 
HETATM   31  C20 UNL     1      26.366  10.299  46.956  1.00  0.00     0.291 C 
HETATM   32  C21 UNL     1      25.564   9.039  47.212  1.00  0.00     0.153 C 
ENDBRANCH  23  26
ENDBRANCH   3  20
TORSDOF 5
ENDMDL
MODEL 5
REMARK VINA RESULT:      -8.2      4.405      6.408
REMARK  5 active torsions:
REMARK  status: ('A' for Active; 'I' for Inactive)
REMARK    1  A    between atoms: N2_6  and  C4_7 
REMARK    2  A    between atoms: C4_7  and  C5_8 
REMARK    3  A    between atoms: C11_14  and  C12_15 
REMARK       I    between atoms: C12_15  and  N3_17 
REMARK    4  A    between atoms: N3_17  and  C13_18 
REMARK    5  A    between atoms: C16_21  and  N4_22 
ROOT
HETATM    1  C12 UNL     1      21.418   1.124  51.310  1.00  0.00     0.259 C 
HETATM    2  O2  UNL     1      21.201   2.352  51.472  1.00  0.00    -0.267 OA
HETATM    3  N3  UNL     1      21.364   0.783  49.955  1.00  0.00    -0.323 N 
HETATM    4  H12 UNL     1      21.526  -0.214  49.708  1.00  0.00     0.169 HD
ENDROOT
BRANCH   1   5
HETATM    5  C11 UNL     1      21.672   0.310  52.478  1.00  0.00     0.070 A 
HETATM    6  C2  UNL     1      20.724  -0.399  53.314  1.00  0.00     0.031 A 
HETATM    7  C1  UNL     1      19.450  -0.315  53.001  1.00  0.00     0.064 C 
HETATM    8  N1  UNL     1      21.024  -1.189  54.453  1.00  0.00    -0.311 N 
HETATM    9  C3  UNL     1      22.394  -1.299  54.810  1.00  0.00     0.326 A 
HETATM   10  H3  UNL     1      20.285  -1.664  54.996  1.00  0.00     0.170 HD
HETATM   11  O1  UNL     1      22.723  -1.987  55.810  1.00  0.00    -0.246 OA
HETATM   12  N2  UNL     1      23.307  -0.601  53.983  1.00  0.00    -0.308 N 
HETATM   13  C10 UNL     1      22.935   0.180  52.847  1.00  0.00     0.114 A 
BRANCH  12  14
HETATM   14  C4  UNL     1      24.702  -0.710  54.347  1.00  0.00     0.145 C 
BRANCH  14  15
HETATM   15  C5  UNL     1      25.599  -0.192  53.225  1.00  0.00     0.049 A 
HETATM   16  C6  UNL     1      26.499   0.867  53.711  1.00  0.00    -0.017 A 
HETATM   17  C7  UNL     1      27.738   0.441  53.524  1.00  0.00    -0.004 A 
HETATM   18  C8  UNL     1      27.736  -0.885  52.920  1.00  0.00    -0.004 A 
HETATM   19  C9  UNL     1      26.499  -1.269  52.740  1.00  0.00    -0.017 A 
ENDBRANCH  14  15
ENDBRANCH  12  14
ENDBRANCH   1   5
BRANCH   3  20
HETATM   20  C13 UNL     1      21.102   1.689  48.894  1.00  0.00     0.035 A 
HETATM   21  C14 UNL     1      22.211   2.056  48.135  1.00  0.00     0.032 A 
HETATM   22  C15 UNL     1      22.057   2.948  47.067  1.00  0.00     0.031 A 
HETATM   23  C16 UNL     1      20.838   3.489  46.725  1.00  0.00     0.030 A 
HETATM   24  C22 UNL     1      19.781   3.084  47.516  1.00  0.00     0.031 A 
HETATM   25  C23 UNL     1      19.878   2.210  48.578  1.00  0.00     0.032 A 
BRANCH  23  26
HETATM   26  N4  UNL     1      20.685   4.396  45.641  1.00  0.00    -0.378 N 
HETATM   27  C17 UNL     1      21.901   5.059  45.209  1.00  0.00     0.153 C 
HETATM   28  C18 UNL     1      21.704   6.074  44.136  1.00  0.00     0.291 C 
HETATM   29  N5  UNL     1      20.482   5.919  43.407  1.00  0.00     0.087 N 
HETATM   30  C19 UNL     1      20.552   4.828  42.475  1.00  0.00     0.310 C 
HETATM   31  C20 UNL     1      19.361   5.844  44.294  1.00  0.00     0.291 C 
HETATM   32  C21 UNL     1      19.353   4.558  45.095  1.00  0.00     0.153 C 
ENDBRANCH  23  26
ENDBRANCH   3  20
TORSDOF 5
ENDMDL
MODEL 6
REMARK VINA RESULT:      -8.1      4.882      7.195
REMARK  5 active torsions:
REMARK  status: ('A' for Active; 'I' for Inactive)
REMARK    1  A    between atoms: N2_6  and  C4_7 
REMARK    2  A    between atoms: C4_7  and  C5_8 
REMARK    3  A    between atoms: C11_14  and  C12_15 
REMARK       I    between atoms: C12_15  and  N3_17 
REMARK    4  A    between atoms: N3_17  and  C13_18 
REMARK    5  A    between atoms: C16_21  and  N4_22 
ROOT
HETATM    1  C12 UNL     1      19.370  -0.195  52.512  1.00  0.00     0.259 C 
HETATM    2  O2  UNL     1      20.005  -0.181  51.426  1.00  0.00    -0.267 OA
HETATM    3  N3  UNL     1      20.227   0.042  53.592  1.00  0.00    -0.323 N 
HETATM    4  H12 UNL     1      19.804   0.048  54.542  1.00  0.00     0.169 HD
ENDROOT
BRANCH   1   5
HETATM    5  C11 UNL     1      17.946  -0.440  52.474  1.00  0.00     0.070 A 
HETATM    6  C2  UNL     1      17.205  -1.568  53.002  1.00  0.00     0.031 A 
HETATM    7  C1  UNL     1      17.884  -2.519  53.605  1.00  0.00     0.064 C 
HETATM    8  N1  UNL     1      15.801  -1.762  52.941  1.00  0.00    -0.311 N 
HETATM    9  C3  UNL     1      15.043  -0.748  52.298  1.00  0.00     0.326 A 
HETATM   10  H3  UNL     1      15.350  -2.598  53.345  1.00  0.00     0.170 HD
HETATM   11  O1  UNL     1      13.795  -0.863  52.213  1.00  0.00    -0.246 OA
HETATM   12  N2  UNL     1      15.783   0.346  51.788  1.00  0.00    -0.308 N 
HETATM   13  C10 UNL     1      17.202   0.479  51.884  1.00  0.00     0.114 A 
BRANCH  12  14
HETATM   14  C4  UNL     1      15.014   1.379  51.131  1.00  0.00     0.145 C 
BRANCH  14  15
HETATM   15  C5  UNL     1      14.932   2.633  51.998  1.00  0.00     0.049 A 
HETATM   16  C6  UNL     1      14.637   3.824  51.184  1.00  0.00    -0.017 A 
HETATM   17  C7  UNL     1      13.492   4.322  51.624  1.00  0.00    -0.004 A 
HETATM   18  C8  UNL     1      12.974   3.518  52.723  1.00  0.00    -0.004 A 
HETATM   19  C9  UNL     1      13.799   2.530  52.953  1.00  0.00    -0.017 A 
ENDBRANCH  14  15
ENDBRANCH  12  14
ENDBRANCH   1   5
BRANCH   3  20
HETATM   20  C13 UNL     1      21.624   0.270  53.492  1.00  0.00     0.035 A 
HETATM   21  C14 UNL     1      22.432  -0.795  53.887  1.00  0.00     0.032 A 
HETATM   22  C15 UNL     1      23.825  -0.667  53.830  1.00  0.00     0.031 A 
HETATM   23  C16 UNL     1      24.445   0.481  53.392  1.00  0.00     0.030 A 
HETATM   24  C22 UNL     1      23.588   1.496  53.015  1.00  0.00     0.031 A 
HETATM   25  C23 UNL     1      22.212   1.424  53.053  1.00  0.00     0.032 A 
BRANCH  23  26
HETATM   26  N4  UNL     1      25.861   0.609  53.336  1.00  0.00    -0.378 N 
HETATM   27  C17 UNL     1      26.365   1.967  53.412  1.00  0.00     0.153 C 
HETATM   28  C18 UNL     1      27.842   2.087  53.257  1.00  0.00     0.291 C 
HETATM   29  N5  UNL     1      28.554   0.871  53.509  1.00  0.00     0.087 N 
HETATM   30  C19 UNL     1      28.642   0.587  54.914  1.00  0.00     0.310 C 
HETATM   31  C20 UNL     1      28.015  -0.209  52.739  1.00  0.00     0.291 C 
HETATM   32  C21 UNL     1      26.632  -0.611  53.211  1.00  0.00     0.153 C 
ENDBRANCH  23  26
ENDBRANCH   3  20
TORSDOF 5
ENDMDL
MODEL 7
REMARK VINA RESULT:      -8.0      2.625      4.174
REMARK  5 active torsions:
REMARK  status: ('A' for Active; 'I' for Inactive)
REMARK    1  A    between atoms: N2_6  and  C4_7 
REMARK    2  A    between atoms: C4_7  and  C5_8 
REMARK    3  A    between atoms: C11_14  and  C12_15 
REMARK       I    between atoms: C12_15  and  N3_17 
REMARK    4  A    between atoms: N3_17  and  C13_18 
REMARK    5  A    between atoms: C16_21  and  N4_22 
ROOT
HETATM    1  C12 UNL     1      23.749   4.781  49.822  1.00  0.00     0.259 C 
HETATM    2  O2  UNL     1      23.774   4.903  48.571  1.00  0.00    -0.267 OA
HETATM    3  N3  UNL     1      24.969   5.173  50.384  1.00  0.00    -0.323 N 
HETATM    4  H12 UNL     1      25.058   5.108  51.419  1.00  0.00     0.169 HD
ENDROOT
BRANCH   1   5
HETATM    5  C11 UNL     1      22.540   4.286  50.442  1.00  0.00     0.070 A 
HETATM    6  C2  UNL     1      21.290   4.982  50.677  1.00  0.00     0.031 A 
HETATM    7  C1  UNL     1      21.204   6.234  50.286  1.00  0.00     0.064 C 
HETATM    8  N1  UNL     1      20.127   4.449  51.290  1.00  0.00    -0.311 N 
HETATM    9  C3  UNL     1      20.193   3.096  51.717  1.00  0.00     0.326 A 
HETATM   10  H3  UNL     1      19.273   5.015  51.418  1.00  0.00     0.170 HD
HETATM   11  O1  UNL     1      19.194   2.569  52.267  1.00  0.00    -0.246 OA
HETATM   12  N2  UNL     1      21.420   2.432  51.481  1.00  0.00    -0.308 N 
HETATM   13  C10 UNL     1      22.557   3.031  50.855  1.00  0.00     0.114 A 
BRANCH  12  14
HETATM   14  C4  UNL     1      21.491   1.056  51.917  1.00  0.00     0.145 C 
BRANCH  14  15
HETATM   15  C5  UNL     1      22.090   0.958  53.318  1.00  0.00     0.049 A 
HETATM   16  C6  UNL     1      21.221   0.178  54.215  1.00  0.00    -0.017 A 
HETATM   17  C7  UNL     1      21.923  -0.865  54.626  1.00  0.00    -0.004 A 
HETATM   18  C8  UNL     1      23.260  -0.842  54.047  1.00  0.00    -0.004 A 
HETATM   19  C9  UNL     1      23.374   0.212  53.282  1.00  0.00    -0.017 A 
ENDBRANCH  14  15
ENDBRANCH  12  14
ENDBRANCH   1   5
BRANCH   3  20
HETATM   20  C13 UNL     1      26.090   5.646  49.656  1.00  0.00     0.035 A 
HETATM   21  C14 UNL     1      26.976   4.662  49.218  1.00  0.00     0.032 A 
HETATM   22  C15 UNL     1      28.116   5.028  48.494  1.00  0.00     0.031 A 
HETATM   23  C16 UNL     1      28.408   6.338  48.185  1.00  0.00     0.030 A 
HETATM   24  C22 UNL     1      27.491   7.261  48.646  1.00  0.00     0.031 A 
HETATM   25  C23 UNL     1      26.355   6.956  49.365  1.00  0.00     0.032 A 
BRANCH  23  26
HETATM   26  N4  UNL     1      29.568   6.707  47.450  1.00  0.00    -0.378 N 
HETATM   27  C17 UNL     1      29.368   7.741  46.452  1.00  0.00     0.153 C 
HETATM   28  C18 UNL     1      30.572   8.047  45.629  1.00  0.00     0.291 C 
HETATM   29  N5  UNL     1      31.805   7.628  46.223  1.00  0.00     0.087 N 
HETATM   30  C19 UNL     1      32.208   8.505  47.287  1.00  0.00     0.310 C 
HETATM   31  C20 UNL     1      31.747   6.250  46.607  1.00  0.00     0.291 C 
HETATM   32  C21 UNL     1      30.803   6.021  47.771  1.00  0.00     0.153 C 
ENDBRANCH  23  26
ENDBRANCH   3  20
TORSDOF 5
ENDMDL
MODEL 8
REMARK VINA RESULT:      -8.0      3.782     10.262
REMARK  5 active torsions:
REMARK  status: ('A' for Active; 'I' for Inactive)
REMARK    1  A    between atoms: N2_6  and  C4_7 
REMARK    2  A    between atoms: C4_7  and  C5_8 
REMARK    3  A    between atoms: C11_14  and  C12_15 
REMARK       I    between atoms: C12_15  and  N3_17 
REMARK    4  A    between atoms: N3_17  and  C13_18 
REMARK    5  A    between atoms: C16_21  and  N4_22 
ROOT
HETATM    1  C12 UNL     1      22.386   1.520  52.091  1.00  0.00     0.259 C 
HETATM    2  O2  UNL     1      21.613   2.224  52.788  1.00  0.00    -0.267 OA
HETATM    3  N3  UNL     1      21.675   0.525  51.411  1.00  0.00    -0.323 N 
HETATM    4  H12 UNL     1      22.221  -0.120  50.805  1.00  0.00     0.169 HD
ENDROOT
BRANCH   1   5
HETATM    5  C11 UNL     1      23.798   1.829  52.103  1.00  0.00     0.070 A 
HETATM    6  C2  UNL     1      24.491   2.933  51.468  1.00  0.00     0.031 A 
HETATM    7  C1  UNL     1      23.772   3.791  50.780  1.00  0.00     0.064 C 
HETATM    8  N1  UNL     1      25.884   3.195  51.511  1.00  0.00    -0.311 N 
HETATM    9  C3  UNL     1      26.683   2.284  52.252  1.00  0.00     0.326 A 
HETATM   10  H3  UNL     1      26.299   4.008  51.030  1.00  0.00     0.170 HD
HETATM   11  O1  UNL     1      27.925   2.463  52.327  1.00  0.00    -0.246 OA
HETATM   12  N2  UNL     1      25.991   1.212  52.865  1.00  0.00    -0.308 N 
HETATM   13  C10 UNL     1      24.580   1.006  52.781  1.00  0.00     0.114 A 
BRANCH  12  14
HETATM   14  C4  UNL     1      26.802   0.282  53.618  1.00  0.00     0.145 C 
BRANCH  14  15
HETATM   15  C5  UNL     1      27.684  -0.549  52.688  1.00  0.00     0.049 A 
HETATM   16  C6  UNL     1      29.052  -0.669  53.219  1.00  0.00    -0.017 A 
HETATM   17  C7  UNL     1      29.284  -1.958  53.408  1.00  0.00    -0.004 A 
HETATM   18  C8  UNL     1      28.121  -2.748  53.025  1.00  0.00    -0.004 A 
HETATM   19  C9  UNL     1      27.180  -1.944  52.604  1.00  0.00    -0.017 A 
ENDBRANCH  14  15
ENDBRANCH  12  14
ENDBRANCH   1   5
BRANCH   3  20
HETATM   20  C13 UNL     1      20.272   0.326  51.487  1.00  0.00     0.035 A 
HETATM   21  C14 UNL     1      19.821  -0.315  52.639  1.00  0.00     0.032 A 
HETATM   22  C15 UNL     1      18.454  -0.561  52.807  1.00  0.00     0.031 A 
HETATM   23  C16 UNL     1      17.516  -0.191  51.870  1.00  0.00     0.030 A 
HETATM   24  C22 UNL     1      18.027   0.441  50.754  1.00  0.00     0.031 A 
HETATM   25  C23 UNL     1      19.363   0.706  50.539  1.00  0.00     0.032 A 
BRANCH  23  26
HETATM   26  N4  UNL     1      16.126  -0.443  52.042  1.00  0.00    -0.378 N 
HETATM   27  C17 UNL     1      15.359   0.659  52.592  1.00  0.00     0.153 C 
HETATM   28  C18 UNL     1      13.926   0.344  52.853  1.00  0.00     0.291 C 
HETATM   29  N5  UNL     1      13.438  -0.790  52.127  1.00  0.00     0.087 N 
HETATM   30  C19 UNL     1      13.203  -0.476  50.745  1.00  0.00     0.310 C 
HETATM   31  C20 UNL     1      14.286  -1.927  52.321  1.00  0.00     0.291 C 
HETATM   32  C21 UNL     1      15.637  -1.751  51.657  1.00  0.00     0.153 C 
ENDBRANCH  23  26
ENDBRANCH   3  20
TORSDOF 5
ENDMDL
MODEL 9
REMARK VINA RESULT:      -7.9      3.535     11.166
REMARK  5 active torsions:
REMARK  status: ('A' for Active; 'I' for Inactive)
REMARK    1  A    between atoms: N2_6  and  C4_7 
REMARK    2  A    between atoms: C4_7  and  C5_8 
REMARK    3  A    between atoms: C11_14  and  C12_15 
REMARK       I    between atoms: C12_15  and  N3_17 
REMARK    4  A    between atoms: N3_17  and  C13_18 
REMARK    5  A    between atoms: C16_21  and  N4_22 
ROOT
HETATM    1  C12 UNL     1      27.540   5.620  48.654  1.00  0.00     0.259 C 
HETATM    2  O2  UNL     1      26.672   6.354  49.190  1.00  0.00    -0.267 OA
HETATM    3  N3  UNL     1      27.220   4.268  48.820  1.00  0.00    -0.323 N 
HETATM    4  H12 UNL     1      27.877   3.571  48.416  1.00  0.00     0.169 HD
ENDROOT
BRANCH   1   5
HETATM    5  C11 UNL     1      28.662   6.249  47.993  1.00  0.00     0.070 A 
HETATM    6  C2  UNL     1      28.678   7.444  47.173  1.00  0.00     0.031 A 
HETATM    7  C1  UNL     1      27.538   8.069  46.979  1.00  0.00     0.064 C 
HETATM    8  N1  UNL     1      29.810   8.025  46.545  1.00  0.00    -0.311 N 
HETATM    9  C3  UNL     1      31.055   7.371  46.742  1.00  0.00     0.326 A 
HETATM   10  H3  UNL     1      29.735   8.883  45.975  1.00  0.00     0.170 HD
HETATM   11  O1  UNL     1      32.094   7.839  46.212  1.00  0.00    -0.246 OA
HETATM   12  N2  UNL     1      31.021   6.206  47.546  1.00  0.00    -0.308 N 
HETATM   13  C10 UNL     1      29.841   5.674  48.149  1.00  0.00     0.114 A 
BRANCH  12  14
HETATM   14  C4  UNL     1      32.287   5.538  47.745  1.00  0.00     0.145 C 
BRANCH  14  15
HETATM   15  C5  UNL     1      32.598   4.602  46.580  1.00  0.00     0.049 A 
HETATM   16  C6  UNL     1      34.048   4.522  46.335  1.00  0.00    -0.017 A 
HETATM   17  C7  UNL     1      34.402   3.257  46.501  1.00  0.00    -0.004 A 
HETATM   18  C8  UNL     1      33.245   2.446  46.854  1.00  0.00    -0.004 A 
HETATM   19  C9  UNL     1      32.187   3.212  46.905  1.00  0.00    -0.017 A 
ENDBRANCH  14  15
ENDBRANCH  12  14
ENDBRANCH   1   5
BRANCH   3  20
HETATM   20  C13 UNL     1      26.074   3.777  49.497  1.00  0.00     0.035 A 
HETATM   21  C14 UNL     1      26.334   3.030  50.645  1.00  0.00     0.032 A 
HETATM   22  C15 UNL     1      25.271   2.498  51.383  1.00  0.00     0.031 A 
HETATM   23  C16 UNL     1      23.955   2.683  51.022  1.00  0.00     0.030 A 
HETATM   24  C22 UNL     1      23.766   3.432  49.877  1.00  0.00     0.031 A 
HETATM   25  C23 UNL     1      24.777   3.977  49.114  1.00  0.00     0.032 A 
BRANCH  23  26
HETATM   26  N4  UNL     1      22.876   2.139  51.772  1.00  0.00    -0.378 N 
HETATM   27  C17 UNL     1      21.683   2.963  51.829  1.00  0.00     0.153 C 
HETATM   28  C18 UNL     1      20.599   2.422  52.697  1.00  0.00     0.291 C 
HETATM   29  N5  UNL     1      20.710   1.019  52.959  1.00  0.00     0.087 N 
HETATM   30  C19 UNL     1      20.310   0.232  51.826  1.00  0.00     0.310 C 
HETATM   31  C20 UNL     1      22.013   0.691  53.452  1.00  0.00     0.291 C 
HETATM   32  C21 UNL     1      23.082   0.845  52.389  1.00  0.00     0.153 C 
ENDBRANCH  23  26
ENDBRANCH   3  20
TORSDOF 5
ENDMDL
