MODEL 1
REMARK VINA RESULT:      -8.8      0.000      0.000
REMARK  6 active torsions:
REMARK  status: ('A' for Active; 'I' for Inactive)
REMARK    1  A    between atoms: C4_6  and  C5_7 
REMARK    2  A    between atoms: C5_7  and  C6_8 
REMARK    3  A    between atoms: C7_9  and  C8_10 
REMARK    4  A    between atoms: C8_10  and  C9_11 
REMARK    5  A    between atoms: C9_11  and  C10_12 
REMARK    6  A    between atoms: C10_12  and  C11_13 
ROOT
HETATM    1  N1  UNL     1      28.097  -0.169  55.028  1.00  0.00    -0.191 NA
HETATM    2  C1  UNL     1      27.471   0.376  54.197  1.00  0.00     0.103 C 
HETATM    3  C2  UNL     1      26.713   1.045  53.187  1.00  0.00     0.089 A 
HETATM    4  C3  UNL     1      27.291   1.938  52.314  1.00  0.00     0.142 A 
HETATM    5  N2  UNL     1      26.555   2.533  51.396  1.00  0.00    -0.259 NA
HETATM    6  C4  UNL     1      25.246   2.392  51.171  1.00  0.00     0.069 A 
HETATM    7  C12 UNL     1      24.673   1.501  52.043  1.00  0.00     0.022 A 
HETATM    8  C13 UNL     1      25.360   0.843  53.019  1.00  0.00     0.067 A 
HETATM    9  N3  UNL     1      24.778  -0.088  53.934  1.00  0.00    -0.353 N 
HETATM   10  C14 UNL     1      23.393  -0.377  53.859  1.00  0.00     0.044 A 
HETATM   11  C15 UNL     1      22.832  -1.269  54.735  1.00  0.00     0.030 A 
HETATM   12  C16 UNL     1      21.483  -1.523  54.626  1.00  0.00     0.004 A 
HETATM   13  C17 UNL     1      20.725  -0.883  53.649  1.00  0.00     0.020 A 
HETATM   14  C18 UNL     1      21.341   0.005  52.795  1.00  0.00     0.023 A 
HETATM   15 BR1  UNL     1      20.324   0.902  51.441  1.00  0.00    -0.050 Br
HETATM   16  C19 UNL     1      22.705   0.294  52.867  1.00  0.00     0.009 A 
HETATM   17  C20 UNL     1      23.393   1.218  51.990  1.00  0.00     0.031 A 
HETATM   18  H10 UNL     1      25.343  -0.567  54.666  1.00  0.00     0.166 HD
ENDROOT
BRANCH   6  19
HETATM   19  C5  UNL     1      24.529   2.994  50.244  1.00  0.00     0.032 C 
BRANCH  19  20
HETATM   20  C6  UNL     1      24.387   4.421  50.004  1.00  0.00    -0.001 C 
HETATM   21  C7  UNL     1      25.194   5.347  49.455  1.00  0.00    -0.023 C 
BRANCH  21  22
HETATM   22  C8  UNL     1      26.387   5.921  48.811  1.00  0.00     0.054 C 
BRANCH  22  23
HETATM   23  C9  UNL     1      27.470   4.923  48.627  1.00  0.00    -0.024 C 
BRANCH  23  24
HETATM   24  C10 UNL     1      28.725   5.331  48.357  1.00  0.00     0.006 C 
BRANCH  24  25
HETATM   25  C11 UNL     1      30.124   5.540  48.054  1.00  0.00     0.418 C 
HETATM   26  O1  UNL     1      31.184   5.055  48.535  1.00  0.00    -0.426 OA
ENDBRANCH  24  25
ENDBRANCH  23  24
ENDBRANCH  22  23
ENDBRANCH  21  22
ENDBRANCH  19  20
ENDBRANCH   6  19
TORSDOF 6
ENDMDL
MODEL 2
REMARK VINA RESULT:      -8.6      1.576      1.851
REMARK  6 active torsions:
REMARK  status: ('A' for Active; 'I' for Inactive)
REMARK    1  A    between atoms: C4_6  and  C5_7 
REMARK    2  A    between atoms: C5_7  and  C6_8 
REMARK    3  A    between atoms: C7_9  and  C8_10 
REMARK    4  A    between atoms: C8_10  and  C9_11 
REMARK    5  A    between atoms: C9_11  and  C10_12 
REMARK    6  A    between atoms: C10_12  and  C11_13 
ROOT
HETATM    1  N1  UNL     1      28.018  -0.167  55.027  1.00  0.00    -0.191 NA
HETATM    2  C1  UNL     1      27.426   0.389  54.179  1.00  0.00     0.103 C 
HETATM    3  C2  UNL     1      26.709   1.072  53.148  1.00  0.00     0.089 A 
HETATM    4  C3  UNL     1      27.329   1.947  52.286  1.00  0.00     0.142 A 
HETATM    5  N2  UNL     1      26.630   2.555  51.348  1.00  0.00    -0.259 NA
HETATM    6  C4  UNL     1      25.323   2.444  51.091  1.00  0.00     0.069 A 
HETATM    7  C12 UNL     1      24.708   1.571  51.952  1.00  0.00     0.022 A 
HETATM    8  C13 UNL     1      25.356   0.901  52.947  1.00  0.00     0.067 A 
HETATM    9  N3  UNL     1      24.730  -0.012  53.852  1.00  0.00    -0.353 N 
HETATM   10  C14 UNL     1      23.340  -0.268  53.743  1.00  0.00     0.044 A 
HETATM   11  C15 UNL     1      22.737  -1.144  54.608  1.00  0.00     0.030 A 
HETATM   12  C16 UNL     1      21.385  -1.366  54.467  1.00  0.00     0.004 A 
HETATM   13  C17 UNL     1      20.667  -0.713  53.470  1.00  0.00     0.020 A 
HETATM   14  C18 UNL     1      21.325   0.157  52.628  1.00  0.00     0.023 A 
HETATM   15 BR1  UNL     1      20.363   1.072  51.245  1.00  0.00    -0.050 Br
HETATM   16  C19 UNL     1      22.693   0.415  52.733  1.00  0.00     0.009 A 
HETATM   17  C20 UNL     1      23.424   1.318  51.869  1.00  0.00     0.031 A 
HETATM   18  H10 UNL     1      25.264  -0.501  54.599  1.00  0.00     0.166 HD
ENDROOT
BRANCH   6  19
HETATM   19  C5  UNL     1      24.644   3.059  50.145  1.00  0.00     0.032 C 
BRANCH  19  20
HETATM   20  C6  UNL     1      24.858   4.392  49.607  1.00  0.00    -0.001 C 
HETATM   21  C7  UNL     1      25.935   5.017  49.095  1.00  0.00    -0.023 C 
BRANCH  21  22
HETATM   22  C8  UNL     1      27.324   5.218  48.652  1.00  0.00     0.054 C 
BRANCH  22  23
HETATM   23  C9  UNL     1      27.613   6.631  48.305  1.00  0.00    -0.024 C 
BRANCH  23  24
HETATM   24  C10 UNL     1      27.116   7.628  49.063  1.00  0.00     0.006 C 
BRANCH  24  25
HETATM   25  C11 UNL     1      26.645   8.565  50.059  1.00  0.00     0.418 C 
HETATM   26  O1  UNL     1      26.628   9.826  50.105  1.00  0.00    -0.426 OA
ENDBRANCH  24  25
ENDBRANCH  23  24
ENDBRANCH  22  23
ENDBRANCH  21  22
ENDBRANCH  19  20
ENDBRANCH   6  19
TORSDOF 6
ENDMDL
MODEL 3
REMARK VINA RESULT:      -8.4      2.983      6.728
REMARK  6 active torsions:
REMARK  status: ('A' for Active; 'I' for Inactive)
REMARK    1  A    between atoms: C4_6  and  C5_7 
REMARK    2  A    between atoms: C5_7  and  C6_8 
REMARK    3  A    between atoms: C7_9  and  C8_10 
REMARK    4  A    between atoms: C8_10  and  C9_11 
REMARK    5  A    between atoms: C9_11  and  C10_12 
REMARK    6  A    between atoms: C10_12  and  C11_13 
ROOT
HETATM    1  N1  UNL     1      29.039   2.487  54.112  1.00  0.00    -0.191 NA
HETATM    2  C1  UNL     1      28.010   1.949  53.936  1.00  0.00     0.103 C 
HETATM    3  C2  UNL     1      26.760   1.290  53.725  1.00  0.00     0.089 A 
HETATM    4  C3  UNL     1      26.352   0.232  54.505  1.00  0.00     0.142 A 
HETATM    5  N2  UNL     1      25.191  -0.347  54.276  1.00  0.00    -0.259 NA
HETATM    6  C4  UNL     1      24.289  -0.044  53.338  1.00  0.00     0.069 A 
HETATM    7  C12 UNL     1      24.698   1.010  52.561  1.00  0.00     0.022 A 
HETATM    8  C13 UNL     1      25.881   1.665  52.731  1.00  0.00     0.067 A 
HETATM    9  N3  UNL     1      26.321   2.765  51.931  1.00  0.00    -0.353 N 
HETATM   10  C14 UNL     1      25.502   3.241  50.876  1.00  0.00     0.044 A 
HETATM   11  C15 UNL     1      25.921   4.296  50.108  1.00  0.00     0.030 A 
HETATM   12  C16 UNL     1      25.095   4.729  49.096  1.00  0.00     0.004 A 
HETATM   13  C17 UNL     1      23.872   4.102  48.872  1.00  0.00     0.020 A 
HETATM   14  C18 UNL     1      23.501   3.046  49.675  1.00  0.00     0.023 A 
HETATM   15 BR1  UNL     1      21.825   2.161  49.390  1.00  0.00    -0.050 Br
HETATM   16  C19 UNL     1      24.306   2.572  50.713  1.00  0.00     0.009 A 
HETATM   17  C20 UNL     1      23.956   1.468  51.581  1.00  0.00     0.031 A 
HETATM   18  H10 UNL     1      27.235   3.235  52.096  1.00  0.00     0.166 HD
ENDROOT
BRANCH   6  19
HETATM   19  C5  UNL     1      23.130  -0.635  53.127  1.00  0.00     0.032 C 
BRANCH  19  20
HETATM   20  C6  UNL     1      22.255  -1.268  54.100  1.00  0.00    -0.001 C 
HETATM   21  C7  UNL     1      20.920  -1.430  54.170  1.00  0.00    -0.023 C 
BRANCH  21  22
HETATM   22  C8  UNL     1      19.504  -1.339  53.781  1.00  0.00     0.054 C 
BRANCH  22  23
HETATM   23  C9  UNL     1      19.281  -0.394  52.659  1.00  0.00    -0.024 C 
BRANCH  23  24
HETATM   24  C10 UNL     1      19.753   0.866  52.732  1.00  0.00     0.006 C 
BRANCH  24  25
HETATM   25  C11 UNL     1      20.421   2.147  52.657  1.00  0.00     0.418 C 
HETATM   26  O1  UNL     1      19.996   3.334  52.689  1.00  0.00    -0.426 OA
ENDBRANCH  24  25
ENDBRANCH  23  24
ENDBRANCH  22  23
ENDBRANCH  21  22
ENDBRANCH  19  20
ENDBRANCH   6  19
TORSDOF 6
ENDMDL
MODEL 4
REMARK VINA RESULT:      -8.4      3.540      7.033
REMARK  6 active torsions:
REMARK  status: ('A' for Active; 'I' for Inactive)
REMARK    1  A    between atoms: C4_6  and  C5_7 
REMARK    2  A    between atoms: C5_7  and  C6_8 
REMARK    3  A    between atoms: C7_9  and  C8_10 
REMARK    4  A    between atoms: C8_10  and  C9_11 
REMARK    5  A    between atoms: C9_11  and  C10_12 
REMARK    6  A    between atoms: C10_12  and  C11_13 
ROOT
HETATM    1  N1  UNL     1      27.676   4.787  48.922  1.00  0.00    -0.191 NA
HETATM    2  C1  UNL     1      26.771   4.182  49.363  1.00  0.00     0.103 C 
HETATM    3  C2  UNL     1      25.665   3.451  49.897  1.00  0.00     0.089 A 
HETATM    4  C3  UNL     1      24.408   3.519  49.341  1.00  0.00     0.142 A 
HETATM    5  N2  UNL     1      23.417   2.827  49.865  1.00  0.00    -0.259 NA
HETATM    6  C4  UNL     1      23.448   2.016  50.927  1.00  0.00     0.069 A 
HETATM    7  C12 UNL     1      24.702   1.950  51.479  1.00  0.00     0.022 A 
HETATM    8  C13 UNL     1      25.781   2.631  50.999  1.00  0.00     0.067 A 
HETATM    9  N3  UNL     1      27.094   2.572  51.563  1.00  0.00    -0.353 N 
HETATM   10  C14 UNL     1      27.336   1.762  52.701  1.00  0.00     0.044 A 
HETATM   11  C15 UNL     1      28.593   1.703  53.243  1.00  0.00     0.030 A 
HETATM   12  C16 UNL     1      28.786   0.903  54.346  1.00  0.00     0.004 A 
HETATM   13  C17 UNL     1      27.723   0.181  54.884  1.00  0.00     0.020 A 
HETATM   14  C18 UNL     1      26.480   0.278  54.298  1.00  0.00     0.023 A 
HETATM   15 BR1  UNL     1      24.998  -0.702  55.016  1.00  0.00    -0.050 Br
HETATM   16  C19 UNL     1      26.237   1.076  53.179  1.00  0.00     0.009 A 
HETATM   17  C20 UNL     1      24.949   1.206  52.531  1.00  0.00     0.031 A 
HETATM   18  H10 UNL     1      27.889   3.111  51.163  1.00  0.00     0.166 HD
ENDROOT
BRANCH   6  19
HETATM   19  C5  UNL     1      22.445   1.330  51.433  1.00  0.00     0.032 C 
BRANCH  19  20
HETATM   20  C6  UNL     1      21.428   0.569  50.725  1.00  0.00    -0.001 C 
HETATM   21  C7  UNL     1      20.122   0.337  50.958  1.00  0.00    -0.023 C 
BRANCH  21  22
HETATM   22  C8  UNL     1      18.817   0.394  51.636  1.00  0.00     0.054 C 
BRANCH  22  23
HETATM   23  C9  UNL     1      18.706  -0.589  52.742  1.00  0.00    -0.024 C 
BRANCH  23  24
HETATM   24  C10 UNL     1      19.767  -0.839  53.533  1.00  0.00     0.006 C 
BRANCH  24  25
HETATM   25  C11 UNL     1      21.000  -0.918  54.284  1.00  0.00     0.418 C 
HETATM   26  O1  UNL     1      21.465  -1.785  55.074  1.00  0.00    -0.426 OA
ENDBRANCH  24  25
ENDBRANCH  23  24
ENDBRANCH  22  23
ENDBRANCH  21  22
ENDBRANCH  19  20
ENDBRANCH   6  19
TORSDOF 6
ENDMDL
MODEL 5
REMARK VINA RESULT:      -8.2      2.408      3.144
REMARK  6 active torsions:
REMARK  status: ('A' for Active; 'I' for Inactive)
REMARK    1  A    between atoms: C4_6  and  C5_7 
REMARK    2  A    between atoms: C5_7  and  C6_8 
REMARK    3  A    between atoms: C7_9  and  C8_10 
REMARK    4  A    between atoms: C8_10  and  C9_11 
REMARK    5  A    between atoms: C9_11  and  C10_12 
REMARK    6  A    between atoms: C10_12  and  C11_13 
ROOT
HETATM    1  N1  UNL     1      27.941  -0.441  54.961  1.00  0.00    -0.191 NA
HETATM    2  C1  UNL     1      27.407   0.196  54.132  1.00  0.00     0.103 C 
HETATM    3  C2  UNL     1      26.763   0.977  53.123  1.00  0.00     0.089 A 
HETATM    4  C3  UNL     1      27.460   1.851  52.321  1.00  0.00     0.142 A 
HETATM    5  N2  UNL     1      26.825   2.551  51.402  1.00  0.00    -0.259 NA
HETATM    6  C4  UNL     1      25.521   2.542  51.113  1.00  0.00     0.069 A 
HETATM    7  C12 UNL     1      24.828   1.671  51.915  1.00  0.00     0.022 A 
HETATM    8  C13 UNL     1      25.406   0.909  52.886  1.00  0.00     0.067 A 
HETATM    9  N3  UNL     1      24.699  -0.004  53.729  1.00  0.00    -0.353 N 
HETATM   10  C14 UNL     1      23.298  -0.159  53.580  1.00  0.00     0.044 A 
HETATM   11  C15 UNL     1      22.617  -1.035  54.385  1.00  0.00     0.030 A 
HETATM   12  C16 UNL     1      21.258  -1.157  54.206  1.00  0.00     0.004 A 
HETATM   13  C17 UNL     1      20.609  -0.407  53.229  1.00  0.00     0.020 A 
HETATM   14  C18 UNL     1      21.343   0.457  52.447  1.00  0.00     0.023 A 
HETATM   15 BR1  UNL     1      20.477   1.505  51.095  1.00  0.00    -0.050 Br
HETATM   16  C19 UNL     1      22.722   0.616  52.593  1.00  0.00     0.009 A 
HETATM   17  C20 UNL     1      23.532   1.510  51.793  1.00  0.00     0.031 A 
HETATM   18  H10 UNL     1      25.182  -0.565  54.460  1.00  0.00     0.166 HD
ENDROOT
BRANCH   6  19
HETATM   19  C5  UNL     1      24.906   3.249  50.187  1.00  0.00     0.032 C 
BRANCH  19  20
HETATM   20  C6  UNL     1      25.412   4.395  49.447  1.00  0.00    -0.001 C 
HETATM   21  C7  UNL     1      25.465   5.713  49.714  1.00  0.00    -0.023 C 
BRANCH  21  22
HETATM   22  C8  UNL     1      25.286   6.972  50.456  1.00  0.00     0.054 C 
BRANCH  22  23
HETATM   23  C9  UNL     1      23.859   7.351  50.599  1.00  0.00    -0.024 C 
BRANCH  23  24
HETATM   24  C10 UNL     1      22.954   6.437  51.000  1.00  0.00     0.006 C 
BRANCH  24  25
HETATM   25  C11 UNL     1      22.121   5.428  51.617  1.00  0.00     0.418 C 
HETATM   26  O1  UNL     1      22.274   4.702  52.638  1.00  0.00    -0.426 OA
ENDBRANCH  24  25
ENDBRANCH  23  24
ENDBRANCH  22  23
ENDBRANCH  21  22
ENDBRANCH  19  20
ENDBRANCH   6  19
TORSDOF 6
ENDMDL
MODEL 6
REMARK VINA RESULT:      -7.9      3.222      4.220
REMARK  6 active torsions:
REMARK  status: ('A' for Active; 'I' for Inactive)
REMARK    1  A    between atoms: C4_6  and  C5_7 
REMARK    2  A    between atoms: C5_7  and  C6_8 
REMARK    3  A    between atoms: C7_9  and  C8_10 
REMARK    4  A    between atoms: C8_10  and  C9_11 
REMARK    5  A    between atoms: C9_11  and  C10_12 
REMARK    6  A    between atoms: C10_12  and  C11_13 
ROOT
HETATM    1  N1  UNL     1      27.896  -0.517  54.609  1.00  0.00    -0.191 NA
HETATM    2  C1  UNL     1      27.229   0.156  53.915  1.00  0.00     0.103 C 
HETATM    3  C2  UNL     1      26.422   0.981  53.071  1.00  0.00     0.089 A 
HETATM    4  C3  UNL     1      26.966   1.968  52.281  1.00  0.00     0.142 A 
HETATM    5  N2  UNL     1      26.184   2.705  51.517  1.00  0.00    -0.259 NA
HETATM    6  C4  UNL     1      24.857   2.636  51.384  1.00  0.00     0.069 A 
HETATM    7  C12 UNL     1      24.318   1.651  52.173  1.00  0.00     0.022 A 
HETATM    8  C13 UNL     1      25.053   0.844  52.991  1.00  0.00     0.067 A 
HETATM    9  N3  UNL     1      24.507  -0.186  53.818  1.00  0.00    -0.353 N 
HETATM   10  C14 UNL     1      23.109  -0.420  53.820  1.00  0.00     0.044 A 
HETATM   11  C15 UNL     1      22.582  -1.408  54.612  1.00  0.00     0.030 A 
HETATM   12  C16 UNL     1      21.220  -1.603  54.583  1.00  0.00     0.004 A 
HETATM   13  C17 UNL     1      20.415  -0.813  53.768  1.00  0.00     0.020 A 
HETATM   14  C18 UNL     1      20.997   0.166  52.993  1.00  0.00     0.023 A 
HETATM   15 BR1  UNL     1      19.915   1.272  51.862  1.00  0.00    -0.050 Br
HETATM   16  C19 UNL     1      22.373   0.402  52.989  1.00  0.00     0.009 A 
HETATM   17  C20 UNL     1      23.027   1.416  52.190  1.00  0.00     0.031 A 
HETATM   18  H10 UNL     1      25.107  -0.778  54.428  1.00  0.00     0.166 HD
ENDROOT
BRANCH   6  19
HETATM   19  C5  UNL     1      24.095   3.381  50.611  1.00  0.00     0.032 C 
BRANCH  19  20
HETATM   20  C6  UNL     1      23.818   3.214  49.193  1.00  0.00    -0.001 C 
HETATM   21  C7  UNL     1      22.859   2.559  48.512  1.00  0.00    -0.023 C 
BRANCH  21  22
HETATM   22  C8  UNL     1      21.665   1.731  48.276  1.00  0.00     0.054 C 
BRANCH  22  23
HETATM   23  C9  UNL     1      20.418   2.533  48.226  1.00  0.00    -0.024 C 
BRANCH  23  24
HETATM   24  C10 UNL     1      20.284   3.624  49.004  1.00  0.00     0.006 C 
BRANCH  24  25
HETATM   25  C11 UNL     1      19.928   4.815  49.745  1.00  0.00     0.418 C 
HETATM   26  O1  UNL     1      19.091   5.734  49.531  1.00  0.00    -0.426 OA
ENDBRANCH  24  25
ENDBRANCH  23  24
ENDBRANCH  22  23
ENDBRANCH  21  22
ENDBRANCH  19  20
ENDBRANCH   6  19
TORSDOF 6
ENDMDL
MODEL 7
REMARK VINA RESULT:      -7.9      4.548      8.410
REMARK  6 active torsions:
REMARK  status: ('A' for Active; 'I' for Inactive)
REMARK    1  A    between atoms: C4_6  and  C5_7 
REMARK    2  A    between atoms: C5_7  and  C6_8 
REMARK    3  A    between atoms: C7_9  and  C8_10 
REMARK    4  A    between atoms: C8_10  and  C9_11 
REMARK    5  A    between atoms: C9_11  and  C10_12 
REMARK    6  A    between atoms: C10_12  and  C11_13 
ROOT
HETATM    1  N1  UNL     1      25.711  -1.058  55.016  1.00  0.00    -0.191 NA
HETATM    2  C1  UNL     1      24.757  -0.681  54.445  1.00  0.00     0.103 C 
HETATM    3  C2  UNL     1      23.592  -0.228  53.750  1.00  0.00     0.089 A 
HETATM    4  C3  UNL     1      22.331  -0.677  54.071  1.00  0.00     0.142 A 
HETATM    5  N2  UNL     1      21.285  -0.233  53.405  1.00  0.00    -0.259 NA
HETATM    6  C4  UNL     1      21.259   0.645  52.398  1.00  0.00     0.069 A 
HETATM    7  C12 UNL     1      22.518   1.090  52.080  1.00  0.00     0.022 A 
HETATM    8  C13 UNL     1      23.651   0.684  52.718  1.00  0.00     0.067 A 
HETATM    9  N3  UNL     1      24.969   1.138  52.400  1.00  0.00    -0.353 N 
HETATM   10  C14 UNL     1      25.156   2.077  51.355  1.00  0.00     0.044 A 
HETATM   11  C15 UNL     1      26.418   2.516  51.048  1.00  0.00     0.030 A 
HETATM   12  C16 UNL     1      26.555   3.430  50.027  1.00  0.00     0.004 A 
HETATM   13  C17 UNL     1      25.435   3.885  49.337  1.00  0.00     0.020 A 
HETATM   14  C18 UNL     1      24.191   3.411  49.689  1.00  0.00     0.023 A 
HETATM   15 BR1  UNL     1      22.630   4.018  48.756  1.00  0.00    -0.050 Br
HETATM   16  C19 UNL     1      24.002   2.484  50.715  1.00  0.00     0.009 A 
HETATM   17  C20 UNL     1      22.714   1.960  51.118  1.00  0.00     0.031 A 
HETATM   18  H10 UNL     1      25.808   0.799  52.914  1.00  0.00     0.166 HD
ENDROOT
BRANCH   6  19
HETATM   19  C5  UNL     1      20.200   1.079  51.747  1.00  0.00     0.032 C 
BRANCH  19  20
HETATM   20  C6  UNL     1      19.125   0.297  51.157  1.00  0.00    -0.001 C 
HETATM   21  C7  UNL     1      18.120  -0.430  51.681  1.00  0.00    -0.023 C 
BRANCH  21  22
HETATM   22  C8  UNL     1      17.261  -1.048  52.704  1.00  0.00     0.054 C 
BRANCH  22  23
HETATM   23  C9  UNL     1      17.979  -2.066  53.511  1.00  0.00    -0.024 C 
BRANCH  23  24
HETATM   24  C10 UNL     1      17.483  -3.313  53.622  1.00  0.00     0.006 C 
BRANCH  24  25
HETATM   25  C11 UNL     1      16.750  -4.560  53.664  1.00  0.00     0.418 C 
HETATM   26  O1  UNL     1      15.977  -5.066  54.523  1.00  0.00    -0.426 OA
ENDBRANCH  24  25
ENDBRANCH  23  24
ENDBRANCH  22  23
ENDBRANCH  21  22
ENDBRANCH  19  20
ENDBRANCH   6  19
TORSDOF 6
ENDMDL
MODEL 8
REMARK VINA RESULT:      -7.9      2.833      4.495
REMARK  6 active torsions:
REMARK  status: ('A' for Active; 'I' for Inactive)
REMARK    1  A    between atoms: C4_6  and  C5_7 
REMARK    2  A    between atoms: C5_7  and  C6_8 
REMARK    3  A    between atoms: C7_9  and  C8_10 
REMARK    4  A    between atoms: C8_10  and  C9_11 
REMARK    5  A    between atoms: C9_11  and  C10_12 
REMARK    6  A    between atoms: C10_12  and  C11_13 
ROOT
HETATM    1  N1  UNL     1      17.604  -0.674  52.347  1.00  0.00    -0.191 NA
HETATM    2  C1  UNL     1      18.549  -0.169  51.865  1.00  0.00     0.103 C 
HETATM    3  C2  UNL     1      19.696   0.443  51.272  1.00  0.00     0.089 A 
HETATM    4  C3  UNL     1      19.616   1.162  50.102  1.00  0.00     0.142 A 
HETATM    5  N2  UNL     1      20.699   1.711  49.590  1.00  0.00    -0.259 NA
HETATM    6  C4  UNL     1      21.947   1.673  50.067  1.00  0.00     0.069 A 
HETATM    7  C12 UNL     1      22.024   0.955  51.233  1.00  0.00     0.022 A 
HETATM    8  C13 UNL     1      20.954   0.357  51.830  1.00  0.00     0.067 A 
HETATM    9  N3  UNL     1      21.018  -0.393  53.045  1.00  0.00    -0.353 N 
HETATM   10  C14 UNL     1      22.259  -0.552  53.710  1.00  0.00     0.044 A 
HETATM   11  C15 UNL     1      22.323  -1.270  54.876  1.00  0.00     0.030 A 
HETATM   12  C16 UNL     1      23.548  -1.398  55.492  1.00  0.00     0.004 A 
HETATM   13  C17 UNL     1      24.679  -0.809  54.933  1.00  0.00     0.020 A 
HETATM   14  C18 UNL     1      24.556  -0.098  53.759  1.00  0.00     0.023 A 
HETATM   15 BR1  UNL     1      26.095   0.722  52.965  1.00  0.00    -0.050 Br
HETATM   16  C19 UNL     1      23.336   0.058  53.099  1.00  0.00     0.009 A 
HETATM   17  C20 UNL     1      23.162   0.797  51.866  1.00  0.00     0.031 A 
HETATM   18  H10 UNL     1      20.173  -0.835  53.464  1.00  0.00     0.166 HD
ENDROOT
BRANCH   6  19
HETATM   19  C5  UNL     1      23.017   2.233  49.541  1.00  0.00     0.032 C 
BRANCH  19  20
HETATM   20  C6  UNL     1      23.133   3.543  48.920  1.00  0.00    -0.001 C 
HETATM   21  C7  UNL     1      24.062   4.514  48.986  1.00  0.00    -0.023 C 
BRANCH  21  22
HETATM   22  C8  UNL     1      25.296   5.209  49.388  1.00  0.00     0.054 C 
BRANCH  22  23
HETATM   23  C9  UNL     1      26.492   4.335  49.315  1.00  0.00    -0.024 C 
BRANCH  23  24
HETATM   24  C10 UNL     1      27.624   4.785  48.741  1.00  0.00     0.006 C 
BRANCH  24  25
HETATM   25  C11 UNL     1      28.796   5.469  48.238  1.00  0.00     0.418 C 
HETATM   26  O1  UNL     1      29.983   5.092  48.036  1.00  0.00    -0.426 OA
ENDBRANCH  24  25
ENDBRANCH  23  24
ENDBRANCH  22  23
ENDBRANCH  21  22
ENDBRANCH  19  20
ENDBRANCH   6  19
TORSDOF 6
ENDMDL
MODEL 9
REMARK VINA RESULT:      -7.8      3.367      7.459
REMARK  6 active torsions:
REMARK  status: ('A' for Active; 'I' for Inactive)
REMARK    1  A    between atoms: C4_6  and  C5_7 
REMARK    2  A    between atoms: C5_7  and  C6_8 
REMARK    3  A    between atoms: C7_9  and  C8_10 
REMARK    4  A    between atoms: C8_10  and  C9_11 
REMARK    5  A    between atoms: C9_11  and  C10_12 
REMARK    6  A    between atoms: C10_12  and  C11_13 
ROOT
HETATM    1  N1  UNL     1      28.329   2.363  52.700  1.00  0.00    -0.191 NA
HETATM    2  C1  UNL     1      27.230   2.275  52.295  1.00  0.00     0.103 C 
HETATM    3  C2  UNL     1      25.894   2.161  51.801  1.00  0.00     0.089 A 
HETATM    4  C3  UNL     1      25.054   1.146  52.200  1.00  0.00     0.142 A 
HETATM    5  N2  UNL     1      23.828   1.078  51.720  1.00  0.00    -0.259 NA
HETATM    6  C4  UNL     1      23.237   1.900  50.847  1.00  0.00     0.069 A 
HETATM    7  C12 UNL     1      24.077   2.910  50.452  1.00  0.00     0.022 A 
HETATM    8  C13 UNL     1      25.357   3.054  50.899  1.00  0.00     0.067 A 
HETATM    9  N3  UNL     1      26.244   4.101  50.497  1.00  0.00    -0.353 N 
HETATM   10  C14 UNL     1      25.804   5.080  49.572  1.00  0.00     0.044 A 
HETATM   11  C15 UNL     1      26.651   6.086  49.185  1.00  0.00     0.030 A 
HETATM   12  C16 UNL     1      26.184   7.017  48.286  1.00  0.00     0.004 A 
HETATM   13  C17 UNL     1      24.885   6.926  47.793  1.00  0.00     0.020 A 
HETATM   14  C18 UNL     1      24.076   5.894  48.216  1.00  0.00     0.023 A 
HETATM   15 BR1  UNL     1      22.284   5.741  47.553  1.00  0.00    -0.050 Br
HETATM   16  C19 UNL     1      24.506   4.926  49.125  1.00  0.00     0.009 A 
HETATM   17  C20 UNL     1      23.691   3.827  49.597  1.00  0.00     0.031 A 
HETATM   18  H10 UNL     1      27.215   4.171  50.864  1.00  0.00     0.166 HD
ENDROOT
BRANCH   6  19
HETATM   19  C5  UNL     1      22.008   1.816  50.383  1.00  0.00     0.032 C 
BRANCH  19  20
HETATM   20  C6  UNL     1      21.093   0.689  50.458  1.00  0.00    -0.001 C 
HETATM   21  C7  UNL     1      20.228   0.266  51.399  1.00  0.00    -0.023 C 
BRANCH  21  22
HETATM   22  C8  UNL     1      19.483   0.242  52.668  1.00  0.00     0.054 C 
BRANCH  22  23
HETATM   23  C9  UNL     1      19.915  -0.860  53.562  1.00  0.00    -0.024 C 
BRANCH  23  24
HETATM   24  C10 UNL     1      21.121  -0.812  54.160  1.00  0.00     0.006 C 
BRANCH  24  25
HETATM   25  C11 UNL     1      22.378  -0.985  54.854  1.00  0.00     0.418 C 
HETATM   26  O1  UNL     1      22.767  -1.816  55.721  1.00  0.00    -0.426 OA
ENDBRANCH  24  25
ENDBRANCH  23  24
ENDBRANCH  22  23
ENDBRANCH  21  22
ENDBRANCH  19  20
ENDBRANCH   6  19
TORSDOF 6
ENDMDL
