MODEL 1
REMARK VINA RESULT:      -6.9      0.000      0.000
REMARK  0 active torsions:
REMARK  status: ('A' for Active; 'I' for Inactive)
ROOT
HETATM    1  C1  UNL     1      28.568   8.586  45.098  1.00  0.00     0.119 C 
HETATM    2  S1  UNL     1      28.212   8.076  46.804  1.00  0.00     0.071 SA
HETATM    3  C2  UNL     1      29.790   7.835  47.608  1.00  0.00     0.251 A 
HETATM    4  C3  UNL     1      31.010   7.974  47.206  1.00  0.00     0.164 C 
HETATM    5  N1  UNL     1      32.392   7.897  47.489  1.00  0.00    -0.154 N 
HETATM    6  C4  UNL     1      33.019   7.870  48.676  1.00  0.00     0.071 A 
HETATM    7  C5  UNL     1      34.374   7.867  48.578  1.00  0.00     0.164 A 
HETATM    8  N2  UNL     1      34.520   7.888  47.244  1.00  0.00    -0.075 NA
HETATM    9  C6  UNL     1      33.373   7.904  46.575  1.00  0.00     0.707 A 
HETATM   10  N3  UNL     1      33.295   7.882  45.136  1.00  0.00    -0.213 N 
HETATM   11  C7  UNL     1      32.879   6.471  45.115  1.00  0.00     0.238 C 
HETATM   12  S2  UNL     1      34.049   5.557  46.154  1.00  0.00    -0.010 SA
HETATM   13  N4  UNL     1      33.618   3.923  46.426  1.00  0.00    -0.231 NA
HETATM   14  C8  UNL     1      32.456   3.532  46.751  1.00  0.00     0.104 C 
HETATM   15  C9  UNL     1      31.104   4.022  47.033  1.00  0.00     0.103 C 
HETATM   16  C10 UNL     1      30.990   4.997  48.136  1.00  0.00     0.037 C 
HETATM   17  N5  UNL     1      31.806   5.454  48.982  1.00  0.00    -0.188 NA
HETATM   18  N6  UNL     1      31.723   6.351  50.006  1.00  0.00    -0.308 N 
HETATM   19  C11 UNL     1      31.982   7.766  49.742  1.00  0.00     0.201 C 
HETATM   20  C12 UNL     1      29.553   5.428  48.122  1.00  0.00     0.062 C 
HETATM   21  O1  UNL     1      29.461   6.453  49.061  1.00  0.00     0.000 OA
HETATM   22  N7  UNL     1      28.791   7.526  48.575  1.00  0.00     0.187 N 
HETATM   23  H6  UNL     1      33.535   8.775  44.656  1.00  0.00     0.178 HD
HETATM   24  H12 UNL     1      31.475   6.008  50.958  1.00  0.00     0.182 HD
HETATM   25  H17 UNL     1      28.451   6.938  49.353  1.00  0.00     0.341 HD
ENDROOT
TORSDOF 0
ENDMDL
MODEL 2
REMARK VINA RESULT:      -6.5      9.138     11.732
REMARK  0 active torsions:
REMARK  status: ('A' for Active; 'I' for Inactive)
ROOT
HETATM    1  C1  UNL     1      24.935  -0.218  53.110  1.00  0.00     0.119 C 
HETATM    2  S1  UNL     1      25.423   1.531  53.089  1.00  0.00     0.071 SA
HETATM    3  C2  UNL     1      23.960   2.468  52.664  1.00  0.00     0.251 A 
HETATM    4  C3  UNL     1      22.740   2.125  52.417  1.00  0.00     0.164 C 
HETATM    5  N1  UNL     1      21.422   2.505  52.079  1.00  0.00    -0.154 N 
HETATM    6  C4  UNL     1      20.833   3.709  52.167  1.00  0.00     0.071 A 
HETATM    7  C5  UNL     1      19.519   3.701  51.821  1.00  0.00     0.164 A 
HETATM    8  N2  UNL     1      19.359   2.405  51.511  1.00  0.00    -0.075 NA
HETATM    9  C6  UNL     1      20.459   1.675  51.650  1.00  0.00     0.707 A 
HETATM   10  N3  UNL     1      20.525   0.272  51.330  1.00  0.00    -0.213 N 
HETATM   11  C7  UNL     1      21.276   0.523  50.090  1.00  0.00     0.238 C 
HETATM   12  S2  UNL     1      20.376   1.805  49.177  1.00  0.00    -0.010 SA
HETATM   13  N4  UNL     1      21.199   2.389  47.794  1.00  0.00    -0.231 NA
HETATM   14  C8  UNL     1      22.425   2.715  47.772  1.00  0.00     0.104 C 
HETATM   15  C9  UNL     1      23.618   2.799  48.619  1.00  0.00     0.103 C 
HETATM   16  C10 UNL     1      23.500   3.661  49.812  1.00  0.00     0.037 C 
HETATM   17  N5  UNL     1      22.606   4.441  50.237  1.00  0.00    -0.188 NA
HETATM   18  N6  UNL     1      22.476   5.244  51.332  1.00  0.00    -0.308 N 
HETATM   19  C11 UNL     1      21.874   4.704  52.551  1.00  0.00     0.201 C 
HETATM   20  C12 UNL     1      24.787   3.463  50.558  1.00  0.00     0.062 C 
HETATM   21  O1  UNL     1      24.633   4.156  51.757  1.00  0.00     0.000 OA
HETATM   22  N7  UNL     1      25.015   3.412  52.824  1.00  0.00     0.187 N 
HETATM   23  H6  UNL     1      20.069  -0.370  52.012  1.00  0.00     0.178 HD
HETATM   24  H12 UNL     1      22.810   6.229  51.276  1.00  0.00     0.182 HD
HETATM   25  H17 UNL     1      25.497   4.273  52.520  1.00  0.00     0.341 HD
ENDROOT
TORSDOF 0
ENDMDL
MODEL 3
REMARK VINA RESULT:      -6.4      2.222      4.676
REMARK  0 active torsions:
REMARK  status: ('A' for Active; 'I' for Inactive)
ROOT
HETATM    1  C1  UNL     1      35.045   3.637  45.197  1.00  0.00     0.119 C 
HETATM    2  S1  UNL     1      34.807   3.627  46.997  1.00  0.00     0.071 SA
HETATM    3  C2  UNL     1      33.495   4.790  47.348  1.00  0.00     0.251 A 
HETATM    4  C3  UNL     1      32.760   5.537  46.593  1.00  0.00     0.164 C 
HETATM    5  N1  UNL     1      31.725   6.492  46.477  1.00  0.00    -0.154 N 
HETATM    6  C4  UNL     1      30.772   6.828  47.362  1.00  0.00     0.071 A 
HETATM    7  C5  UNL     1      29.887   7.744  46.889  1.00  0.00     0.164 A 
HETATM    8  N2  UNL     1      30.379   7.943  45.657  1.00  0.00    -0.075 NA
HETATM    9  C6  UNL     1      31.461   7.223  45.384  1.00  0.00     0.707 A 
HETATM   10  N3  UNL     1      32.178   7.312  44.137  1.00  0.00    -0.213 N 
HETATM   11  C7  UNL     1      33.276   8.079  44.749  1.00  0.00     0.238 C 
HETATM   12  S2  UNL     1      32.520   9.445  45.668  1.00  0.00    -0.010 SA
HETATM   13  N4  UNL     1      33.621  10.341  46.624  1.00  0.00    -0.231 NA
HETATM   14  C8  UNL     1      34.495   9.825  47.387  1.00  0.00     0.104 C 
HETATM   15  C9  UNL     1      35.018   8.535  47.844  1.00  0.00     0.103 C 
HETATM   16  C10 UNL     1      34.043   7.642  48.503  1.00  0.00     0.037 C 
HETATM   17  N5  UNL     1      32.840   7.776  48.855  1.00  0.00    -0.188 NA
HETATM   18  N6  UNL     1      31.923   6.968  49.462  1.00  0.00    -0.308 N 
HETATM   19  C11 UNL     1      31.061   6.119  48.641  1.00  0.00     0.201 C 
HETATM   20  C12 UNL     1      34.793   6.365  48.743  1.00  0.00     0.062 C 
HETATM   21  O1  UNL     1      33.847   5.464  49.231  1.00  0.00     0.000 OA
HETATM   22  N7  UNL     1      33.919   4.266  48.602  1.00  0.00     0.187 N 
HETATM   23  H6  UNL     1      31.724   6.854  43.320  1.00  0.00     0.178 HD
HETATM   24  H12 UNL     1      31.858   6.974  50.501  1.00  0.00     0.182 HD
HETATM   25  H17 UNL     1      34.135   4.406  49.603  1.00  0.00     0.341 HD
ENDROOT
TORSDOF 0
ENDMDL
MODEL 4
REMARK VINA RESULT:      -6.4      2.527      5.335
REMARK  0 active torsions:
REMARK  status: ('A' for Active; 'I' for Inactive)
ROOT
HETATM    1  C1  UNL     1      32.490   5.425  46.152  1.00  0.00     0.119 C 
HETATM    2  S1  UNL     1      32.132   5.661  47.917  1.00  0.00     0.071 SA
HETATM    3  C2  UNL     1      30.640   6.643  48.012  1.00  0.00     0.251 A 
HETATM    4  C3  UNL     1      29.857   7.137  47.112  1.00  0.00     0.164 C 
HETATM    5  N1  UNL     1      28.702   7.887  46.794  1.00  0.00    -0.154 N 
HETATM    6  C4  UNL     1      27.651   8.202  47.568  1.00  0.00     0.071 A 
HETATM    7  C5  UNL     1      26.674   8.882  46.912  1.00  0.00     0.164 A 
HETATM    8  N2  UNL     1      27.215   8.959  45.686  1.00  0.00    -0.075 NA
HETATM    9  C6  UNL     1      28.408   8.385  45.584  1.00  0.00     0.707 A 
HETATM   10  N3  UNL     1      29.188   8.389  44.372  1.00  0.00    -0.213 N 
HETATM   11  C7  UNL     1      30.115   9.405  44.895  1.00  0.00     0.238 C 
HETATM   12  S2  UNL     1      29.103  10.763  45.541  1.00  0.00    -0.010 SA
HETATM   13  N4  UNL     1      29.991  11.961  46.382  1.00  0.00    -0.231 NA
HETATM   14  C8  UNL     1      30.877  11.716  47.257  1.00  0.00     0.104 C 
HETATM   15  C9  UNL     1      31.553  10.613  47.945  1.00  0.00     0.103 C 
HETATM   16  C10 UNL     1      30.678   9.692  48.699  1.00  0.00     0.037 C 
HETATM   17  N5  UNL     1      29.447   9.688  48.971  1.00  0.00    -0.188 NA
HETATM   18  N6  UNL     1      28.622   8.852  49.664  1.00  0.00    -0.308 N 
HETATM   19  C11 UNL     1      27.953   7.759  48.959  1.00  0.00     0.201 C 
HETATM   20  C12 UNL     1      31.591   8.603  49.181  1.00  0.00     0.062 C 
HETATM   21  O1  UNL     1      30.759   7.653  49.771  1.00  0.00     0.000 OA
HETATM   22  N7  UNL     1      31.051   6.397  49.353  1.00  0.00     0.187 N 
HETATM   23  H6  UNL     1      28.864   7.742  43.623  1.00  0.00     0.178 HD
HETATM   24  H12 UNL     1      28.484   9.011  50.684  1.00  0.00     0.182 HD
HETATM   25  H17 UNL     1      31.174   6.725  50.325  1.00  0.00     0.341 HD
ENDROOT
TORSDOF 0
ENDMDL
MODEL 5
REMARK VINA RESULT:      -6.3     22.745     24.632
REMARK  0 active torsions:
REMARK  status: ('A' for Active; 'I' for Inactive)
ROOT
HETATM    1  C1  UNL     1      38.526  -2.775  72.943  1.00  0.00     0.119 C 
HETATM    2  S1  UNL     1      37.130  -1.878  72.206  1.00  0.00     0.071 SA
HETATM    3  C2  UNL     1      37.661  -1.346  70.583  1.00  0.00     0.251 A 
HETATM    4  C3  UNL     1      38.760  -1.504  69.924  1.00  0.00     0.164 C 
HETATM    5  N1  UNL     1      39.508  -1.274  68.748  1.00  0.00    -0.154 N 
HETATM    6  C4  UNL     1      39.085  -0.912  67.526  1.00  0.00     0.071 A 
HETATM    7  C5  UNL     1      40.078  -0.849  66.601  1.00  0.00     0.164 A 
HETATM    8  N2  UNL     1      41.134  -1.193  67.355  1.00  0.00    -0.075 NA
HETATM    9  C6  UNL     1      40.832  -1.448  68.623  1.00  0.00     0.707 A 
HETATM   10  N3  UNL     1      41.816  -1.791  69.618  1.00  0.00    -0.213 N 
HETATM   11  C7  UNL     1      41.749  -0.459  70.239  1.00  0.00     0.238 C 
HETATM   12  S2  UNL     1      41.928   0.757  68.906  1.00  0.00    -0.010 SA
HETATM   13  N4  UNL     1      41.672   2.377  69.396  1.00  0.00    -0.231 NA
HETATM   14  C8  UNL     1      40.702   2.764  70.118  1.00  0.00     0.104 C 
HETATM   15  C9  UNL     1      39.510   2.277  70.816  1.00  0.00     0.103 C 
HETATM   16  C10 UNL     1      38.500   1.603  69.975  1.00  0.00     0.037 C 
HETATM   17  N5  UNL     1      38.383   1.424  68.732  1.00  0.00    -0.188 NA
HETATM   18  N6  UNL     1      37.463   0.807  67.936  1.00  0.00    -0.308 N 
HETATM   19  C11 UNL     1      37.628  -0.609  67.613  1.00  0.00     0.201 C 
HETATM   20  C12 UNL     1      37.472   1.094  70.941  1.00  0.00     0.062 C 
HETATM   21  O1  UNL     1      36.589   0.332  70.178  1.00  0.00     0.000 OA
HETATM   22  N7  UNL     1      36.329  -0.868  70.752  1.00  0.00     0.187 N 
HETATM   23  H6  UNL     1      42.198  -2.759  69.562  1.00  0.00     0.178 HD
HETATM   24  H12 UNL     1      36.660   1.362  67.573  1.00  0.00     0.182 HD
HETATM   25  H17 UNL     1      35.623  -0.126  70.622  1.00  0.00     0.341 HD
ENDROOT
TORSDOF 0
ENDMDL
MODEL 6
REMARK VINA RESULT:      -6.3     22.634     24.442
REMARK  0 active torsions:
REMARK  status: ('A' for Active; 'I' for Inactive)
ROOT
HETATM    1  C1  UNL     1      37.756  -0.405  72.618  1.00  0.00     0.119 C 
HETATM    2  S1  UNL     1      37.050   0.285  71.093  1.00  0.00     0.071 SA
HETATM    3  C2  UNL     1      37.578  -0.778  69.756  1.00  0.00     0.251 A 
HETATM    4  C3  UNL     1      38.291  -1.854  69.720  1.00  0.00     0.164 C 
HETATM    5  N1  UNL     1      38.878  -2.890  68.960  1.00  0.00    -0.154 N 
HETATM    6  C4  UNL     1      38.589  -3.303  67.715  1.00  0.00     0.071 A 
HETATM    7  C5  UNL     1      39.310  -4.384  67.317  1.00  0.00     0.164 A 
HETATM    8  N2  UNL     1      40.060  -4.590  68.410  1.00  0.00    -0.075 NA
HETATM    9  C6  UNL     1      39.832  -3.727  69.394  1.00  0.00     0.707 A 
HETATM   10  N3  UNL     1      40.556  -3.736  70.639  1.00  0.00    -0.213 N 
HETATM   11  C7  UNL     1      41.347  -2.554  70.263  1.00  0.00     0.238 C 
HETATM   12  S2  UNL     1      42.021  -2.872  68.611  1.00  0.00    -0.010 SA
HETATM   13  N4  UNL     1      42.809  -1.526  67.904  1.00  0.00    -0.231 NA
HETATM   14  C8  UNL     1      42.341  -0.347  67.888  1.00  0.00     0.104 C 
HETATM   15  C9  UNL     1      41.186   0.448  68.315  1.00  0.00     0.103 C 
HETATM   16  C10 UNL     1      39.876   0.014  67.790  1.00  0.00     0.037 C 
HETATM   17  N5  UNL     1      39.520  -0.862  66.956  1.00  0.00    -0.188 NA
HETATM   18  N6  UNL     1      38.320  -1.278  66.457  1.00  0.00    -0.308 N 
HETATM   19  C11 UNL     1      37.597  -2.354  67.134  1.00  0.00     0.201 C 
HETATM   20  C12 UNL     1      38.875   0.895  68.477  1.00  0.00     0.062 C 
HETATM   21  O1  UNL     1      37.626   0.403  68.103  1.00  0.00     0.000 OA
HETATM   22  N7  UNL     1      36.799   0.259  69.167  1.00  0.00     0.187 N 
HETATM   23  H6  UNL     1      40.300  -4.494  71.307  1.00  0.00     0.178 HD
HETATM   24  H12 UNL     1      37.944  -0.819  65.601  1.00  0.00     0.182 HD
HETATM   25  H17 UNL     1      36.638   0.930  68.399  1.00  0.00     0.341 HD
ENDROOT
TORSDOF 0
ENDMDL
MODEL 7
REMARK VINA RESULT:      -6.2      7.212     10.214
REMARK  0 active torsions:
REMARK  status: ('A' for Active; 'I' for Inactive)
ROOT
HETATM    1  C1  UNL     1      26.228   7.409  47.522  1.00  0.00     0.119 C 
HETATM    2  S1  UNL     1      26.172   7.540  49.332  1.00  0.00     0.071 SA
HETATM    3  C2  UNL     1      24.939   6.373  49.894  1.00  0.00     0.251 A 
HETATM    4  C3  UNL     1      24.182   5.530  49.273  1.00  0.00     0.164 C 
HETATM    5  N1  UNL     1      23.184   4.532  49.330  1.00  0.00    -0.154 N 
HETATM    6  C4  UNL     1      22.778   3.792  50.374  1.00  0.00     0.071 A 
HETATM    7  C5  UNL     1      21.836   2.866  50.053  1.00  0.00     0.164 A 
HETATM    8  N2  UNL     1      21.698   3.106  48.740  1.00  0.00    -0.075 NA
HETATM    9  C6  UNL     1      22.476   4.081  48.284  1.00  0.00     0.707 A 
HETATM   10  N3  UNL     1      22.458   4.534  46.916  1.00  0.00    -0.213 N 
HETATM   11  C7  UNL     1      21.725   5.762  47.264  1.00  0.00     0.238 C 
HETATM   12  S2  UNL     1      20.297   5.262  48.262  1.00  0.00    -0.010 SA
HETATM   13  N4  UNL     1      19.424   6.569  48.942  1.00  0.00    -0.231 NA
HETATM   14  C8  UNL     1      19.957   7.558  49.533  1.00  0.00     0.104 C 
HETATM   15  C9  UNL     1      21.255   8.111  49.926  1.00  0.00     0.103 C 
HETATM   16  C10 UNL     1      22.082   7.255  50.802  1.00  0.00     0.037 C 
HETATM   17  N5  UNL     1      21.881   6.154  51.382  1.00  0.00    -0.188 NA
HETATM   18  N6  UNL     1      22.626   5.349  52.193  1.00  0.00    -0.308 N 
HETATM   19  C11 UNL     1      23.459   4.305  51.596  1.00  0.00     0.201 C 
HETATM   20  C12 UNL     1      23.384   7.987  50.937  1.00  0.00     0.062 C 
HETATM   21  O1  UNL     1      24.225   7.125  51.640  1.00  0.00     0.000 OA
HETATM   22  N7  UNL     1      25.444   7.021  51.057  1.00  0.00     0.187 N 
HETATM   23  H6  UNL     1      22.919   3.906  46.225  1.00  0.00     0.178 HD
HETATM   24  H12 UNL     1      22.586   5.495  53.223  1.00  0.00     0.182 HD
HETATM   25  H17 UNL     1      25.284   7.440  51.987  1.00  0.00     0.341 HD
ENDROOT
TORSDOF 0
ENDMDL
MODEL 8
REMARK VINA RESULT:      -6.2      4.042      5.551
REMARK  0 active torsions:
REMARK  status: ('A' for Active; 'I' for Inactive)
ROOT
HETATM    1  C1  UNL     1      26.406   7.724  47.615  1.00  0.00     0.119 C 
HETATM    2  S1  UNL     1      27.222   8.219  49.159  1.00  0.00     0.071 SA
HETATM    3  C2  UNL     1      28.006   9.795  48.844  1.00  0.00     0.251 A 
HETATM    4  C3  UNL     1      28.054  10.558  47.803  1.00  0.00     0.164 C 
HETATM    5  N1  UNL     1      28.511  11.750  47.198  1.00  0.00    -0.154 N 
HETATM    6  C4  UNL     1      28.969  12.875  47.771  1.00  0.00     0.071 A 
HETATM    7  C5  UNL     1      29.257  13.862  46.882  1.00  0.00     0.164 A 
HETATM    8  N2  UNL     1      28.945  13.248  45.730  1.00  0.00    -0.075 NA
HETATM    9  C6  UNL     1      28.505  12.005  45.881  1.00  0.00     0.707 A 
HETATM   10  N3  UNL     1      28.156  11.148  44.776  1.00  0.00    -0.213 N 
HETATM   11  C7  UNL     1      29.387  10.353  44.920  1.00  0.00     0.238 C 
HETATM   12  S2  UNL     1      30.768  11.524  44.994  1.00  0.00    -0.010 SA
HETATM   13  N4  UNL     1      32.277  10.805  45.367  1.00  0.00    -0.231 NA
HETATM   14  C8  UNL     1      32.460   9.962  46.297  1.00  0.00     0.104 C 
HETATM   15  C9  UNL     1      31.759   9.238  47.361  1.00  0.00     0.103 C 
HETATM   16  C10 UNL     1      31.082  10.076  48.372  1.00  0.00     0.037 C 
HETATM   17  N5  UNL     1      31.045  11.318  48.589  1.00  0.00    -0.188 NA
HETATM   18  N6  UNL     1      30.430  12.110  49.513  1.00  0.00    -0.308 N 
HETATM   19  C11 UNL     1      29.091  12.629  49.236  1.00  0.00     0.201 C 
HETATM   20  C12 UNL     1      30.345   9.105  49.246  1.00  0.00     0.062 C 
HETATM   21  O1  UNL     1      29.587   9.887  50.116  1.00  0.00     0.000 OA
HETATM   22  N7  UNL     1      28.304   9.457  50.195  1.00  0.00     0.187 N 
HETATM   23  H6  UNL     1      27.253  11.362  44.305  1.00  0.00     0.178 HD
HETATM   24  H12 UNL     1      30.930  12.330  50.400  1.00  0.00     0.182 HD
HETATM   25  H17 UNL     1      28.971   9.429  50.983  1.00  0.00     0.341 HD
ENDROOT
TORSDOF 0
ENDMDL
MODEL 9
REMARK VINA RESULT:      -6.0     23.079     24.856
REMARK  0 active torsions:
REMARK  status: ('A' for Active; 'I' for Inactive)
ROOT
HETATM    1  C1  UNL     1      38.910  -0.528  72.713  1.00  0.00     0.119 C 
HETATM    2  S1  UNL     1      40.281   0.175  71.752  1.00  0.00     0.071 SA
HETATM    3  C2  UNL     1      40.054  -0.364  70.063  1.00  0.00     0.251 A 
HETATM    4  C3  UNL     1      39.150  -1.082  69.486  1.00  0.00     0.164 C 
HETATM    5  N1  UNL     1      38.650  -1.679  68.306  1.00  0.00    -0.154 N 
HETATM    6  C4  UNL     1      38.932  -1.397  67.024  1.00  0.00     0.071 A 
HETATM    7  C5  UNL     1      38.208  -2.125  66.133  1.00  0.00     0.164 A 
HETATM    8  N2  UNL     1      37.473  -2.872  66.972  1.00  0.00    -0.075 NA
HETATM    9  C6  UNL     1      37.711  -2.635  68.257  1.00  0.00     0.707 A 
HETATM   10  N3  UNL     1      37.067  -3.354  69.327  1.00  0.00    -0.213 N 
HETATM   11  C7  UNL     1      38.278  -4.140  69.614  1.00  0.00     0.238 C 
HETATM   12  S2  UNL     1      38.852  -4.823  68.036  1.00  0.00    -0.010 SA
HETATM   13  N4  UNL     1      40.371  -5.607  68.122  1.00  0.00    -0.231 NA
HETATM   14  C8  UNL     1      41.391  -5.132  68.709  1.00  0.00     0.104 C 
HETATM   15  C9  UNL     1      41.853  -3.972  69.476  1.00  0.00     0.103 C 
HETATM   16  C10 UNL     1      41.746  -2.666  68.794  1.00  0.00     0.037 C 
HETATM   17  N5  UNL     1      41.420  -2.318  67.627  1.00  0.00    -0.188 NA
HETATM   18  N6  UNL     1      41.314  -1.123  66.977  1.00  0.00    -0.308 N 
HETATM   19  C11 UNL     1      40.042  -0.403  67.003  1.00  0.00     0.201 C 
HETATM   20  C12 UNL     1      42.148  -1.657  69.829  1.00  0.00     0.062 C 
HETATM   21  O1  UNL     1      41.914  -0.412  69.247  1.00  0.00     0.000 OA
HETATM   22  N7  UNL     1      41.245   0.418  70.083  1.00  0.00     0.187 N 
HETATM   23  H6  UNL     1      36.074  -3.099  69.511  1.00  0.00     0.178 HD
HETATM   24  H12 UNL     1      42.146  -0.748  66.475  1.00  0.00     0.182 HD
HETATM   25  H17 UNL     1      42.214   0.579  69.765  1.00  0.00     0.341 HD
ENDROOT
TORSDOF 0
ENDMDL
