MODEL 1
REMARK VINA RESULT:      -8.5      0.000      0.000
REMARK  2 active torsions:
REMARK  status: ('A' for Active; 'I' for Inactive)
REMARK    1  A    between atoms: C5_7  and  S1_8 
REMARK    2  A    between atoms: S1_8  and  C6_9 
ROOT
HETATM    1  C1  UNL     1      21.994  -1.041  55.135  1.00  0.00     0.179 C 
HETATM    2  N1  UNL     1      21.458  -0.350  53.948  1.00  0.00    -0.284 N 
HETATM    3  C2  UNL     1      20.353  -0.557  53.224  1.00  0.00     0.121 A 
HETATM    4  C3  UNL     1      20.204   0.342  52.147  1.00  0.00    -0.007 A 
HETATM    5  C4  UNL     1      21.328   1.104  52.301  1.00  0.00     0.122 A 
HETATM    6  N2  UNL     1      22.034   0.674  53.356  1.00  0.00    -0.170 NA
HETATM    7  C5  UNL     1      21.996   2.261  51.656  1.00  0.00     0.151 C 
HETATM    8  N4  UNL     1      21.845   3.461  51.402  1.00  0.00    -0.141 NA
HETATM    9  N5  UNL     1      20.906   4.415  51.598  1.00  0.00    -0.165 NA
HETATM   10  C15 UNL     1      19.660   3.933  51.591  1.00  0.00     0.119 C 
HETATM   11  C16 UNL     1      18.516   2.958  51.510  1.00  0.00     0.042 C 
HETATM   12  C17 UNL     1      18.378   1.613  51.409  1.00  0.00     0.005 C 
HETATM   13  C18 UNL     1      18.968   0.190  51.317  1.00  0.00     0.048 C 
ENDROOT
BRANCH   7  14
HETATM   14  S1  UNL     1      23.564   1.886  50.902  1.00  0.00    -0.067 SA
BRANCH  14  15
HETATM   15  C6  UNL     1      24.898   1.475  51.924  1.00  0.00     0.008 A 
HETATM   16  C7  UNL     1      25.006   2.445  52.935  1.00  0.00     0.021 A 
HETATM   17  C8  UNL     1      26.011   2.352  53.904  1.00  0.00     0.034 A 
HETATM   18  C9  UNL     1      26.912   1.309  53.885  1.00  0.00     0.066 A 
HETATM   19  N3  UNL     1      27.909   1.153  54.787  1.00  0.00    -0.260 NA
HETATM   20  C13 UNL     1      26.835   0.342  52.908  1.00  0.00    -0.006 A 
HETATM   21  C10 UNL     1      28.748   0.111  54.703  1.00  0.00     0.117 A 
HETATM   22  C11 UNL     1      28.677  -0.863  53.726  1.00  0.00     0.020 A 
HETATM   23  C12 UNL     1      27.664  -0.752  52.767  1.00  0.00     0.015 A 
HETATM   24  C14 UNL     1      25.835   0.471  51.979  1.00  0.00     0.032 A 
ENDBRANCH  14  15
ENDBRANCH   7  14
TORSDOF 2
ENDMDL
MODEL 2
REMARK VINA RESULT:      -8.5      2.720      4.586
REMARK  2 active torsions:
REMARK  status: ('A' for Active; 'I' for Inactive)
REMARK    1  A    between atoms: C5_7  and  S1_8 
REMARK    2  A    between atoms: S1_8  and  C6_9 
ROOT
HETATM    1  C1  UNL     1      27.218   4.433  48.993  1.00  0.00     0.179 C 
HETATM    2  N1  UNL     1      25.976   4.668  49.752  1.00  0.00    -0.284 N 
HETATM    3  C2  UNL     1      25.155   5.722  49.806  1.00  0.00     0.121 A 
HETATM    4  C3  UNL     1      24.055   5.541  50.671  1.00  0.00    -0.007 A 
HETATM    5  C4  UNL     1      24.302   4.276  51.126  1.00  0.00     0.122 A 
HETATM    6  N2  UNL     1      25.426   3.799  50.572  1.00  0.00    -0.170 NA
HETATM    7  C5  UNL     1      23.700   3.276  52.042  1.00  0.00     0.151 C 
HETATM    8  N4  UNL     1      22.692   2.580  52.204  1.00  0.00    -0.141 NA
HETATM    9  N5  UNL     1      21.516   2.360  51.573  1.00  0.00    -0.165 NA
HETATM   10  C15 UNL     1      21.054   3.438  50.934  1.00  0.00     0.119 C 
HETATM   11  C16 UNL     1      20.967   4.844  50.402  1.00  0.00     0.042 C 
HETATM   12  C17 UNL     1      21.763   5.942  50.395  1.00  0.00     0.005 C 
HETATM   13  C18 UNL     1      23.076   6.670  50.750  1.00  0.00     0.048 C 
ENDROOT
BRANCH   7  14
HETATM   14  S1  UNL     1      24.676   2.910  53.484  1.00  0.00    -0.067 SA
BRANCH  14  15
HETATM   15  C6  UNL     1      25.805   1.601  53.411  1.00  0.00     0.008 A 
HETATM   16  C7  UNL     1      25.104   0.418  53.117  1.00  0.00     0.021 A 
HETATM   17  C8  UNL     1      25.784  -0.799  53.000  1.00  0.00     0.034 A 
HETATM   18  C9  UNL     1      27.150  -0.861  53.171  1.00  0.00     0.066 A 
HETATM   19  N3  UNL     1      27.875  -2.001  53.074  1.00  0.00    -0.260 NA
HETATM   20  C13 UNL     1      27.867   0.278  53.461  1.00  0.00    -0.006 A 
HETATM   21  C10 UNL     1      29.203  -1.982  53.255  1.00  0.00     0.117 A 
HETATM   22  C11 UNL     1      29.928  -0.844  53.545  1.00  0.00     0.020 A 
HETATM   23  C12 UNL     1      29.230   0.364  53.657  1.00  0.00     0.015 A 
HETATM   24  C14 UNL     1      27.162   1.449  53.566  1.00  0.00     0.032 A 
ENDBRANCH  14  15
ENDBRANCH   7  14
TORSDOF 2
ENDMDL
MODEL 3
REMARK VINA RESULT:      -8.4      2.837      4.435
REMARK  2 active torsions:
REMARK  status: ('A' for Active; 'I' for Inactive)
REMARK    1  A    between atoms: C5_7  and  S1_8 
REMARK    2  A    between atoms: S1_8  and  C6_9 
ROOT
HETATM    1  C1  UNL     1      26.954   4.395  49.199  1.00  0.00     0.179 C 
HETATM    2  N1  UNL     1      25.487   4.281  49.298  1.00  0.00    -0.284 N 
HETATM    3  C2  UNL     1      24.503   5.054  48.828  1.00  0.00     0.121 A 
HETATM    4  C3  UNL     1      23.211   4.584  49.147  1.00  0.00    -0.007 A 
HETATM    5  C4  UNL     1      23.523   3.456  49.853  1.00  0.00     0.122 A 
HETATM    6  N2  UNL     1      24.854   3.310  49.921  1.00  0.00    -0.170 NA
HETATM    7  C5  UNL     1      22.834   2.348  50.558  1.00  0.00     0.151 C 
HETATM    8  N4  UNL     1      22.071   1.394  50.372  1.00  0.00    -0.141 NA
HETATM    9  N5  UNL     1      21.412   0.828  49.336  1.00  0.00    -0.165 NA
HETATM   10  C15 UNL     1      21.046   1.711  48.402  1.00  0.00     0.119 C 
HETATM   11  C16 UNL     1      20.870   3.018  47.676  1.00  0.00     0.042 C 
HETATM   12  C17 UNL     1      21.283   4.298  47.846  1.00  0.00     0.005 C 
HETATM   13  C18 UNL     1      22.062   5.383  48.619  1.00  0.00     0.048 C 
ENDROOT
BRANCH   7  14
HETATM   14  S1  UNL     1      23.095   2.315  52.319  1.00  0.00    -0.067 SA
BRANCH  14  15
HETATM   15  C6  UNL     1      24.585   1.677  52.924  1.00  0.00     0.008 A 
HETATM   16  C7  UNL     1      24.371   0.351  53.340  1.00  0.00     0.021 A 
HETATM   17  C8  UNL     1      25.422  -0.403  53.875  1.00  0.00     0.034 A 
HETATM   18  C9  UNL     1      26.682   0.140  54.005  1.00  0.00     0.066 A 
HETATM   19  N3  UNL     1      27.745  -0.528  54.513  1.00  0.00    -0.260 NA
HETATM   20  C13 UNL     1      26.926   1.435  53.609  1.00  0.00    -0.006 A 
HETATM   21  C10 UNL     1      28.942   0.068  54.608  1.00  0.00     0.117 A 
HETATM   22  C11 UNL     1      29.194   1.367  54.212  1.00  0.00     0.020 A 
HETATM   23  C12 UNL     1      28.130   2.103  53.679  1.00  0.00     0.015 A 
HETATM   24  C14 UNL     1      25.869   2.138  53.089  1.00  0.00     0.032 A 
ENDBRANCH  14  15
ENDBRANCH   7  14
TORSDOF 2
ENDMDL
MODEL 4
REMARK VINA RESULT:      -8.3      4.475      6.903
REMARK  2 active torsions:
REMARK  status: ('A' for Active; 'I' for Inactive)
REMARK    1  A    between atoms: C5_7  and  S1_8 
REMARK    2  A    between atoms: S1_8  and  C6_9 
ROOT
HETATM    1  C1  UNL     1      29.437   2.241  54.122  1.00  0.00     0.179 C 
HETATM    2  N1  UNL     1      28.225   1.688  53.489  1.00  0.00    -0.284 N 
HETATM    3  C2  UNL     1      27.665   0.476  53.552  1.00  0.00     0.121 A 
HETATM    4  C3  UNL     1      26.487   0.355  52.784  1.00  0.00    -0.007 A 
HETATM    5  C4  UNL     1      26.402   1.614  52.258  1.00  0.00     0.122 A 
HETATM    6  N2  UNL     1      27.428   2.362  52.688  1.00  0.00    -0.170 NA
HETATM    7  C5  UNL     1      25.517   2.397  51.362  1.00  0.00     0.151 C 
HETATM    8  N4  UNL     1      24.368   2.840  51.264  1.00  0.00    -0.141 NA
HETATM    9  N5  UNL     1      23.226   2.829  51.991  1.00  0.00    -0.165 NA
HETATM   10  C15 UNL     1      23.075   1.715  52.712  1.00  0.00     0.119 C 
HETATM   11  C16 UNL     1      23.352   0.359  53.305  1.00  0.00     0.042 C 
HETATM   12  C17 UNL     1      24.375  -0.530  53.284  1.00  0.00     0.005 C 
HETATM   13  C18 UNL     1      25.788  -0.966  52.840  1.00  0.00     0.048 C 
ENDROOT
BRANCH   7  14
HETATM   14  S1  UNL     1      26.266   2.885  49.823  1.00  0.00    -0.067 SA
BRANCH  14  15
HETATM   15  C6  UNL     1      26.457   4.573  49.492  1.00  0.00     0.008 A 
HETATM   16  C7  UNL     1      27.604   4.750  48.699  1.00  0.00     0.021 A 
HETATM   17  C8  UNL     1      27.991   6.029  48.286  1.00  0.00     0.034 A 
HETATM   18  C9  UNL     1      27.257   7.138  48.650  1.00  0.00     0.066 A 
HETATM   19  N3  UNL     1      27.570   8.405  48.289  1.00  0.00    -0.260 NA
HETATM   20  C13 UNL     1      26.129   7.001  49.427  1.00  0.00    -0.006 A 
HETATM   21  C10 UNL     1      26.806   9.434  48.682  1.00  0.00     0.117 A 
HETATM   22  C11 UNL     1      25.674   9.304  49.461  1.00  0.00     0.020 A 
HETATM   23  C12 UNL     1      25.303   8.015  49.863  1.00  0.00     0.015 A 
HETATM   24  C14 UNL     1      25.785   5.729  49.809  1.00  0.00     0.032 A 
ENDBRANCH  14  15
ENDBRANCH   7  14
TORSDOF 2
ENDMDL
MODEL 5
REMARK VINA RESULT:      -8.2      3.576      5.151
REMARK  2 active torsions:
REMARK  status: ('A' for Active; 'I' for Inactive)
REMARK    1  A    between atoms: C5_7  and  S1_8 
REMARK    2  A    between atoms: S1_8  and  C6_9 
ROOT
HETATM    1  C1  UNL     1      26.847   2.060  53.587  1.00  0.00     0.179 C 
HETATM    2  N1  UNL     1      25.523   1.491  53.276  1.00  0.00    -0.284 N 
HETATM    3  C2  UNL     1      24.957   0.325  53.606  1.00  0.00     0.121 A 
HETATM    4  C3  UNL     1      23.650   0.165  53.099  1.00  0.00    -0.007 A 
HETATM    5  C4  UNL     1      23.494   1.349  52.434  1.00  0.00     0.122 A 
HETATM    6  N2  UNL     1      24.601   2.095  52.558  1.00  0.00    -0.170 NA
HETATM    7  C5  UNL     1      22.470   2.054  51.625  1.00  0.00     0.151 C 
HETATM    8  N4  UNL     1      21.334   2.536  51.689  1.00  0.00    -0.141 NA
HETATM    9  N5  UNL     1      20.356   2.673  52.613  1.00  0.00    -0.165 NA
HETATM   10  C15 UNL     1      20.321   1.668  53.493  1.00  0.00     0.119 C 
HETATM   11  C16 UNL     1      20.678   0.387  54.200  1.00  0.00     0.042 C 
HETATM   12  C17 UNL     1      21.656  -0.546  54.104  1.00  0.00     0.005 C 
HETATM   13  C18 UNL     1      22.945  -1.103  53.463  1.00  0.00     0.048 C 
ENDROOT
BRANCH   7  14
HETATM   14  S1  UNL     1      22.917   2.306  49.921  1.00  0.00    -0.067 SA
BRANCH  14  15
HETATM   15  C6  UNL     1      24.047   3.558  49.537  1.00  0.00     0.008 A 
HETATM   16  C7  UNL     1      23.357   4.781  49.470  1.00  0.00     0.021 A 
HETATM   17  C8  UNL     1      24.040   5.966  49.173  1.00  0.00     0.034 A 
HETATM   18  C9  UNL     1      25.399   5.955  48.939  1.00  0.00     0.066 A 
HETATM   19  N3  UNL     1      26.126   7.059  48.645  1.00  0.00    -0.260 NA
HETATM   20  C13 UNL     1      26.104   4.774  48.995  1.00  0.00    -0.006 A 
HETATM   21  C10 UNL     1      27.446   6.968  48.430  1.00  0.00     0.117 A 
HETATM   22  C11 UNL     1      28.160   5.788  48.485  1.00  0.00     0.020 A 
HETATM   23  C12 UNL     1      27.458   4.615  48.785  1.00  0.00     0.015 A 
HETATM   24  C14 UNL     1      25.396   3.638  49.290  1.00  0.00     0.032 A 
ENDBRANCH  14  15
ENDBRANCH   7  14
TORSDOF 2
ENDMDL
MODEL 6
REMARK VINA RESULT:      -8.0      3.375      5.105
REMARK  2 active torsions:
REMARK  status: ('A' for Active; 'I' for Inactive)
REMARK    1  A    between atoms: C5_7  and  S1_8 
REMARK    2  A    between atoms: S1_8  and  C6_9 
ROOT
HETATM    1  C1  UNL     1      18.337   0.258  50.490  1.00  0.00     0.179 C 
HETATM    2  N1  UNL     1      19.384   0.446  51.512  1.00  0.00    -0.284 N 
HETATM    3  C2  UNL     1      19.445   0.084  52.797  1.00  0.00     0.121 A 
HETATM    4  C3  UNL     1      20.645   0.460  53.436  1.00  0.00    -0.007 A 
HETATM    5  C4  UNL     1      21.293   1.081  52.406  1.00  0.00     0.122 A 
HETATM    6  N2  UNL     1      20.531   1.054  51.302  1.00  0.00    -0.170 NA
HETATM    7  C5  UNL     1      22.581   1.768  52.141  1.00  0.00     0.151 C 
HETATM    8  N4  UNL     1      23.801   1.579  52.110  1.00  0.00    -0.141 NA
HETATM    9  N5  UNL     1      24.662   0.559  52.326  1.00  0.00    -0.165 NA
HETATM   10  C15 UNL     1      24.235  -0.299  53.257  1.00  0.00     0.119 C 
HETATM   11  C16 UNL     1      23.363  -0.939  54.304  1.00  0.00     0.042 C 
HETATM   12  C17 UNL     1      22.125  -0.726  54.813  1.00  0.00     0.005 C 
HETATM   13  C18 UNL     1      20.794   0.053  54.868  1.00  0.00     0.048 C 
ENDROOT
BRANCH   7  14
HETATM   14  S1  UNL     1      22.433   3.503  51.774  1.00  0.00    -0.067 SA
BRANCH  14  15
HETATM   15  C6  UNL     1      23.737   4.291  50.954  1.00  0.00     0.008 A 
HETATM   16  C7  UNL     1      23.501   5.676  50.960  1.00  0.00     0.021 A 
HETATM   17  C8  UNL     1      24.411   6.553  50.358  1.00  0.00     0.034 A 
HETATM   18  C9  UNL     1      25.551   6.076  49.749  1.00  0.00     0.066 A 
HETATM   19  N3  UNL     1      26.474   6.862  49.147  1.00  0.00    -0.260 NA
HETATM   20  C13 UNL     1      25.812   4.724  49.724  1.00  0.00    -0.006 A 
HETATM   21  C10 UNL     1      27.560   6.323  48.574  1.00  0.00     0.117 A 
HETATM   22  C11 UNL     1      27.828   4.969  48.546  1.00  0.00     0.020 A 
HETATM   23  C12 UNL     1      26.907   4.109  49.154  1.00  0.00     0.015 A 
HETATM   24  C14 UNL     1      24.896   3.901  50.326  1.00  0.00     0.032 A 
ENDBRANCH  14  15
ENDBRANCH   7  14
TORSDOF 2
ENDMDL
MODEL 7
REMARK VINA RESULT:      -7.8      4.915      6.596
REMARK  2 active torsions:
REMARK  status: ('A' for Active; 'I' for Inactive)
REMARK    1  A    between atoms: C5_7  and  S1_8 
REMARK    2  A    between atoms: S1_8  and  C6_9 
ROOT
HETATM    1  C1  UNL     1      20.830   1.361  48.804  1.00  0.00     0.179 C 
HETATM    2  N1  UNL     1      21.794   1.521  49.909  1.00  0.00    -0.284 N 
HETATM    3  C2  UNL     1      21.848   0.973  51.127  1.00  0.00     0.121 A 
HETATM    4  C3  UNL     1      22.954   1.398  51.892  1.00  0.00    -0.007 A 
HETATM    5  C4  UNL     1      23.554   2.253  51.011  1.00  0.00     0.122 A 
HETATM    6  N2  UNL     1      22.853   2.301  49.869  1.00  0.00    -0.170 NA
HETATM    7  C5  UNL     1      24.743   3.136  50.938  1.00  0.00     0.151 C 
HETATM    8  N4  UNL     1      25.978   3.117  50.959  1.00  0.00    -0.141 NA
HETATM    9  N5  UNL     1      26.964   2.197  51.074  1.00  0.00    -0.165 NA
HETATM   10  C15 UNL     1      26.620   1.155  51.836  1.00  0.00     0.119 C 
HETATM   11  C16 UNL     1      25.800   0.248  52.716  1.00  0.00     0.042 C 
HETATM   12  C17 UNL     1      24.523   0.214  53.169  1.00  0.00     0.005 C 
HETATM   13  C18 UNL     1      23.095   0.793  53.254  1.00  0.00     0.048 C 
ENDROOT
BRANCH   7  14
HETATM   14  S1  UNL     1      24.371   4.873  50.826  1.00  0.00    -0.067 SA
BRANCH  14  15
HETATM   15  C6  UNL     1      25.516   5.919  50.059  1.00  0.00     0.008 A 
HETATM   16  C7  UNL     1      25.299   7.232  50.510  1.00  0.00     0.021 A 
HETATM   17  C8  UNL     1      26.094   8.284  50.042  1.00  0.00     0.034 A 
HETATM   18  C9  UNL     1      27.103   8.052  49.132  1.00  0.00     0.066 A 
HETATM   19  N3  UNL     1      27.912   9.017  48.635  1.00  0.00    -0.260 NA
HETATM   20  C13 UNL     1      27.343   6.777  48.669  1.00  0.00    -0.006 A 
HETATM   21  C10 UNL     1      28.873   8.714  47.752  1.00  0.00     0.117 A 
HETATM   22  C11 UNL     1      29.119   7.438  47.283  1.00  0.00     0.020 A 
HETATM   23  C12 UNL     1      28.312   6.400  47.764  1.00  0.00     0.015 A 
HETATM   24  C14 UNL     1      26.541   5.777  49.154  1.00  0.00     0.032 A 
ENDBRANCH  14  15
ENDBRANCH   7  14
TORSDOF 2
ENDMDL
MODEL 8
REMARK VINA RESULT:      -7.8      2.295      3.714
REMARK  2 active torsions:
REMARK  status: ('A' for Active; 'I' for Inactive)
REMARK    1  A    between atoms: C5_7  and  S1_8 
REMARK    2  A    between atoms: S1_8  and  C6_9 
ROOT
HETATM    1  C1  UNL     1      24.235   6.731  51.254  1.00  0.00     0.179 C 
HETATM    2  N1  UNL     1      23.138   5.759  51.086  1.00  0.00    -0.284 N 
HETATM    3  C2  UNL     1      21.837   5.925  50.830  1.00  0.00     0.121 A 
HETATM    4  C3  UNL     1      21.117   4.714  50.743  1.00  0.00    -0.007 A 
HETATM    5  C4  UNL     1      22.118   3.812  50.973  1.00  0.00     0.122 A 
HETATM    6  N2  UNL     1      23.279   4.454  51.169  1.00  0.00    -0.170 NA
HETATM    7  C5  UNL     1      22.304   2.344  51.067  1.00  0.00     0.151 C 
HETATM    8  N4  UNL     1      22.224   1.304  50.406  1.00  0.00    -0.141 NA
HETATM    9  N5  UNL     1      21.889   0.942  49.146  1.00  0.00    -0.165 NA
HETATM   10  C15 UNL     1      20.959   1.732  48.604  1.00  0.00     0.119 C 
HETATM   11  C16 UNL     1      19.960   2.848  48.446  1.00  0.00     0.042 C 
HETATM   12  C17 UNL     1      19.567   3.923  49.174  1.00  0.00     0.005 C 
HETATM   13  C18 UNL     1      19.661   4.827  50.421  1.00  0.00     0.048 C 
ENDROOT
BRANCH   7  14
HETATM   14  S1  UNL     1      22.763   1.757  52.684  1.00  0.00    -0.067 SA
BRANCH  14  15
HETATM   15  C6  UNL     1      24.388   1.222  52.941  1.00  0.00     0.008 A 
HETATM   16  C7  UNL     1      25.138   2.293  53.457  1.00  0.00     0.021 A 
HETATM   17  C8  UNL     1      26.495   2.129  53.757  1.00  0.00     0.034 A 
HETATM   18  C9  UNL     1      27.120   0.918  53.551  1.00  0.00     0.066 A 
HETATM   19  N3  UNL     1      28.427   0.685  53.816  1.00  0.00    -0.260 NA
HETATM   20  C13 UNL     1      26.415  -0.151  53.045  1.00  0.00    -0.006 A 
HETATM   21  C10 UNL     1      28.965  -0.521  53.588  1.00  0.00     0.117 A 
HETATM   22  C11 UNL     1      28.264  -1.598  53.082  1.00  0.00     0.020 A 
HETATM   23  C12 UNL     1      26.908  -1.413  52.789  1.00  0.00     0.015 A 
HETATM   24  C14 UNL     1      25.088   0.053  52.766  1.00  0.00     0.032 A 
ENDBRANCH  14  15
ENDBRANCH   7  14
TORSDOF 2
ENDMDL
MODEL 9
REMARK VINA RESULT:      -7.7      2.240      3.997
REMARK  2 active torsions:
REMARK  status: ('A' for Active; 'I' for Inactive)
REMARK    1  A    between atoms: C5_7  and  S1_8 
REMARK    2  A    between atoms: S1_8  and  C6_9 
ROOT
HETATM    1  C1  UNL     1      16.244   4.012  51.911  1.00  0.00     0.179 C 
HETATM    2  N1  UNL     1      17.590   4.000  51.310  1.00  0.00    -0.284 N 
HETATM    3  C2  UNL     1      18.010   4.256  50.067  1.00  0.00     0.121 A 
HETATM    4  C3  UNL     1      19.406   4.132  49.902  1.00  0.00    -0.007 A 
HETATM    5  C4  UNL     1      19.776   3.776  51.168  1.00  0.00     0.122 A 
HETATM    6  N2  UNL     1      18.696   3.708  51.961  1.00  0.00    -0.170 NA
HETATM    7  C5  UNL     1      21.008   3.447  51.926  1.00  0.00     0.151 C 
HETATM    8  N4  UNL     1      22.080   3.929  52.306  1.00  0.00    -0.141 NA
HETATM    9  N5  UNL     1      22.738   5.107  52.210  1.00  0.00    -0.165 NA
HETATM   10  C15 UNL     1      22.489   5.754  51.068  1.00  0.00     0.119 C 
HETATM   11  C16 UNL     1      21.914   6.074  49.713  1.00  0.00     0.042 C 
HETATM   12  C17 UNL     1      20.993   5.524  48.884  1.00  0.00     0.005 C 
HETATM   13  C18 UNL     1      19.946   4.443  48.542  1.00  0.00     0.048 C 
ENDROOT
BRANCH   7  14
HETATM   14  S1  UNL     1      21.097   1.765  52.501  1.00  0.00    -0.067 SA
BRANCH  14  15
HETATM   15  C6  UNL     1      22.656   1.053  52.739  1.00  0.00     0.008 A 
HETATM   16  C7  UNL     1      22.535   0.004  53.667  1.00  0.00     0.021 A 
HETATM   17  C8  UNL     1      23.656  -0.745  54.042  1.00  0.00     0.034 A 
HETATM   18  C9  UNL     1      24.897  -0.468  53.510  1.00  0.00     0.066 A 
HETATM   19  N3  UNL     1      26.024  -1.148  53.825  1.00  0.00    -0.260 NA
HETATM   20  C13 UNL     1      25.051   0.553  52.600  1.00  0.00    -0.006 A 
HETATM   21  C10 UNL     1      27.197  -0.820  53.265  1.00  0.00     0.117 A 
HETATM   22  C11 UNL     1      27.360   0.203  52.351  1.00  0.00     0.020 A 
HETATM   23  C12 UNL     1      26.226   0.940  51.989  1.00  0.00     0.015 A 
HETATM   24  C14 UNL     1      23.927   1.261  52.260  1.00  0.00     0.032 A 
ENDBRANCH  14  15
ENDBRANCH   7  14
TORSDOF 2
ENDMDL
