MODEL 1
REMARK VINA RESULT:      -7.9      0.000      0.000
REMARK  5 active torsions:
REMARK  status: ('A' for Active; 'I' for Inactive)
REMARK    1  A    between atoms: O1_1  and  C1_2 
REMARK    2  A    between atoms: C4_5  and  C5_6 
REMARK    3  A    between atoms: C5_6  and  N1_7 
REMARK    4  A    between atoms: N1_7  and  C6_8 
REMARK    5  A    between atoms: C6_8  and  C7_9 
ROOT
HETATM    1  C1  UNL     1      28.057   1.561  53.170  1.00  0.00     0.088 A 
HETATM    2  C2  UNL     1      26.817   2.132  52.999  1.00  0.00     0.054 A 
HETATM    3  C3  UNL     1      25.732   1.301  53.089  1.00  0.00     0.022 A 
HETATM    4  C4  UNL     1      24.475   1.885  52.942  1.00  0.00     0.065 A 
HETATM    5  N2  UNL     1      23.410   1.089  53.051  1.00  0.00    -0.244 NA
HETATM    6  C13 UNL     1      23.443  -0.229  53.290  1.00  0.00     0.234 A 
HETATM    7  N3  UNL     1      24.690  -0.771  53.428  1.00  0.00    -0.241 NA
HETATM    8  C14 UNL     1      25.812  -0.053  53.336  1.00  0.00     0.072 A 
HETATM    9  C15 UNL     1      27.078  -0.619  53.507  1.00  0.00     0.059 A 
HETATM   10  C16 UNL     1      28.211   0.201  53.422  1.00  0.00     0.069 A 
HETATM   11 CL1  UNL     1      29.768  -0.551  53.645  1.00  0.00    -0.081 Cl
ENDROOT
BRANCH   4  12
HETATM   12  C5  UNL     1      24.194   3.316  52.622  1.00  0.00     0.174 C 
BRANCH  12  13
HETATM   13  N1  UNL     1      23.464   3.371  51.407  1.00  0.00    -0.412 N 
HETATM   14  H5  UNL     1      22.530   3.740  51.385  1.00  0.00     0.153 HD
BRANCH  13  15
HETATM   15  C6  UNL     1      24.067   2.870  50.235  1.00  0.00     0.153 C 
BRANCH  15  16
HETATM   16  C7  UNL     1      25.060   3.838  49.705  1.00  0.00    -0.041 A 
HETATM   17  C8  UNL     1      24.755   5.149  49.336  1.00  0.00     0.009 A 
HETATM   18  C9  UNL     1      25.600   6.101  48.821  1.00  0.00     0.001 A 
HETATM   19  C10 UNL     1      26.933   5.694  48.652  1.00  0.00     0.000 A 
HETATM   20  C11 UNL     1      27.284   4.413  49.000  1.00  0.00     0.001 A 
HETATM   21  C12 UNL     1      26.401   3.473  49.517  1.00  0.00     0.009 A 
ENDBRANCH  15  16
ENDBRANCH  13  15
ENDBRANCH  12  13
ENDBRANCH   4  12
BRANCH   1  22
HETATM   22  O1  UNL     1      29.230   2.340  53.093  1.00  0.00    -0.359 OA
HETATM   23  H1  UNL     1      29.208   3.203  52.556  1.00  0.00     0.217 HD
ENDBRANCH   1  22
TORSDOF 5
ENDMDL
MODEL 2
REMARK VINA RESULT:      -7.4      2.848      4.262
REMARK  5 active torsions:
REMARK  status: ('A' for Active; 'I' for Inactive)
REMARK    1  A    between atoms: O1_1  and  C1_2 
REMARK    2  A    between atoms: C4_5  and  C5_6 
REMARK    3  A    between atoms: C5_6  and  N1_7 
REMARK    4  A    between atoms: N1_7  and  C6_8 
REMARK    5  A    between atoms: C6_8  and  C7_9 
ROOT
HETATM    1  C1  UNL     1      24.417  -0.122  53.336  1.00  0.00     0.088 A 
HETATM    2  C2  UNL     1      25.119   0.717  52.502  1.00  0.00     0.054 A 
HETATM    3  C3  UNL     1      26.318   1.192  52.962  1.00  0.00     0.022 A 
HETATM    4  C4  UNL     1      27.041   2.021  52.106  1.00  0.00     0.065 A 
HETATM    5  N2  UNL     1      28.221   2.470  52.535  1.00  0.00    -0.244 NA
HETATM    6  C13 UNL     1      28.776   2.193  53.723  1.00  0.00     0.234 A 
HETATM    7  N3  UNL     1      28.043   1.379  54.540  1.00  0.00    -0.241 NA
HETATM    8  C14 UNL     1      26.852   0.881  54.195  1.00  0.00     0.072 A 
HETATM    9  C15 UNL     1      26.129   0.028  55.032  1.00  0.00     0.059 A 
HETATM   10  C16 UNL     1      24.897  -0.478  54.593  1.00  0.00     0.069 A 
HETATM   11 CL1  UNL     1      24.032  -1.540  55.672  1.00  0.00    -0.081 Cl
ENDROOT
BRANCH   4  12
HETATM   12  C5  UNL     1      26.604   2.505  50.763  1.00  0.00     0.174 C 
BRANCH  12  13
HETATM   13  N1  UNL     1      26.103   3.825  50.901  1.00  0.00    -0.412 N 
HETATM   14  H5  UNL     1      26.531   4.473  51.537  1.00  0.00     0.153 HD
BRANCH  13  15
HETATM   15  C6  UNL     1      24.974   4.199  50.145  1.00  0.00     0.153 C 
BRANCH  15  16
HETATM   16  C7  UNL     1      23.771   3.454  50.598  1.00  0.00    -0.041 A 
HETATM   17  C8  UNL     1      23.121   2.481  49.837  1.00  0.00     0.009 A 
HETATM   18  C9  UNL     1      21.999   1.760  50.166  1.00  0.00     0.001 A 
HETATM   19  C10 UNL     1      21.450   2.044  51.427  1.00  0.00     0.000 A 
HETATM   20  C11 UNL     1      22.053   2.994  52.213  1.00  0.00     0.001 A 
HETATM   21  C12 UNL     1      23.188   3.707  51.848  1.00  0.00     0.009 A 
ENDBRANCH  15  16
ENDBRANCH  13  15
ENDBRANCH  12  13
ENDBRANCH   4  12
BRANCH   1  22
HETATM   22  O1  UNL     1      23.173  -0.657  52.945  1.00  0.00    -0.359 OA
HETATM   23  H1  UNL     1      23.123  -1.200  52.087  1.00  0.00     0.217 HD
ENDBRANCH   1  22
TORSDOF 5
ENDMDL
MODEL 3
REMARK VINA RESULT:      -7.3      2.901      3.769
REMARK  5 active torsions:
REMARK  status: ('A' for Active; 'I' for Inactive)
REMARK    1  A    between atoms: O1_1  and  C1_2 
REMARK    2  A    between atoms: C4_5  and  C5_6 
REMARK    3  A    between atoms: C5_6  and  N1_7 
REMARK    4  A    between atoms: N1_7  and  C6_8 
REMARK    5  A    between atoms: C6_8  and  C7_9 
ROOT
HETATM    1  C1  UNL     1      23.275  -0.117  52.957  1.00  0.00     0.088 A 
HETATM    2  C2  UNL     1      24.375   0.495  52.402  1.00  0.00     0.054 A 
HETATM    3  C3  UNL     1      25.546   0.428  53.107  1.00  0.00     0.022 A 
HETATM    4  C4  UNL     1      26.666   1.026  52.531  1.00  0.00     0.065 A 
HETATM    5  N2  UNL     1      27.818   0.946  53.199  1.00  0.00    -0.244 NA
HETATM    6  C13 UNL     1      27.994   0.340  54.380  1.00  0.00     0.234 A 
HETATM    7  N3  UNL     1      26.878  -0.235  54.919  1.00  0.00    -0.241 NA
HETATM    8  C14 UNL     1      25.682  -0.207  54.323  1.00  0.00     0.072 A 
HETATM    9  C15 UNL     1      24.558  -0.824  54.876  1.00  0.00     0.059 A 
HETATM   10  C16 UNL     1      23.341  -0.776  54.181  1.00  0.00     0.069 A 
HETATM   11 CL1  UNL     1      21.966  -1.562  54.910  1.00  0.00    -0.081 Cl
ENDROOT
BRANCH   4  12
HETATM   12  C5  UNL     1      26.700   1.798  51.254  1.00  0.00     0.174 C 
BRANCH  12  13
HETATM   13  N1  UNL     1      26.163   3.088  51.493  1.00  0.00    -0.412 N 
HETATM   14  H5  UNL     1      26.342   3.568  52.357  1.00  0.00     0.153 HD
BRANCH  13  15
HETATM   15  C6  UNL     1      25.348   3.672  50.501  1.00  0.00     0.153 C 
BRANCH  15  16
HETATM   16  C7  UNL     1      26.101   4.712  49.754  1.00  0.00    -0.041 A 
HETATM   17  C8  UNL     1      27.259   4.462  49.016  1.00  0.00     0.009 A 
HETATM   18  C9  UNL     1      28.026   5.360  48.315  1.00  0.00     0.001 A 
HETATM   19  C10 UNL     1      27.577   6.690  48.350  1.00  0.00     0.000 A 
HETATM   20  C11 UNL     1      26.442   6.988  49.063  1.00  0.00     0.001 A 
HETATM   21  C12 UNL     1      25.690   6.053  49.764  1.00  0.00     0.009 A 
ENDBRANCH  15  16
ENDBRANCH  13  15
ENDBRANCH  12  13
ENDBRANCH   4  12
BRANCH   1  22
HETATM   22  O1  UNL     1      22.027  -0.098  52.302  1.00  0.00    -0.359 OA
HETATM   23  H1  UNL     1      21.185  -0.254  52.849  1.00  0.00     0.217 HD
ENDBRANCH   1  22
TORSDOF 5
ENDMDL
MODEL 4
REMARK VINA RESULT:      -7.2      2.223      5.174
REMARK  5 active torsions:
REMARK  status: ('A' for Active; 'I' for Inactive)
REMARK    1  A    between atoms: O1_1  and  C1_2 
REMARK    2  A    between atoms: C4_5  and  C5_6 
REMARK    3  A    between atoms: C5_6  and  N1_7 
REMARK    4  A    between atoms: N1_7  and  C6_8 
REMARK    5  A    between atoms: C6_8  and  C7_9 
ROOT
HETATM    1  C1  UNL     1      26.067   0.438  54.119  1.00  0.00     0.088 A 
HETATM    2  C2  UNL     1      25.102   1.021  53.331  1.00  0.00     0.054 A 
HETATM    3  C3  UNL     1      25.535   1.846  52.327  1.00  0.00     0.022 A 
HETATM    4  C4  UNL     1      24.559   2.417  51.512  1.00  0.00     0.065 A 
HETATM    5  N2  UNL     1      24.970   3.203  50.517  1.00  0.00    -0.244 NA
HETATM    6  C13 UNL     1      26.246   3.496  50.231  1.00  0.00     0.234 A 
HETATM    7  N3  UNL     1      27.179   2.923  51.048  1.00  0.00    -0.241 NA
HETATM    8  C14 UNL     1      26.861   2.120  52.068  1.00  0.00     0.072 A 
HETATM    9  C15 UNL     1      27.830   1.522  52.877  1.00  0.00     0.059 A 
HETATM   10  C16 UNL     1      27.423   0.670  53.913  1.00  0.00     0.069 A 
HETATM   11 CL1  UNL     1      28.669  -0.056  54.895  1.00  0.00    -0.081 Cl
ENDROOT
BRANCH   4  12
HETATM   12  C5  UNL     1      23.081   2.277  51.670  1.00  0.00     0.174 C 
BRANCH  12  13
HETATM   13  N1  UNL     1      22.599   1.411  50.655  1.00  0.00    -0.412 N 
HETATM   14  H5  UNL     1      23.033   1.388  49.750  1.00  0.00     0.153 HD
BRANCH  13  15
HETATM   15  C6  UNL     1      21.479   0.602  50.936  1.00  0.00     0.153 C 
BRANCH  15  16
HETATM   16  C7  UNL     1      21.525   0.117  52.338  1.00  0.00    -0.041 A 
HETATM   17  C8  UNL     1      20.795   0.682  53.386  1.00  0.00     0.009 A 
HETATM   18  C9  UNL     1      20.791   0.313  54.709  1.00  0.00     0.001 A 
HETATM   19  C10 UNL     1      21.625  -0.769  55.034  1.00  0.00     0.000 A 
HETATM   20  C11 UNL     1      22.364  -1.359  54.038  1.00  0.00     0.001 A 
HETATM   21  C12 UNL     1      22.346  -0.958  52.709  1.00  0.00     0.009 A 
ENDBRANCH  15  16
ENDBRANCH  13  15
ENDBRANCH  12  13
ENDBRANCH   4  12
BRANCH   1  22
HETATM   22  O1  UNL     1      25.713  -0.426  55.176  1.00  0.00    -0.359 OA
HETATM   23  H1  UNL     1      24.833  -0.270  55.660  1.00  0.00     0.217 HD
ENDBRANCH   1  22
TORSDOF 5
ENDMDL
MODEL 5
REMARK VINA RESULT:      -7.1      4.455      6.414
REMARK  5 active torsions:
REMARK  status: ('A' for Active; 'I' for Inactive)
REMARK    1  A    between atoms: O1_1  and  C1_2 
REMARK    2  A    between atoms: C4_5  and  C5_6 
REMARK    3  A    between atoms: C5_6  and  N1_7 
REMARK    4  A    between atoms: N1_7  and  C6_8 
REMARK    5  A    between atoms: C6_8  and  C7_9 
ROOT
HETATM    1  C1  UNL     1      20.040   0.188  52.645  1.00  0.00     0.088 A 
HETATM    2  C2  UNL     1      21.354   0.595  52.677  1.00  0.00     0.054 A 
HETATM    3  C3  UNL     1      22.186  -0.056  53.548  1.00  0.00     0.022 A 
HETATM    4  C4  UNL     1      23.523   0.340  53.560  1.00  0.00     0.065 A 
HETATM    5  N2  UNL     1      24.347  -0.303  54.389  1.00  0.00    -0.244 NA
HETATM    6  C13 UNL     1      24.001  -1.301  55.214  1.00  0.00     0.234 A 
HETATM    7  N3  UNL     1      22.684  -1.664  55.179  1.00  0.00    -0.241 NA
HETATM    8  C14 UNL     1      21.786  -1.079  54.382  1.00  0.00     0.072 A 
HETATM    9  C15 UNL     1      20.450  -1.482  54.340  1.00  0.00     0.059 A 
HETATM   10  C16 UNL     1      19.569  -0.838  53.459  1.00  0.00     0.069 A 
HETATM   11 CL1  UNL     1      17.911  -1.377  53.441  1.00  0.00    -0.081 Cl
ENDROOT
BRANCH   4  12
HETATM   12  C5  UNL     1      24.124   1.455  52.771  1.00  0.00     0.174 C 
BRANCH  12  13
HETATM   13  N1  UNL     1      25.445   1.676  53.238  1.00  0.00    -0.412 N 
HETATM   14  H5  UNL     1      25.620   1.889  54.203  1.00  0.00     0.153 HD
BRANCH  13  15
HETATM   15  C6  UNL     1      26.505   1.617  52.310  1.00  0.00     0.153 C 
BRANCH  15  16
HETATM   16  C7  UNL     1      27.533   0.641  52.755  1.00  0.00    -0.041 A 
HETATM   17  C8  UNL     1      27.397  -0.744  52.644  1.00  0.00     0.009 A 
HETATM   18  C9  UNL     1      28.282  -1.715  53.044  1.00  0.00     0.001 A 
HETATM   19  C10 UNL     1      29.466  -1.244  53.633  1.00  0.00     0.000 A 
HETATM   20  C11 UNL     1      29.648   0.110  53.765  1.00  0.00     0.001 A 
HETATM   21  C12 UNL     1      28.729   1.066  53.351  1.00  0.00     0.009 A 
ENDBRANCH  15  16
ENDBRANCH  13  15
ENDBRANCH  12  13
ENDBRANCH   4  12
BRANCH   1  22
HETATM   22  O1  UNL     1      19.112   0.802  51.779  1.00  0.00    -0.359 OA
HETATM   23  H1  UNL     1      18.493   0.212  51.229  1.00  0.00     0.217 HD
ENDBRANCH   1  22
TORSDOF 5
ENDMDL
MODEL 6
REMARK VINA RESULT:      -6.9      1.999      2.920
REMARK  5 active torsions:
REMARK  status: ('A' for Active; 'I' for Inactive)
REMARK    1  A    between atoms: O1_1  and  C1_2 
REMARK    2  A    between atoms: C4_5  and  C5_6 
REMARK    3  A    between atoms: C5_6  and  N1_7 
REMARK    4  A    between atoms: N1_7  and  C6_8 
REMARK    5  A    between atoms: C6_8  and  C7_9 
ROOT
HETATM    1  C1  UNL     1      26.330   1.035  52.368  1.00  0.00     0.088 A 
HETATM    2  C2  UNL     1      25.006   0.662  52.427  1.00  0.00     0.054 A 
HETATM    3  C3  UNL     1      24.613  -0.062  53.520  1.00  0.00     0.022 A 
HETATM    4  C4  UNL     1      23.267  -0.417  53.592  1.00  0.00     0.065 A 
HETATM    5  N2  UNL     1      22.868  -1.104  54.664  1.00  0.00    -0.244 NA
HETATM    6  C13 UNL     1      23.651  -1.484  55.682  1.00  0.00     0.234 A 
HETATM    7  N3  UNL     1      24.965  -1.123  55.582  1.00  0.00    -0.241 NA
HETATM    8  C14 UNL     1      25.455  -0.434  54.547  1.00  0.00     0.072 A 
HETATM    9  C15 UNL     1      26.796  -0.049  54.474  1.00  0.00     0.059 A 
HETATM   10  C16 UNL     1      27.234   0.695  53.369  1.00  0.00     0.069 A 
HETATM   11 CL1  UNL     1      28.915   1.153  53.323  1.00  0.00    -0.081 Cl
ENDROOT
BRANCH   4  12
HETATM   12  C5  UNL     1      22.223  -0.150  52.559  1.00  0.00     0.174 C 
BRANCH  12  13
HETATM   13  N1  UNL     1      21.491   1.002  52.946  1.00  0.00    -0.412 N 
HETATM   14  H5  UNL     1      21.277   1.174  53.911  1.00  0.00     0.153 HD
BRANCH  13  15
HETATM   15  C6  UNL     1      21.046   1.886  51.941  1.00  0.00     0.153 C 
BRANCH  15  16
HETATM   16  C7  UNL     1      22.195   2.600  51.329  1.00  0.00    -0.041 A 
HETATM   17  C8  UNL     1      22.938   3.589  51.978  1.00  0.00     0.009 A 
HETATM   18  C9  UNL     1      23.997   4.312  51.485  1.00  0.00     0.001 A 
HETATM   19  C10 UNL     1      24.370   4.007  50.166  1.00  0.00     0.000 A 
HETATM   20  C11 UNL     1      23.670   3.042  49.485  1.00  0.00     0.001 A 
HETATM   21  C12 UNL     1      22.601   2.331  50.014  1.00  0.00     0.009 A 
ENDBRANCH  15  16
ENDBRANCH  13  15
ENDBRANCH  12  13
ENDBRANCH   4  12
BRANCH   1  22
HETATM   22  O1  UNL     1      26.823   1.783  51.279  1.00  0.00    -0.359 OA
HETATM   23  H1  UNL     1      27.745   2.204  51.354  1.00  0.00     0.217 HD
ENDBRANCH   1  22
TORSDOF 5
ENDMDL
MODEL 7
REMARK VINA RESULT:      -6.9      2.723      6.059
REMARK  5 active torsions:
REMARK  status: ('A' for Active; 'I' for Inactive)
REMARK    1  A    between atoms: O1_1  and  C1_2 
REMARK    2  A    between atoms: C4_5  and  C5_6 
REMARK    3  A    between atoms: C5_6  and  N1_7 
REMARK    4  A    between atoms: N1_7  and  C6_8 
REMARK    5  A    between atoms: C6_8  and  C7_9 
ROOT
HETATM    1  C1  UNL     1      26.703   4.560  49.317  1.00  0.00     0.088 A 
HETATM    2  C2  UNL     1      26.159   3.556  50.085  1.00  0.00     0.054 A 
HETATM    3  C3  UNL     1      25.020   3.855  50.783  1.00  0.00     0.022 A 
HETATM    4  C4  UNL     1      24.454   2.830  51.540  1.00  0.00     0.065 A 
HETATM    5  N2  UNL     1      23.331   3.103  52.205  1.00  0.00    -0.244 NA
HETATM    6  C13 UNL     1      22.695   4.282  52.210  1.00  0.00     0.234 A 
HETATM    7  N3  UNL     1      23.275   5.267  51.460  1.00  0.00    -0.241 NA
HETATM    8  C14 UNL     1      24.398   5.085  50.759  1.00  0.00     0.072 A 
HETATM    9  C15 UNL     1      24.961   6.095  49.976  1.00  0.00     0.059 A 
HETATM   10  C16 UNL     1      26.127   5.825  49.248  1.00  0.00     0.069 A 
HETATM   11 CL1  UNL     1      26.792   7.116  48.283  1.00  0.00    -0.081 Cl
ENDROOT
BRANCH   4  12
HETATM   12  C5  UNL     1      25.009   1.456  51.726  1.00  0.00     0.174 C 
BRANCH  12  13
HETATM   13  N1  UNL     1      25.347   1.288  53.093  1.00  0.00    -0.412 N 
HETATM   14  H5  UNL     1      25.370   2.074  53.717  1.00  0.00     0.153 HD
BRANCH  13  15
HETATM   15  C6  UNL     1      25.676  -0.004  53.551  1.00  0.00     0.153 C 
BRANCH  15  16
HETATM   16  C7  UNL     1      27.148  -0.202  53.542  1.00  0.00    -0.041 A 
HETATM   17  C8  UNL     1      27.775  -1.394  53.173  1.00  0.00     0.009 A 
HETATM   18  C9  UNL     1      29.120  -1.670  53.154  1.00  0.00     0.001 A 
HETATM   19  C10 UNL     1      29.956  -0.616  53.555  1.00  0.00     0.000 A 
HETATM   20  C11 UNL     1      29.388   0.576  53.929  1.00  0.00     0.001 A 
HETATM   21  C12 UNL     1      28.020   0.822  53.938  1.00  0.00     0.009 A 
ENDBRANCH  15  16
ENDBRANCH  13  15
ENDBRANCH  12  13
ENDBRANCH   4  12
BRANCH   1  22
HETATM   22  O1  UNL     1      27.876   4.343  48.566  1.00  0.00    -0.359 OA
HETATM   23  H1  UNL     1      28.574   3.697  48.926  1.00  0.00     0.217 HD
ENDBRANCH   1  22
TORSDOF 5
ENDMDL
MODEL 8
REMARK VINA RESULT:      -6.7      1.795      2.441
REMARK  5 active torsions:
REMARK  status: ('A' for Active; 'I' for Inactive)
REMARK    1  A    between atoms: O1_1  and  C1_2 
REMARK    2  A    between atoms: C4_5  and  C5_6 
REMARK    3  A    between atoms: C5_6  and  N1_7 
REMARK    4  A    between atoms: N1_7  and  C6_8 
REMARK    5  A    between atoms: C6_8  and  C7_9 
ROOT
HETATM    1  C1  UNL     1      26.402   2.581  51.636  1.00  0.00     0.088 A 
HETATM    2  C2  UNL     1      25.140   2.328  51.152  1.00  0.00     0.054 A 
HETATM    3  C3  UNL     1      24.350   1.484  51.887  1.00  0.00     0.022 A 
HETATM    4  C4  UNL     1      23.062   1.248  51.411  1.00  0.00     0.065 A 
HETATM    5  N2  UNL     1      22.277   0.446  52.131  1.00  0.00    -0.244 NA
HETATM    6  C13 UNL     1      22.619  -0.156  53.278  1.00  0.00     0.234 A 
HETATM    7  N3  UNL     1      23.888   0.094  53.718  1.00  0.00    -0.241 NA
HETATM    8  C14 UNL     1      24.745   0.884  53.065  1.00  0.00     0.072 A 
HETATM    9  C15 UNL     1      26.029   1.150  53.544  1.00  0.00     0.059 A 
HETATM   10  C16 UNL     1      26.865   2.010  52.818  1.00  0.00     0.069 A 
HETATM   11 CL1  UNL     1      28.458   2.314  53.456  1.00  0.00    -0.081 Cl
ENDROOT
BRANCH   4  12
HETATM   12  C5  UNL     1      22.480   1.765  50.137  1.00  0.00     0.174 C 
BRANCH  12  13
HETATM   13  N1  UNL     1      21.730   2.934  50.426  1.00  0.00    -0.412 N 
HETATM   14  H5  UNL     1      21.167   2.992  51.256  1.00  0.00     0.153 HD
BRANCH  13  15
HETATM   15  C6  UNL     1      21.771   4.004  49.509  1.00  0.00     0.153 C 
BRANCH  15  16
HETATM   16  C7  UNL     1      22.982   4.835  49.730  1.00  0.00    -0.041 A 
HETATM   17  C8  UNL     1      24.049   4.916  48.835  1.00  0.00     0.009 A 
HETATM   18  C9  UNL     1      25.210   5.639  48.966  1.00  0.00     0.001 A 
HETATM   19  C10 UNL     1      25.323   6.386  50.150  1.00  0.00     0.000 A 
HETATM   20  C11 UNL     1      24.299   6.339  51.063  1.00  0.00     0.001 A 
HETATM   21  C12 UNL     1      23.138   5.594  50.899  1.00  0.00     0.009 A 
ENDBRANCH  15  16
ENDBRANCH  13  15
ENDBRANCH  12  13
ENDBRANCH   4  12
BRANCH   1  22
HETATM   22  O1  UNL     1      27.284   3.437  50.945  1.00  0.00    -0.359 OA
HETATM   23  H1  UNL     1      28.218   3.101  50.723  1.00  0.00     0.217 HD
ENDBRANCH   1  22
TORSDOF 5
ENDMDL
MODEL 9
REMARK VINA RESULT:      -6.7      3.858      4.945
REMARK  5 active torsions:
REMARK  status: ('A' for Active; 'I' for Inactive)
REMARK    1  A    between atoms: O1_1  and  C1_2 
REMARK    2  A    between atoms: C4_5  and  C5_6 
REMARK    3  A    between atoms: C5_6  and  N1_7 
REMARK    4  A    between atoms: N1_7  and  C6_8 
REMARK    5  A    between atoms: C6_8  and  C7_9 
ROOT
HETATM    1  C1  UNL     1      20.200   2.257  52.224  1.00  0.00     0.088 A 
HETATM    2  C2  UNL     1      21.524   2.561  52.442  1.00  0.00     0.054 A 
HETATM    3  C3  UNL     1      22.356   1.521  52.757  1.00  0.00     0.022 A 
HETATM    4  C4  UNL     1      23.703   1.825  52.952  1.00  0.00     0.065 A 
HETATM    5  N2  UNL     1      24.527   0.816  53.237  1.00  0.00    -0.244 NA
HETATM    6  C13 UNL     1      24.173  -0.471  53.352  1.00  0.00     0.234 A 
HETATM    7  N3  UNL     1      22.847  -0.737  53.156  1.00  0.00    -0.241 NA
HETATM    8  C14 UNL     1      21.948   0.208  52.866  1.00  0.00     0.072 A 
HETATM    9  C15 UNL     1      20.601  -0.086  52.642  1.00  0.00     0.059 A 
HETATM   10  C16 UNL     1      19.720   0.955  52.317  1.00  0.00     0.069 A 
HETATM   11 CL1  UNL     1      18.049   0.539  52.045  1.00  0.00    -0.081 Cl
ENDROOT
BRANCH   4  12
HETATM   12  C5  UNL     1      24.316   3.186  52.925  1.00  0.00     0.174 C 
BRANCH  12  13
HETATM   13  N1  UNL     1      25.246   3.240  51.856  1.00  0.00    -0.412 N 
HETATM   14  H5  UNL     1      26.233   3.179  52.029  1.00  0.00     0.153 HD
BRANCH  13  15
HETATM   15  C6  UNL     1      24.755   3.408  50.545  1.00  0.00     0.153 C 
BRANCH  15  16
HETATM   16  C7  UNL     1      25.604   4.363  49.788  1.00  0.00    -0.041 A 
HETATM   17  C8  UNL     1      26.879   4.064  49.305  1.00  0.00     0.009 A 
HETATM   18  C9  UNL     1      27.737   4.887  48.617  1.00  0.00     0.001 A 
HETATM   19  C10 UNL     1      27.260   6.184  48.373  1.00  0.00     0.000 A 
HETATM   20  C11 UNL     1      26.011   6.528  48.828  1.00  0.00     0.001 A 
HETATM   21  C12 UNL     1      25.169   5.670  49.524  1.00  0.00     0.009 A 
ENDBRANCH  15  16
ENDBRANCH  13  15
ENDBRANCH  12  13
ENDBRANCH   4  12
BRANCH   1  22
HETATM   22  O1  UNL     1      19.270   3.266  51.895  1.00  0.00    -0.359 OA
HETATM   23  H1  UNL     1      19.616   4.198  51.682  1.00  0.00     0.217 HD
ENDBRANCH   1  22
TORSDOF 5
ENDMDL
