MODEL 1
REMARK VINA RESULT:      -8.8      0.000      0.000
REMARK  1 active torsions:
REMARK  status: ('A' for Active; 'I' for Inactive)
REMARK       I    between atoms: N1_1  and  C1_2 
REMARK    1  A    between atoms: C1_2  and  C2_4 
ROOT
HETATM    1  C2  UNL     1      27.159   0.811  53.682  1.00  0.00     0.082 C 
HETATM    2  C3  UNL     1      27.439  -0.677  53.678  1.00  0.00     0.014 C 
HETATM    3  C4  UNL     1      26.716  -1.228  52.461  1.00  0.00     0.002 C 
HETATM    4  C5  UNL     1      26.780  -0.014  51.559  1.00  0.00     0.012 C 
HETATM    5  C6  UNL     1      26.337   1.077  52.587  1.00  0.00    -0.009 A 
HETATM    6  C7  UNL     1      24.845   0.997  52.700  1.00  0.00     0.009 A 
HETATM    7  C8  UNL     1      23.533   1.443  52.631  1.00  0.00     0.015 A 
HETATM    8  C9  UNL     1      22.753   2.583  52.651  1.00  0.00     0.030 A 
HETATM    9  C10 UNL     1      23.599   3.641  52.794  1.00  0.00     0.033 A 
HETATM   10  C11 UNL     1      24.869   2.994  52.853  1.00  0.00    -0.067 A 
HETATM   11  C12 UNL     1      25.942   2.284  52.891  1.00  0.00     0.038 A 
HETATM   12  C13 UNL     1      25.923   2.292  51.830  1.00  0.00     0.026 A 
HETATM   13  C14 UNL     1      26.410   2.932  50.689  1.00  0.00     0.014 C 
HETATM   14  C15 UNL     1      25.378   3.657  49.833  1.00  0.00     0.029 C 
HETATM   15  C16 UNL     1      24.242   2.717  49.461  1.00  0.00    -0.007 C 
HETATM   16  C17 UNL     1      22.940   2.739  49.741  1.00  0.00     0.114 C 
HETATM   17  N2  UNL     1      21.523   2.702  50.008  1.00  0.00    -0.256 NA
HETATM   18  C18 UNL     1      21.046   2.383  51.175  1.00  0.00     0.207 C 
HETATM   19  N3  UNL     1      21.485   2.005  52.474  1.00  0.00    -0.351 N 
HETATM   20  H21 UNL     1      20.995   1.431  53.133  1.00  0.00     0.166 HD
ENDROOT
BRANCH   1  21
HETATM   21  C1  UNL     1      28.447   1.518  53.846  1.00  0.00     0.200 C 
HETATM   22  N1  UNL     1      29.558   0.689  53.526  1.00  0.00    -0.272 NA
HETATM   23  H1  UNL     1      30.438   0.293  53.136  1.00  0.00     0.127 HD
HETATM   24  H2  UNL     1      30.436   0.273  53.150  1.00  0.00     0.127 HD
HETATM   25  O1  UNL     1      28.545   2.717  54.225  1.00  0.00    -0.280 OA
ENDBRANCH   1  21
TORSDOF 1
ENDMDL
MODEL 2
REMARK VINA RESULT:      -8.7      2.294      5.630
REMARK  1 active torsions:
REMARK  status: ('A' for Active; 'I' for Inactive)
REMARK       I    between atoms: N1_1  and  C1_2 
REMARK    1  A    between atoms: C1_2  and  C2_4 
ROOT
HETATM    1  C2  UNL     1      24.887   3.926  51.929  1.00  0.00     0.082 C 
HETATM    2  C3  UNL     1      25.026   4.458  50.519  1.00  0.00     0.014 C 
HETATM    3  C4  UNL     1      25.583   3.308  49.698  1.00  0.00     0.002 C 
HETATM    4  C5  UNL     1      24.995   2.143  50.466  1.00  0.00     0.012 C 
HETATM    5  C6  UNL     1      25.343   2.608  51.917  1.00  0.00    -0.009 A 
HETATM    6  C7  UNL     1      26.788   2.285  52.150  1.00  0.00     0.009 A 
HETATM    7  C8  UNL     1      27.882   1.693  52.764  1.00  0.00     0.015 A 
HETATM    8  C9  UNL     1      28.309   1.130  53.951  1.00  0.00     0.030 A 
HETATM    9  C10 UNL     1      27.262   1.193  54.820  1.00  0.00     0.033 A 
HETATM   10  C11 UNL     1      26.260   1.824  54.026  1.00  0.00    -0.067 A 
HETATM   11  C12 UNL     1      25.455   2.397  53.202  1.00  0.00     0.038 A 
HETATM   12  C13 UNL     1      25.236   1.430  52.824  1.00  0.00     0.026 A 
HETATM   13  C14 UNL     1      24.354   0.350  52.905  1.00  0.00     0.014 C 
HETATM   14  C15 UNL     1      24.936  -0.954  53.437  1.00  0.00     0.029 C 
HETATM   15  C16 UNL     1      26.172  -1.346  52.643  1.00  0.00    -0.007 C 
HETATM   16  C17 UNL     1      27.448  -1.492  52.996  1.00  0.00     0.114 C 
HETATM   17  N2  UNL     1      28.845  -1.667  53.310  1.00  0.00    -0.256 NA
HETATM   18  C18 UNL     1      29.636  -0.658  53.530  1.00  0.00     0.207 C 
HETATM   19  N3  UNL     1      29.614   0.764  53.582  1.00  0.00    -0.351 N 
HETATM   20  H21 UNL     1      30.374   1.386  53.385  1.00  0.00     0.166 HD
ENDROOT
BRANCH   1  21
HETATM   21  C1  UNL     1      23.526   4.247  52.408  1.00  0.00     0.200 C 
HETATM   22  N1  UNL     1      23.517   5.368  53.284  1.00  0.00    -0.272 NA
HETATM   23  H1  UNL     1      23.317   6.274  53.755  1.00  0.00     0.127 HD
HETATM   24  H2  UNL     1      23.333   6.269  53.773  1.00  0.00     0.127 HD
HETATM   25  O1  UNL     1      22.495   3.600  52.076  1.00  0.00    -0.280 OA
ENDBRANCH   1  21
TORSDOF 1
ENDMDL
MODEL 3
REMARK VINA RESULT:      -8.6      2.539      5.680
REMARK  1 active torsions:
REMARK  status: ('A' for Active; 'I' for Inactive)
REMARK       I    between atoms: N1_1  and  C1_2 
REMARK    1  A    between atoms: C1_2  and  C2_4 
ROOT
HETATM    1  C2  UNL     1      23.058   4.216  50.682  1.00  0.00     0.082 C 
HETATM    2  C3  UNL     1      22.958   4.199  49.172  1.00  0.00     0.014 C 
HETATM    3  C4  UNL     1      23.223   2.761  48.758  1.00  0.00     0.002 C 
HETATM    4  C5  UNL     1      22.694   2.046  49.984  1.00  0.00     0.012 C 
HETATM    5  C6  UNL     1      23.373   2.919  51.087  1.00  0.00    -0.009 A 
HETATM    6  C7  UNL     1      24.798   2.465  51.196  1.00  0.00     0.009 A 
HETATM    7  C8  UNL     1      25.931   1.950  51.809  1.00  0.00     0.015 A 
HETATM    8  C9  UNL     1      26.535   1.770  53.038  1.00  0.00     0.030 A 
HETATM    9  C10 UNL     1      25.698   2.299  53.973  1.00  0.00     0.033 A 
HETATM   10  C11 UNL     1      24.620   2.773  53.168  1.00  0.00    -0.067 A 
HETATM   11  C12 UNL     1      23.723   3.150  52.325  1.00  0.00     0.038 A 
HETATM   12  C13 UNL     1      23.340   2.161  52.371  1.00  0.00     0.026 A 
HETATM   13  C14 UNL     1      22.393   1.336  52.980  1.00  0.00     0.014 C 
HETATM   14  C15 UNL     1      22.942   0.219  53.859  1.00  0.00     0.029 C 
HETATM   15  C16 UNL     1      23.947  -0.620  53.086  1.00  0.00    -0.007 C 
HETATM   16  C17 UNL     1      25.248  -0.842  53.265  1.00  0.00     0.114 C 
HETATM   17  N2  UNL     1      26.656  -1.123  53.401  1.00  0.00    -0.256 NA
HETATM   18  C18 UNL     1      27.569  -0.245  53.108  1.00  0.00     0.207 C 
HETATM   19  N3  UNL     1      27.695   1.091  52.633  1.00  0.00    -0.351 N 
HETATM   20  H21 UNL     1      28.456   1.474  52.105  1.00  0.00     0.166 HD
ENDROOT
BRANCH   1  21
HETATM   21  C1  UNL     1      21.861   4.901  51.213  1.00  0.00     0.200 C 
HETATM   22  N1  UNL     1      22.143   6.234  51.623  1.00  0.00    -0.272 NA
HETATM   23  H1  UNL     1      22.137   7.265  51.764  1.00  0.00     0.127 HD
HETATM   24  H2  UNL     1      22.156   7.264  51.780  1.00  0.00     0.127 HD
HETATM   25  O1  UNL     1      20.723   4.363  51.292  1.00  0.00    -0.280 OA
ENDBRANCH   1  21
TORSDOF 1
ENDMDL
MODEL 4
REMARK VINA RESULT:      -8.2      2.004      2.585
REMARK  1 active torsions:
REMARK  status: ('A' for Active; 'I' for Inactive)
REMARK       I    between atoms: N1_1  and  C1_2 
REMARK    1  A    between atoms: C1_2  and  C2_4 
ROOT
HETATM    1  C2  UNL     1      25.313  -0.178  53.433  1.00  0.00     0.082 C 
HETATM    2  C3  UNL     1      26.439  -0.823  52.654  1.00  0.00     0.014 C 
HETATM    3  C4  UNL     1      26.661   0.065  51.441  1.00  0.00     0.002 C 
HETATM    4  C5  UNL     1      26.243   1.397  52.025  1.00  0.00     0.012 C 
HETATM    5  C6  UNL     1      24.916   0.953  52.720  1.00  0.00    -0.009 A 
HETATM    6  C7  UNL     1      23.865   0.869  51.654  1.00  0.00     0.009 A 
HETATM    7  C8  UNL     1      22.674   1.169  51.008  1.00  0.00     0.015 A 
HETATM    8  C9  UNL     1      21.403   1.667  51.213  1.00  0.00     0.030 A 
HETATM    9  C10 UNL     1      21.301   1.962  52.539  1.00  0.00     0.033 A 
HETATM   10  C11 UNL     1      22.590   1.587  53.022  1.00  0.00    -0.067 A 
HETATM   11  C12 UNL     1      23.784   1.211  53.320  1.00  0.00     0.038 A 
HETATM   12  C13 UNL     1      24.108   2.173  53.011  1.00  0.00     0.026 A 
HETATM   13  C14 UNL     1      24.427   3.460  53.447  1.00  0.00     0.014 C 
HETATM   14  C15 UNL     1      23.517   4.579  52.955  1.00  0.00     0.029 C 
HETATM   15  C16 UNL     1      23.413   4.552  51.439  1.00  0.00    -0.007 C 
HETATM   16  C17 UNL     1      22.381   4.354  50.620  1.00  0.00     0.114 C 
HETATM   17  N2  UNL     1      21.308   4.148  49.678  1.00  0.00    -0.256 NA
HETATM   18  C18 UNL     1      20.789   2.974  49.468  1.00  0.00     0.207 C 
HETATM   19  N3  UNL     1      20.917   1.624  49.896  1.00  0.00    -0.351 N 
HETATM   20  H21 UNL     1      20.712   0.799  49.364  1.00  0.00     0.166 HD
ENDROOT
BRANCH   1  21
HETATM   21  C1  UNL     1      25.737  -0.068  54.845  1.00  0.00     0.200 C 
HETATM   22  N1  UNL     1      25.166  -1.088  55.657  1.00  0.00    -0.272 NA
HETATM   23  H1  UNL     1      25.006  -1.870  56.324  1.00  0.00     0.127 HD
HETATM   24  H2  UNL     1      24.982  -1.869  56.321  1.00  0.00     0.127 HD
HETATM   25  O1  UNL     1      26.514   0.827  55.276  1.00  0.00    -0.280 OA
ENDBRANCH   1  21
TORSDOF 1
ENDMDL
MODEL 5
REMARK VINA RESULT:      -8.1      3.113      4.772
REMARK  1 active torsions:
REMARK  status: ('A' for Active; 'I' for Inactive)
REMARK       I    between atoms: N1_1  and  C1_2 
REMARK    1  A    between atoms: C1_2  and  C2_4 
ROOT
HETATM    1  C2  UNL     1      21.282   0.783  52.816  1.00  0.00     0.082 C 
HETATM    2  C3  UNL     1      20.123   0.355  51.941  1.00  0.00     0.014 C 
HETATM    3  C4  UNL     1      20.479   0.810  50.536  1.00  0.00     0.002 C 
HETATM    4  C5  UNL     1      21.988   0.725  50.619  1.00  0.00     0.012 C 
HETATM    5  C6  UNL     1      22.197   1.439  51.993  1.00  0.00    -0.009 A 
HETATM    6  C7  UNL     1      22.098   2.914  51.744  1.00  0.00     0.009 A 
HETATM    7  C8  UNL     1      22.518   4.237  51.719  1.00  0.00     0.015 A 
HETATM    8  C9  UNL     1      23.408   5.122  52.294  1.00  0.00     0.030 A 
HETATM    9  C10 UNL     1      24.119   4.424  53.223  1.00  0.00     0.033 A 
HETATM   10  C11 UNL     1      23.551   3.121  53.108  1.00  0.00    -0.067 A 
HETATM   11  C12 UNL     1      22.951   2.001  52.900  1.00  0.00     0.038 A 
HETATM   12  C13 UNL     1      23.627   1.848  52.096  1.00  0.00     0.026 A 
HETATM   13  C14 UNL     1      24.832   1.251  51.721  1.00  0.00     0.014 C 
HETATM   14  C15 UNL     1      25.957   2.199  51.326  1.00  0.00     0.029 C 
HETATM   15  C16 UNL     1      25.488   3.156  50.241  1.00  0.00    -0.007 C 
HETATM   16  C17 UNL     1      25.359   4.481  50.219  1.00  0.00     0.114 C 
HETATM   17  N2  UNL     1      25.195   5.912  50.127  1.00  0.00    -0.256 NA
HETATM   18  C18 UNL     1      24.223   6.536  50.724  1.00  0.00     0.207 C 
HETATM   19  N3  UNL     1      23.100   6.278  51.558  1.00  0.00    -0.351 N 
HETATM   20  H21 UNL     1      22.250   6.807  51.607  1.00  0.00     0.166 HD
ENDROOT
BRANCH   1  21
HETATM   21  C1  UNL     1      21.698  -0.381  53.627  1.00  0.00     0.200 C 
HETATM   22  N1  UNL     1      21.109  -0.368  54.923  1.00  0.00    -0.272 NA
HETATM   23  H1  UNL     1      20.609  -0.612  55.802  1.00  0.00     0.127 HD
HETATM   24  H2  UNL     1      20.614  -0.590  55.812  1.00  0.00     0.127 HD
HETATM   25  O1  UNL     1      22.482  -1.278  53.215  1.00  0.00    -0.280 OA
ENDBRANCH   1  21
TORSDOF 1
ENDMDL
MODEL 6
REMARK VINA RESULT:      -7.9      2.459      4.321
REMARK  1 active torsions:
REMARK  status: ('A' for Active; 'I' for Inactive)
REMARK       I    between atoms: N1_1  and  C1_2 
REMARK    1  A    between atoms: C1_2  and  C2_4 
ROOT
HETATM    1  C2  UNL     1      25.683   2.589  50.181  1.00  0.00     0.082 C 
HETATM    2  C3  UNL     1      26.605   3.588  49.516  1.00  0.00     0.014 C 
HETATM    3  C4  UNL     1      25.757   4.823  49.260  1.00  0.00     0.002 C 
HETATM    4  C5  UNL     1      24.783   4.702  50.412  1.00  0.00     0.012 C 
HETATM    5  C6  UNL     1      24.427   3.187  50.273  1.00  0.00    -0.009 A 
HETATM    6  C7  UNL     1      23.428   3.069  49.161  1.00  0.00     0.009 A 
HETATM    7  C8  UNL     1      22.220   2.750  48.557  1.00  0.00     0.015 A 
HETATM    8  C9  UNL     1      21.108   1.940  48.675  1.00  0.00     0.030 A 
HETATM    9  C10 UNL     1      21.284   1.184  49.794  1.00  0.00     0.033 A 
HETATM   10  C11 UNL     1      22.554   1.639  50.259  1.00  0.00    -0.067 A 
HETATM   11  C12 UNL     1      23.700   2.140  50.562  1.00  0.00     0.038 A 
HETATM   12  C13 UNL     1      23.171   2.929  51.035  1.00  0.00     0.026 A 
HETATM   13  C14 UNL     1      22.669   3.391  52.253  1.00  0.00     0.014 C 
HETATM   14  C15 UNL     1      21.152   3.496  52.357  1.00  0.00     0.029 C 
HETATM   15  C16 UNL     1      20.597   4.329  51.213  1.00  0.00    -0.007 C 
HETATM   16  C17 UNL     1      19.769   4.029  50.213  1.00  0.00     0.114 C 
HETATM   17  N2  UNL     1      18.879   3.773  49.107  1.00  0.00    -0.256 NA
HETATM   18  C18 UNL     1      19.246   3.080  48.070  1.00  0.00     0.207 C 
HETATM   19  N3  UNL     1      20.376   2.380  47.560  1.00  0.00    -0.351 N 
HETATM   20  H21 UNL     1      20.612   2.236  46.597  1.00  0.00     0.166 HD
ENDROOT
BRANCH   1  21
HETATM   21  C1  UNL     1      26.361   2.073  51.389  1.00  0.00     0.200 C 
HETATM   22  N1  UNL     1      27.449   2.901  51.787  1.00  0.00    -0.272 NA
HETATM   23  H1  UNL     1      28.119   3.495  52.317  1.00  0.00     0.127 HD
HETATM   24  H2  UNL     1      28.134   3.497  52.297  1.00  0.00     0.127 HD
HETATM   25  O1  UNL     1      26.013   1.023  51.995  1.00  0.00    -0.280 OA
ENDBRANCH   1  21
TORSDOF 1
ENDMDL
MODEL 7
REMARK VINA RESULT:      -7.7      3.523      4.997
REMARK  1 active torsions:
REMARK  status: ('A' for Active; 'I' for Inactive)
REMARK       I    between atoms: N1_1  and  C1_2 
REMARK    1  A    between atoms: C1_2  and  C2_4 
ROOT
HETATM    1  C2  UNL     1      22.464  -0.228  53.144  1.00  0.00     0.082 C 
HETATM    2  C3  UNL     1      23.912  -0.311  53.579  1.00  0.00     0.014 C 
HETATM    3  C4  UNL     1      24.558   0.979  53.103  1.00  0.00     0.002 C 
HETATM    4  C5  UNL     1      23.359   1.900  53.168  1.00  0.00     0.012 C 
HETATM    5  C6  UNL     1      22.307   0.980  52.467  1.00  0.00    -0.009 A 
HETATM    6  C7  UNL     1      22.549   1.079  50.990  1.00  0.00     0.009 A 
HETATM    7  C8  UNL     1      22.251   1.348  49.662  1.00  0.00     0.015 A 
HETATM    8  C9  UNL     1      21.204   1.476  48.771  1.00  0.00     0.030 A 
HETATM    9  C10 UNL     1      20.057   1.246  49.470  1.00  0.00     0.033 A 
HETATM   10  C11 UNL     1      20.559   0.987  50.779  1.00  0.00    -0.067 A 
HETATM   11  C12 UNL     1      21.146   0.773  51.905  1.00  0.00     0.038 A 
HETATM   12  C13 UNL     1      21.157   1.826  52.039  1.00  0.00     0.026 A 
HETATM   13  C14 UNL     1      20.485   2.906  52.616  1.00  0.00     0.014 C 
HETATM   14  C15 UNL     1      19.892   3.922  51.648  1.00  0.00     0.029 C 
HETATM   15  C16 UNL     1      20.956   4.423  50.685  1.00  0.00    -0.007 C 
HETATM   16  C17 UNL     1      21.073   4.333  49.362  1.00  0.00     0.114 C 
HETATM   17  N2  UNL     1      21.262   4.270  47.932  1.00  0.00    -0.256 NA
HETATM   18  C18 UNL     1      21.613   3.174  47.328  1.00  0.00     0.207 C 
HETATM   19  N3  UNL     1      21.921   1.814  47.611  1.00  0.00    -0.351 N 
HETATM   20  H21 UNL     1      22.535   1.214  47.095  1.00  0.00     0.166 HD
ENDROOT
BRANCH   1  21
HETATM   21  C1  UNL     1      21.617  -0.553  54.311  1.00  0.00     0.200 C 
HETATM   22  N1  UNL     1      21.560  -1.953  54.560  1.00  0.00    -0.272 NA
HETATM   23  H1  UNL     1      21.586  -2.899  54.992  1.00  0.00     0.127 HD
HETATM   24  H2  UNL     1      21.579  -2.910  54.971  1.00  0.00     0.127 HD
HETATM   25  O1  UNL     1      21.016   0.313  55.004  1.00  0.00    -0.280 OA
ENDBRANCH   1  21
TORSDOF 1
ENDMDL
MODEL 8
REMARK VINA RESULT:      -7.7      2.828      4.326
REMARK  1 active torsions:
REMARK  status: ('A' for Active; 'I' for Inactive)
REMARK       I    between atoms: N1_1  and  C1_2 
REMARK    1  A    between atoms: C1_2  and  C2_4 
ROOT
HETATM    1  C2  UNL     1      24.709   0.458  52.751  1.00  0.00     0.082 C 
HETATM    2  C3  UNL     1      25.744   0.097  53.795  1.00  0.00     0.014 C 
HETATM    3  C4  UNL     1      26.379   1.412  54.216  1.00  0.00     0.002 C 
HETATM    4  C5  UNL     1      25.205   2.341  53.991  1.00  0.00     0.012 C 
HETATM    5  C6  UNL     1      24.765   1.840  52.578  1.00  0.00    -0.009 A 
HETATM    6  C7  UNL     1      25.697   2.460  51.580  1.00  0.00     0.009 A 
HETATM    7  C8  UNL     1      26.071   3.227  50.487  1.00  0.00     0.015 A 
HETATM    8  C9  UNL     1      25.602   3.765  49.304  1.00  0.00     0.030 A 
HETATM    9  C10 UNL     1      24.297   3.391  49.187  1.00  0.00     0.033 A 
HETATM   10  C11 UNL     1      24.106   2.621  50.373  1.00  0.00    -0.067 A 
HETATM   11  C12 UNL     1      24.074   1.956  51.475  1.00  0.00     0.038 A 
HETATM   12  C13 UNL     1      23.887   2.879  51.965  1.00  0.00     0.026 A 
HETATM   13  C14 UNL     1      22.892   3.719  52.466  1.00  0.00     0.014 C 
HETATM   14  C15 UNL     1      22.742   5.069  51.775  1.00  0.00     0.029 C 
HETATM   15  C16 UNL     1      24.075   5.799  51.741  1.00  0.00    -0.007 C 
HETATM   16  C17 UNL     1      24.847   6.198  50.732  1.00  0.00     0.114 C 
HETATM   17  N2  UNL     1      25.730   6.655  49.686  1.00  0.00    -0.256 NA
HETATM   18  C18 UNL     1      26.466   5.836  48.995  1.00  0.00     0.207 C 
HETATM   19  N3  UNL     1      26.754   4.448  48.882  1.00  0.00    -0.351 N 
HETATM   20  H21 UNL     1      27.612   4.033  48.572  1.00  0.00     0.166 HD
ENDROOT
BRANCH   1  21
HETATM   21  C1  UNL     1      23.438  -0.204  53.119  1.00  0.00     0.200 C 
HETATM   22  N1  UNL     1      23.485  -0.765  54.426  1.00  0.00    -0.272 NA
HETATM   23  H1  UNL     1      23.290  -1.034  55.412  1.00  0.00     0.127 HD
HETATM   24  H2  UNL     1      23.310  -1.049  55.412  1.00  0.00     0.127 HD
HETATM   25  O1  UNL     1      22.433  -0.262  52.360  1.00  0.00    -0.280 OA
ENDBRANCH   1  21
TORSDOF 1
ENDMDL
MODEL 9
REMARK VINA RESULT:      -7.7      2.870      5.108
REMARK  1 active torsions:
REMARK  status: ('A' for Active; 'I' for Inactive)
REMARK       I    between atoms: N1_1  and  C1_2 
REMARK    1  A    between atoms: C1_2  and  C2_4 
ROOT
HETATM    1  C2  UNL     1      23.179   4.067  50.910  1.00  0.00     0.082 C 
HETATM    2  C3  UNL     1      23.091   5.388  51.645  1.00  0.00     0.014 C 
HETATM    3  C4  UNL     1      23.234   5.048  53.118  1.00  0.00     0.002 C 
HETATM    4  C5  UNL     1      24.106   3.816  53.009  1.00  0.00     0.012 C 
HETATM    5  C6  UNL     1      23.334   3.070  51.874  1.00  0.00    -0.009 A 
HETATM    6  C7  UNL     1      22.145   2.412  52.506  1.00  0.00     0.009 A 
HETATM    7  C8  UNL     1      21.312   1.368  52.880  1.00  0.00     0.015 A 
HETATM    8  C9  UNL     1      20.952   0.074  52.557  1.00  0.00     0.030 A 
HETATM    9  C10 UNL     1      21.694  -0.286  51.473  1.00  0.00     0.033 A 
HETATM   10  C11 UNL     1      22.463   0.892  51.240  1.00  0.00    -0.067 A 
HETATM   11  C12 UNL     1      23.087   2.014  51.145  1.00  0.00     0.038 A 
HETATM   12  C13 UNL     1      23.760   1.642  51.877  1.00  0.00     0.026 A 
HETATM   13  C14 UNL     1      24.984   1.000  52.075  1.00  0.00     0.014 C 
HETATM   14  C15 UNL     1      24.920  -0.387  52.703  1.00  0.00     0.029 C 
HETATM   15  C16 UNL     1      24.136  -0.344  54.005  1.00  0.00    -0.007 C 
HETATM   16  C17 UNL     1      23.000  -0.931  54.380  1.00  0.00     0.114 C 
HETATM   17  N2  UNL     1      21.776  -1.533  54.850  1.00  0.00    -0.256 NA
HETATM   18  C18 UNL     1      20.608  -1.131  54.444  1.00  0.00     0.207 C 
HETATM   19  N3  UNL     1      20.016  -0.172  53.576  1.00  0.00    -0.351 N 
HETATM   20  H21 UNL     1      19.115   0.255  53.672  1.00  0.00     0.166 HD
ENDROOT
BRANCH   1  21
HETATM   21  C1  UNL     1      24.164   4.216  49.817  1.00  0.00     0.200 C 
HETATM   22  N1  UNL     1      23.536   4.409  48.554  1.00  0.00    -0.272 NA
HETATM   23  H1  UNL     1      23.246   4.762  47.619  1.00  0.00     0.127 HD
HETATM   24  H2  UNL     1      23.230   4.743  47.616  1.00  0.00     0.127 HD
HETATM   25  O1  UNL     1      25.413   4.177  49.987  1.00  0.00    -0.280 OA
ENDBRANCH   1  21
TORSDOF 1
ENDMDL
