MODEL 1
REMARK VINA RESULT:      -8.1      0.000      0.000
REMARK  5 active torsions:
REMARK  status: ('A' for Active; 'I' for Inactive)
REMARK    1  A    between atoms: C2_2  and  C3_3 
REMARK       I    between atoms: C3_3  and  N1_5 
REMARK    2  A    between atoms: N1_5  and  C4_6 
REMARK    3  A    between atoms: C9_13  and  N4_14 
REMARK    4  A    between atoms: N4_14  and  C10_15 
REMARK    5  A    between atoms: C14_19  and  P1_20 
ROOT
HETATM    1  C4  UNL     1      25.090  -0.727  54.305  1.00  0.00     0.036 A 
HETATM    2  C5  UNL     1      24.442  -1.341  55.357  1.00  0.00     0.032 A 
HETATM    3  C6  UNL     1      23.065  -1.289  55.397  1.00  0.00     0.035 A 
HETATM    4  C7  UNL     1      22.355  -0.638  54.408  1.00  0.00     0.072 A 
HETATM    5  N2  UNL     1      21.029  -0.645  54.536  1.00  0.00    -0.241 NA
HETATM    6  C8  UNL     1      20.279  -0.035  53.617  1.00  0.00     0.236 A 
HETATM    7  N3  UNL     1      20.902   0.548  52.617  1.00  0.00    -0.224 NA
HETATM    8  C9  UNL     1      22.214   0.620  52.384  1.00  0.00     0.142 A 
HETATM    9  C16 UNL     1      22.958  -0.011  53.339  1.00  0.00     0.041 A 
HETATM   10  C17 UNL     1      24.324  -0.094  53.349  1.00  0.00     0.047 A 
ENDROOT
BRANCH   8  11
HETATM   11  N4  UNL     1      22.864   1.253  51.301  1.00  0.00    -0.340 N 
HETATM   12  H8  UNL     1      23.085   0.746  50.425  1.00  0.00     0.167 HD
BRANCH  11  13
HETATM   13  C10 UNL     1      23.310   2.596  51.190  1.00  0.00     0.034 A 
HETATM   14  C11 UNL     1      22.709   3.687  51.799  1.00  0.00     0.029 A 
HETATM   15  C12 UNL     1      23.159   4.977  51.676  1.00  0.00     0.003 A 
HETATM   16  C13 UNL     1      24.258   5.262  50.923  1.00  0.00     0.012 A 
HETATM   17  C14 UNL     1      24.888   4.205  50.299  1.00  0.00    -0.035 A 
HETATM   18  C15 UNL     1      24.400   2.926  50.450  1.00  0.00     0.041 A 
BRANCH  17  19
HETATM   19  P1  UNL     1      26.363   4.636  49.296  1.00  0.00    -0.106 P 
HETATM   20  H12 UNL     1      26.765   6.005  49.499  1.00  0.00     0.059 HD
HETATM   21  H13 UNL     1      27.441   3.684  49.466  1.00  0.00     0.059 HD
ENDBRANCH  17  19
ENDBRANCH  11  13
ENDBRANCH   8  11
BRANCH   1  22
HETATM   22  N1  UNL     1      26.515  -0.764  54.236  1.00  0.00    -0.324 N 
HETATM   23  C3  UNL     1      27.436   0.253  54.609  1.00  0.00     0.244 C 
HETATM   24  O1  UNL     1      26.815   1.257  55.033  1.00  0.00    -0.268 OA
HETATM   25  H4  UNL     1      26.743  -1.709  53.850  1.00  0.00     0.169 HD
BRANCH  23  26
HETATM   26  C2  UNL     1      28.849  -0.032  54.443  1.00  0.00     0.064 C 
HETATM   27  C1  UNL     1      29.439  -0.920  53.668  1.00  0.00     0.017 C 
ENDBRANCH  23  26
ENDBRANCH   1  22
TORSDOF 5
ENDMDL
MODEL 2
REMARK VINA RESULT:      -7.7      2.401      5.116
REMARK  5 active torsions:
REMARK  status: ('A' for Active; 'I' for Inactive)
REMARK    1  A    between atoms: C2_2  and  C3_3 
REMARK       I    between atoms: C3_3  and  N1_5 
REMARK    2  A    between atoms: N1_5  and  C4_6 
REMARK    3  A    between atoms: C9_13  and  N4_14 
REMARK    4  A    between atoms: N4_14  and  C10_15 
REMARK    5  A    between atoms: C14_19  and  P1_20 
ROOT
HETATM    1  C4  UNL     1      24.442  -0.211  53.606  1.00  0.00     0.036 A 
HETATM    2  C5  UNL     1      25.077  -0.553  54.781  1.00  0.00     0.032 A 
HETATM    3  C6  UNL     1      26.328  -0.029  55.025  1.00  0.00     0.035 A 
HETATM    4  C7  UNL     1      26.928   0.817  54.113  1.00  0.00     0.072 A 
HETATM    5  N2  UNL     1      28.137   1.271  54.440  1.00  0.00    -0.241 NA
HETATM    6  C8  UNL     1      28.776   2.093  53.606  1.00  0.00     0.236 A 
HETATM    7  N3  UNL     1      28.165   2.415  52.487  1.00  0.00    -0.224 NA
HETATM    8  C9  UNL     1      26.964   2.026  52.055  1.00  0.00     0.142 A 
HETATM    9  C16 UNL     1      26.332   1.186  52.926  1.00  0.00     0.041 A 
HETATM   10  C17 UNL     1      25.093   0.638  52.736  1.00  0.00     0.047 A 
ENDROOT
BRANCH   8  11
HETATM   11  N4  UNL     1      26.325   2.385  50.847  1.00  0.00    -0.340 N 
HETATM   12  H8  UNL     1      25.849   1.683  50.251  1.00  0.00     0.167 HD
BRANCH  11  13
HETATM   13  C10 UNL     1      26.207   3.666  50.246  1.00  0.00     0.034 A 
HETATM   14  C11 UNL     1      27.032   4.154  49.245  1.00  0.00     0.029 A 
HETATM   15  C12 UNL     1      26.900   5.397  48.680  1.00  0.00     0.003 A 
HETATM   16  C13 UNL     1      25.915   6.245  49.089  1.00  0.00     0.012 A 
HETATM   17  C14 UNL     1      25.070   5.800  50.084  1.00  0.00    -0.035 A 
HETATM   18  C15 UNL     1      25.241   4.543  50.622  1.00  0.00     0.041 A 
BRANCH  17  19
HETATM   19  P1  UNL     1      23.759   6.975  50.603  1.00  0.00    -0.106 P 
HETATM   20  H12 UNL     1      22.569   6.835  49.802  1.00  0.00     0.059 HD
HETATM   21  H13 UNL     1      23.507   6.923  52.028  1.00  0.00     0.059 HD
ENDBRANCH  17  19
ENDBRANCH  11  13
ENDBRANCH   8  11
BRANCH   1  22
HETATM   22  N1  UNL     1      23.146  -0.739  53.326  1.00  0.00    -0.324 N 
HETATM   23  C3  UNL     1      21.895  -0.065  53.381  1.00  0.00     0.244 C 
HETATM   24  O1  UNL     1      22.068   1.129  53.726  1.00  0.00    -0.268 OA
HETATM   25  H4  UNL     1      23.310  -1.740  53.069  1.00  0.00     0.169 HD
BRANCH  23  26
HETATM   26  C2  UNL     1      20.708  -0.830  53.046  1.00  0.00     0.064 C 
HETATM   27  C1  UNL     1      19.454  -0.432  52.957  1.00  0.00     0.017 C 
ENDBRANCH  23  26
ENDBRANCH   1  22
TORSDOF 5
ENDMDL
MODEL 3
REMARK VINA RESULT:      -7.7      2.743      4.169
REMARK  5 active torsions:
REMARK  status: ('A' for Active; 'I' for Inactive)
REMARK    1  A    between atoms: C2_2  and  C3_3 
REMARK       I    between atoms: C3_3  and  N1_5 
REMARK    2  A    between atoms: N1_5  and  C4_6 
REMARK    3  A    between atoms: C9_13  and  N4_14 
REMARK    4  A    between atoms: N4_14  and  C10_15 
REMARK    5  A    between atoms: C14_19  and  P1_20 
ROOT
HETATM    1  C4  UNL     1      26.224   1.225  52.550  1.00  0.00     0.036 A 
HETATM    2  C5  UNL     1      25.104   1.009  53.327  1.00  0.00     0.032 A 
HETATM    3  C6  UNL     1      23.933   1.645  52.977  1.00  0.00     0.035 A 
HETATM    4  C7  UNL     1      23.883   2.476  51.876  1.00  0.00     0.072 A 
HETATM    5  N2  UNL     1      22.705   3.043  51.620  1.00  0.00    -0.241 NA
HETATM    6  C8  UNL     1      22.584   3.858  50.572  1.00  0.00     0.236 A 
HETATM    7  N3  UNL     1      23.654   4.061  49.835  1.00  0.00    -0.224 NA
HETATM    8  C9  UNL     1      24.878   3.552  49.992  1.00  0.00     0.142 A 
HETATM    9  C16 UNL     1      24.975   2.722  51.071  1.00  0.00     0.041 A 
HETATM   10  C17 UNL     1      26.110   2.066  51.464  1.00  0.00     0.047 A 
ENDROOT
BRANCH   8  11
HETATM   11  N4  UNL     1      26.017   3.783  49.187  1.00  0.00    -0.340 N 
HETATM   12  H8  UNL     1      26.468   3.022  48.649  1.00  0.00     0.167 HD
BRANCH  11  13
HETATM   13  C10 UNL     1      26.719   4.996  48.964  1.00  0.00     0.034 A 
HETATM   14  C11 UNL     1      28.007   5.089  48.458  1.00  0.00     0.029 A 
HETATM   15  C12 UNL     1      28.666   6.274  48.251  1.00  0.00     0.003 A 
HETATM   16  C13 UNL     1      28.068   7.462  48.543  1.00  0.00     0.012 A 
HETATM   17  C14 UNL     1      26.785   7.418  49.049  1.00  0.00    -0.035 A 
HETATM   18  C15 UNL     1      26.163   6.204  49.240  1.00  0.00     0.041 A 
BRANCH  17  19
HETATM   19  P1  UNL     1      26.020   9.042  49.427  1.00  0.00    -0.106 P 
HETATM   20  H12 UNL     1      25.519   9.095  50.778  1.00  0.00     0.059 HD
HETATM   21  H13 UNL     1      26.888  10.151  49.088  1.00  0.00     0.059 HD
ENDBRANCH  17  19
ENDBRANCH  11  13
ENDBRANCH   8  11
BRANCH   1  22
HETATM   22  N1  UNL     1      27.451   0.581  52.888  1.00  0.00    -0.324 N 
HETATM   23  C3  UNL     1      28.525   1.094  53.666  1.00  0.00     0.244 C 
HETATM   24  O1  UNL     1      28.256   2.259  54.050  1.00  0.00    -0.268 OA
HETATM   25  H4  UNL     1      27.395  -0.362  52.438  1.00  0.00     0.169 HD
BRANCH  23  26
HETATM   26  C2  UNL     1      29.675   0.234  53.870  1.00  0.00     0.064 C 
HETATM   27  C1  UNL     1      29.836  -1.037  53.556  1.00  0.00     0.017 C 
ENDBRANCH  23  26
ENDBRANCH   1  22
TORSDOF 5
ENDMDL
MODEL 4
REMARK VINA RESULT:      -7.5      1.823      4.785
REMARK  5 active torsions:
REMARK  status: ('A' for Active; 'I' for Inactive)
REMARK    1  A    between atoms: C2_2  and  C3_3 
REMARK       I    between atoms: C3_3  and  N1_5 
REMARK    2  A    between atoms: N1_5  and  C4_6 
REMARK    3  A    between atoms: C9_13  and  N4_14 
REMARK    4  A    between atoms: N4_14  and  C10_15 
REMARK    5  A    between atoms: C14_19  and  P1_20 
ROOT
HETATM    1  C4  UNL     1      22.576  -0.876  53.853  1.00  0.00     0.036 A 
HETATM    2  C5  UNL     1      22.943  -1.480  55.037  1.00  0.00     0.032 A 
HETATM    3  C6  UNL     1      24.233  -1.302  55.490  1.00  0.00     0.035 A 
HETATM    4  C7  UNL     1      25.132  -0.537  54.774  1.00  0.00     0.072 A 
HETATM    5  N2  UNL     1      26.353  -0.425  55.296  1.00  0.00    -0.241 NA
HETATM    6  C8  UNL     1      27.274   0.299  54.658  1.00  0.00     0.236 A 
HETATM    7  N3  UNL     1      26.918   0.873  53.529  1.00  0.00    -0.224 NA
HETATM    8  C9  UNL     1      25.734   0.832  52.914  1.00  0.00     0.142 A 
HETATM    9  C16 UNL     1      24.811   0.085  53.587  1.00  0.00     0.041 A 
HETATM   10  C17 UNL     1      23.520  -0.124  53.185  1.00  0.00     0.047 A 
ENDROOT
BRANCH   8  11
HETATM   11  N4  UNL     1      25.372   1.457  51.699  1.00  0.00    -0.340 N 
HETATM   12  H8  UNL     1      25.377   0.945  50.799  1.00  0.00     0.167 HD
BRANCH  11  13
HETATM   13  C10 UNL     1      24.961   2.797  51.474  1.00  0.00     0.034 A 
HETATM   14  C11 UNL     1      23.935   3.440  52.150  1.00  0.00     0.029 A 
HETATM   15  C12 UNL     1      23.555   4.736  51.914  1.00  0.00     0.003 A 
HETATM   16  C13 UNL     1      24.189   5.485  50.969  1.00  0.00     0.012 A 
HETATM   17  C14 UNL     1      25.217   4.885  50.271  1.00  0.00    -0.035 A 
HETATM   18  C15 UNL     1      25.564   3.580  50.542  1.00  0.00     0.041 A 
BRANCH  17  19
HETATM   19  P1  UNL     1      26.041   5.932  49.008  1.00  0.00    -0.106 P 
HETATM   20  H12 UNL     1      26.310   5.196  47.799  1.00  0.00     0.059 HD
HETATM   21  H13 UNL     1      25.339   7.178  48.784  1.00  0.00     0.059 HD
ENDBRANCH  17  19
ENDBRANCH  11  13
ENDBRANCH   8  11
BRANCH   1  22
HETATM   22  N1  UNL     1      21.247  -1.042  53.359  1.00  0.00    -0.324 N 
HETATM   23  C3  UNL     1      20.105  -0.241  53.630  1.00  0.00     0.244 C 
HETATM   24  O1  UNL     1      20.415   0.695  54.407  1.00  0.00    -0.268 OA
HETATM   25  H4  UNL     1      21.291  -1.890  52.746  1.00  0.00     0.169 HD
BRANCH  23  26
HETATM   26  C2  UNL     1      18.855  -0.622  52.999  1.00  0.00     0.064 C 
HETATM   27  C1  UNL     1      17.957  -1.504  53.387  1.00  0.00     0.017 C 
ENDBRANCH  23  26
ENDBRANCH   1  22
TORSDOF 5
ENDMDL
MODEL 5
REMARK VINA RESULT:      -7.4      2.070      3.003
REMARK  5 active torsions:
REMARK  status: ('A' for Active; 'I' for Inactive)
REMARK    1  A    between atoms: C2_2  and  C3_3 
REMARK       I    between atoms: C3_3  and  N1_5 
REMARK    2  A    between atoms: N1_5  and  C4_6 
REMARK    3  A    between atoms: C9_13  and  N4_14 
REMARK    4  A    between atoms: N4_14  and  C10_15 
REMARK    5  A    between atoms: C14_19  and  P1_20 
ROOT
HETATM    1  C4  UNL     1      24.980   0.929  53.393  1.00  0.00     0.036 A 
HETATM    2  C5  UNL     1      24.000  -0.040  53.443  1.00  0.00     0.032 A 
HETATM    3  C6  UNL     1      22.720   0.306  53.066  1.00  0.00     0.035 A 
HETATM    4  C7  UNL     1      22.430   1.589  52.649  1.00  0.00     0.072 A 
HETATM    5  N2  UNL     1      21.164   1.823  52.305  1.00  0.00    -0.241 NA
HETATM    6  C8  UNL     1      20.812   3.042  51.893  1.00  0.00     0.236 A 
HETATM    7  N3  UNL     1      21.751   3.961  51.848  1.00  0.00    -0.224 NA
HETATM    8  C9  UNL     1      23.042   3.845  52.166  1.00  0.00     0.142 A 
HETATM    9  C16 UNL     1      23.375   2.590  52.584  1.00  0.00     0.041 A 
HETATM   10  C17 UNL     1      24.627   2.192  52.969  1.00  0.00     0.047 A 
ENDROOT
BRANCH   8  11
HETATM   11  N4  UNL     1      24.036   4.848  52.110  1.00  0.00    -0.340 N 
HETATM   12  H8  UNL     1      24.309   5.394  52.947  1.00  0.00     0.167 HD
BRANCH  11  13
HETATM   13  C10 UNL     1      24.805   5.281  50.998  1.00  0.00     0.034 A 
HETATM   14  C11 UNL     1      25.492   4.445  50.131  1.00  0.00     0.029 A 
HETATM   15  C12 UNL     1      26.230   4.887  49.063  1.00  0.00     0.003 A 
HETATM   16  C13 UNL     1      26.327   6.218  48.789  1.00  0.00     0.012 A 
HETATM   17  C14 UNL     1      25.659   7.087  49.626  1.00  0.00    -0.035 A 
HETATM   18  C15 UNL     1      24.930   6.597  50.687  1.00  0.00     0.041 A 
BRANCH  17  19
HETATM   19  P1  UNL     1      25.819   8.869  49.218  1.00  0.00    -0.106 P 
HETATM   20  H12 UNL     1      27.198   9.287  49.183  1.00  0.00     0.059 HD
HETATM   21  H13 UNL     1      25.074   9.230  48.030  1.00  0.00     0.059 HD
ENDBRANCH  17  19
ENDBRANCH  11  13
ENDBRANCH   8  11
BRANCH   1  22
HETATM   22  N1  UNL     1      26.315   0.600  53.778  1.00  0.00    -0.324 N 
HETATM   23  C3  UNL     1      27.319  -0.037  53.000  1.00  0.00     0.244 C 
HETATM   24  O1  UNL     1      26.871  -0.299  51.857  1.00  0.00    -0.268 OA
HETATM   25  H4  UNL     1      26.402   0.933  54.767  1.00  0.00     0.169 HD
BRANCH  23  26
HETATM   26  C2  UNL     1      28.609  -0.261  53.625  1.00  0.00     0.064 C 
HETATM   27  C1  UNL     1      29.535  -1.154  53.338  1.00  0.00     0.017 C 
ENDBRANCH  23  26
ENDBRANCH   1  22
TORSDOF 5
ENDMDL
MODEL 6
REMARK VINA RESULT:      -7.1      2.993      5.401
REMARK  5 active torsions:
REMARK  status: ('A' for Active; 'I' for Inactive)
REMARK    1  A    between atoms: C2_2  and  C3_3 
REMARK       I    between atoms: C3_3  and  N1_5 
REMARK    2  A    between atoms: N1_5  and  C4_6 
REMARK    3  A    between atoms: C9_13  and  N4_14 
REMARK    4  A    between atoms: N4_14  and  C10_15 
REMARK    5  A    between atoms: C14_19  and  P1_20 
ROOT
HETATM    1  C4  UNL     1      25.141   1.158  51.995  1.00  0.00     0.036 A 
HETATM    2  C5  UNL     1      26.227   0.507  52.542  1.00  0.00     0.032 A 
HETATM    3  C6  UNL     1      26.012  -0.344  53.605  1.00  0.00     0.035 A 
HETATM    4  C7  UNL     1      24.741  -0.538  54.106  1.00  0.00     0.072 A 
HETATM    5  N2  UNL     1      24.638  -1.380  55.134  1.00  0.00    -0.241 NA
HETATM    6  C8  UNL     1      23.439  -1.616  55.670  1.00  0.00     0.236 A 
HETATM    7  N3  UNL     1      22.407  -0.992  55.144  1.00  0.00    -0.224 NA
HETATM    8  C9  UNL     1      22.388  -0.134  54.123  1.00  0.00     0.142 A 
HETATM    9  C16 UNL     1      23.626   0.090  53.593  1.00  0.00     0.041 A 
HETATM   10  C17 UNL     1      23.897   0.922  52.541  1.00  0.00     0.047 A 
ENDROOT
BRANCH   8  11
HETATM   11  N4  UNL     1      21.266   0.526  53.573  1.00  0.00    -0.340 N 
HETATM   12  H8  UNL     1      21.252   1.552  53.431  1.00  0.00     0.167 HD
BRANCH  11  13
HETATM   13  C10 UNL     1      20.033  -0.025  53.136  1.00  0.00     0.034 A 
HETATM   14  C11 UNL     1      19.365  -1.070  53.755  1.00  0.00     0.029 A 
HETATM   15  C12 UNL     1      18.173  -1.586  53.314  1.00  0.00     0.003 A 
HETATM   16  C13 UNL     1      17.564  -1.080  52.205  1.00  0.00     0.012 A 
HETATM   17  C14 UNL     1      18.195  -0.038  51.556  1.00  0.00    -0.035 A 
HETATM   18  C15 UNL     1      19.391   0.448  52.036  1.00  0.00     0.041 A 
BRANCH  17  19
HETATM   19  P1  UNL     1      17.339   0.610  50.068  1.00  0.00    -0.106 P 
HETATM   20  H12 UNL     1      18.258   0.846  48.984  1.00  0.00     0.059 HD
HETATM   21  H13 UNL     1      16.198  -0.199  49.695  1.00  0.00     0.059 HD
ENDBRANCH  17  19
ENDBRANCH  11  13
ENDBRANCH   8  11
BRANCH   1  22
HETATM   22  N1  UNL     1      25.332   2.045  50.894  1.00  0.00    -0.324 N 
HETATM   23  C3  UNL     1      26.442   2.896  50.637  1.00  0.00     0.244 C 
HETATM   24  O1  UNL     1      27.295   2.772  51.549  1.00  0.00    -0.268 OA
HETATM   25  H4  UNL     1      24.473   1.937  50.306  1.00  0.00     0.169 HD
BRANCH  23  26
HETATM   26  C2  UNL     1      26.397   3.709  49.436  1.00  0.00     0.064 C 
HETATM   27  C1  UNL     1      27.316   4.510  48.933  1.00  0.00     0.017 C 
ENDBRANCH  23  26
ENDBRANCH   1  22
TORSDOF 5
ENDMDL
MODEL 7
REMARK VINA RESULT:      -7.1      2.941      5.690
REMARK  5 active torsions:
REMARK  status: ('A' for Active; 'I' for Inactive)
REMARK    1  A    between atoms: C2_2  and  C3_3 
REMARK       I    between atoms: C3_3  and  N1_5 
REMARK    2  A    between atoms: N1_5  and  C4_6 
REMARK    3  A    between atoms: C9_13  and  N4_14 
REMARK    4  A    between atoms: N4_14  and  C10_15 
REMARK    5  A    between atoms: C14_19  and  P1_20 
ROOT
HETATM    1  C4  UNL     1      22.662   0.891  52.280  1.00  0.00     0.036 A 
HETATM    2  C5  UNL     1      23.125  -0.010  53.216  1.00  0.00     0.032 A 
HETATM    3  C6  UNL     1      24.475  -0.034  53.490  1.00  0.00     0.035 A 
HETATM    4  C7  UNL     1      25.341   0.824  52.841  1.00  0.00     0.072 A 
HETATM    5  N2  UNL     1      26.627   0.723  53.176  1.00  0.00    -0.241 NA
HETATM    6  C8  UNL     1      27.520   1.521  52.589  1.00  0.00     0.236 A 
HETATM    7  N3  UNL     1      27.074   2.378  51.697  1.00  0.00    -0.224 NA
HETATM    8  C9  UNL     1      25.819   2.568  51.284  1.00  0.00     0.142 A 
HETATM    9  C16 UNL     1      24.926   1.740  51.899  1.00  0.00     0.041 A 
HETATM   10  C17 UNL     1      23.577   1.721  51.668  1.00  0.00     0.047 A 
ENDROOT
BRANCH   8  11
HETATM   11  N4  UNL     1      25.360   3.497  50.323  1.00  0.00    -0.340 N 
HETATM   12  H8  UNL     1      24.391   3.470  49.958  1.00  0.00     0.167 HD
BRANCH  11  13
HETATM   13  C10 UNL     1      26.062   4.567  49.709  1.00  0.00     0.034 A 
HETATM   14  C11 UNL     1      27.228   4.434  48.971  1.00  0.00     0.029 A 
HETATM   15  C12 UNL     1      27.890   5.484  48.387  1.00  0.00     0.003 A 
HETATM   16  C13 UNL     1      27.419   6.756  48.509  1.00  0.00     0.012 A 
HETATM   17  C14 UNL     1      26.260   6.936  49.236  1.00  0.00    -0.035 A 
HETATM   18  C15 UNL     1      25.630   5.851  49.804  1.00  0.00     0.041 A 
BRANCH  17  19
HETATM   19  P1  UNL     1      25.663   8.666  49.372  1.00  0.00    -0.106 P 
HETATM   20  H12 UNL     1      26.738   9.579  49.668  1.00  0.00     0.059 HD
HETATM   21  H13 UNL     1      24.863   9.062  48.232  1.00  0.00     0.059 HD
ENDBRANCH  17  19
ENDBRANCH  11  13
ENDBRANCH   8  11
BRANCH   1  22
HETATM   22  N1  UNL     1      21.269   0.939  51.976  1.00  0.00    -0.324 N 
HETATM   23  C3  UNL     1      20.636   0.701  50.725  1.00  0.00     0.244 C 
HETATM   24  O1  UNL     1      21.499   0.426  49.856  1.00  0.00    -0.268 OA
HETATM   25  H4  UNL     1      20.803   1.188  52.880  1.00  0.00     0.169 HD
BRANCH  23  26
HETATM   26  C2  UNL     1      19.190   0.811  50.675  1.00  0.00     0.064 C 
HETATM   27  C1  UNL     1      18.276   0.142  51.349  1.00  0.00     0.017 C 
ENDBRANCH  23  26
ENDBRANCH   1  22
TORSDOF 5
ENDMDL
MODEL 8
REMARK VINA RESULT:      -7.0      3.445      6.513
REMARK  5 active torsions:
REMARK  status: ('A' for Active; 'I' for Inactive)
REMARK    1  A    between atoms: C2_2  and  C3_3 
REMARK       I    between atoms: C3_3  and  N1_5 
REMARK    2  A    between atoms: N1_5  and  C4_6 
REMARK    3  A    between atoms: C9_13  and  N4_14 
REMARK    4  A    between atoms: N4_14  and  C10_15 
REMARK    5  A    between atoms: C14_19  and  P1_20 
ROOT
HETATM    1  C4  UNL     1      25.253   5.592  49.280  1.00  0.00     0.036 A 
HETATM    2  C5  UNL     1      24.177   5.938  48.489  1.00  0.00     0.032 A 
HETATM    3  C6  UNL     1      22.917   5.555  48.896  1.00  0.00     0.035 A 
HETATM    4  C7  UNL     1      22.739   4.844  50.066  1.00  0.00     0.072 A 
HETATM    5  N2  UNL     1      21.482   4.522  50.372  1.00  0.00    -0.241 NA
HETATM    6  C8  UNL     1      21.236   3.835  51.488  1.00  0.00     0.236 A 
HETATM    7  N3  UNL     1      22.266   3.509  52.238  1.00  0.00    -0.224 NA
HETATM    8  C9  UNL     1      23.558   3.773  52.035  1.00  0.00     0.142 A 
HETATM    9  C16 UNL     1      23.782   4.477  50.887  1.00  0.00     0.041 A 
HETATM   10  C17 UNL     1      25.009   4.882  50.437  1.00  0.00     0.047 A 
ENDROOT
BRANCH   8  11
HETATM   11  N4  UNL     1      24.650   3.412  52.855  1.00  0.00    -0.340 N 
HETATM   12  H8  UNL     1      25.211   4.121  53.362  1.00  0.00     0.167 HD
BRANCH  11  13
HETATM   13  C10 UNL     1      25.166   2.120  53.136  1.00  0.00     0.034 A 
HETATM   14  C11 UNL     1      24.460   0.934  52.999  1.00  0.00     0.029 A 
HETATM   15  C12 UNL     1      24.980  -0.304  53.278  1.00  0.00     0.003 A 
HETATM   16  C13 UNL     1      26.262  -0.436  53.719  1.00  0.00     0.012 A 
HETATM   17  C14 UNL     1      27.002   0.718  53.870  1.00  0.00    -0.035 A 
HETATM   18  C15 UNL     1      26.438   1.940  53.578  1.00  0.00     0.041 A 
BRANCH  17  19
HETATM   19  P1  UNL     1      28.723   0.491  54.467  1.00  0.00    -0.106 P 
HETATM   20  H12 UNL     1      28.855  -0.695  55.274  1.00  0.00     0.059 HD
HETATM   21  H13 UNL     1      29.691   0.573  53.394  1.00  0.00     0.059 HD
ENDBRANCH  17  19
ENDBRANCH  11  13
ENDBRANCH   8  11
BRANCH   1  22
HETATM   22  N1  UNL     1      26.570   5.974  48.885  1.00  0.00    -0.324 N 
HETATM   23  C3  UNL     1      27.692   5.134  48.652  1.00  0.00     0.244 C 
HETATM   24  O1  UNL     1      27.377   3.935  48.846  1.00  0.00    -0.268 OA
HETATM   25  H4  UNL     1      26.535   7.017  48.800  1.00  0.00     0.169 HD
BRANCH  23  26
HETATM   26  C2  UNL     1      28.934   5.772  48.253  1.00  0.00     0.064 C 
HETATM   27  C1  UNL     1      30.079   5.225  47.898  1.00  0.00     0.017 C 
ENDBRANCH  23  26
ENDBRANCH   1  22
TORSDOF 5
ENDMDL
MODEL 9
REMARK VINA RESULT:      -6.9      3.803      7.091
REMARK  5 active torsions:
REMARK  status: ('A' for Active; 'I' for Inactive)
REMARK    1  A    between atoms: C2_2  and  C3_3 
REMARK       I    between atoms: C3_3  and  N1_5 
REMARK    2  A    between atoms: N1_5  and  C4_6 
REMARK    3  A    between atoms: C9_13  and  N4_14 
REMARK    4  A    between atoms: N4_14  and  C10_15 
REMARK    5  A    between atoms: C14_19  and  P1_20 
ROOT
HETATM    1  C4  UNL     1      24.138   7.415  50.891  1.00  0.00     0.036 A 
HETATM    2  C5  UNL     1      22.989   7.846  50.260  1.00  0.00     0.032 A 
HETATM    3  C6  UNL     1      21.869   7.045  50.323  1.00  0.00     0.035 A 
HETATM    4  C7  UNL     1      21.899   5.843  51.000  1.00  0.00     0.072 A 
HETATM    5  N2  UNL     1      20.765   5.142  51.003  1.00  0.00    -0.241 NA
HETATM    6  C8  UNL     1      20.722   3.970  51.639  1.00  0.00     0.236 A 
HETATM    7  N3  UNL     1      21.820   3.565  52.238  1.00  0.00    -0.224 NA
HETATM    8  C9  UNL     1      23.004   4.175  52.302  1.00  0.00     0.142 A 
HETATM    9  C16 UNL     1      23.022   5.371  51.645  1.00  0.00     0.041 A 
HETATM   10  C17 UNL     1      24.103   6.205  51.551  1.00  0.00     0.047 A 
ENDROOT
BRANCH   8  11
HETATM   11  N4  UNL     1      24.174   3.721  52.953  1.00  0.00    -0.340 N 
HETATM   12  H8  UNL     1      24.852   4.378  53.379  1.00  0.00     0.167 HD
BRANCH  11  13
HETATM   13  C10 UNL     1      24.628   2.390  53.145  1.00  0.00     0.034 A 
HETATM   14  C11 UNL     1      23.863   1.251  52.943  1.00  0.00     0.029 A 
HETATM   15  C12 UNL     1      24.324  -0.026  53.136  1.00  0.00     0.003 A 
HETATM   16  C13 UNL     1      25.602  -0.249  53.551  1.00  0.00     0.012 A 
HETATM   17  C14 UNL     1      26.400   0.857  53.764  1.00  0.00    -0.035 A 
HETATM   18  C15 UNL     1      25.894   2.121  53.557  1.00  0.00     0.041 A 
BRANCH  17  19
HETATM   19  P1  UNL     1      28.113   0.508  54.322  1.00  0.00    -0.106 P 
HETATM   20  H12 UNL     1      28.924   1.700  54.331  1.00  0.00     0.059 HD
HETATM   21  H13 UNL     1      28.147  -0.224  55.571  1.00  0.00     0.059 HD
ENDBRANCH  17  19
ENDBRANCH  11  13
ENDBRANCH   8  11
BRANCH   1  22
HETATM   22  N1  UNL     1      25.314   8.222  50.843  1.00  0.00    -0.324 N 
HETATM   23  C3  UNL     1      26.401   8.134  49.932  1.00  0.00     0.244 C 
HETATM   24  O1  UNL     1      26.199   7.201  49.116  1.00  0.00    -0.268 OA
HETATM   25  H4  UNL     1      25.206   8.904  51.630  1.00  0.00     0.169 HD
BRANCH  23  26
HETATM   26  C2  UNL     1      27.488   9.081  50.093  1.00  0.00     0.064 C 
HETATM   27  C1  UNL     1      28.602   9.203  49.398  1.00  0.00     0.017 C 
ENDBRANCH  23  26
ENDBRANCH   1  22
TORSDOF 5
ENDMDL
