MODEL 1
REMARK VINA RESULT:      -8.0      0.000      0.000
REMARK  4 active torsions:
REMARK  status: ('A' for Active; 'I' for Inactive)
REMARK    1  A    between atoms: C2_2  and  O1_3 
REMARK    2  A    between atoms: C2_2  and  C3_4 
REMARK    3  A    between atoms: N1_5  and  N2_6 
REMARK    4  A    between atoms: N2_6  and  C5_8 
ROOT
HETATM    1  C5  UNL     1      25.042   1.271  52.735  1.00  0.00     0.155 A 
HETATM    2  N3  UNL     1      25.538   2.350  52.106  1.00  0.00    -0.214 NA
HETATM    3  C6  UNL     1      24.668   3.335  51.831  1.00  0.00     0.129 A 
HETATM    4  N4  UNL     1      23.348   3.299  52.147  1.00  0.00    -0.245 NA
HETATM    5  C7  UNL     1      22.863   2.209  52.780  1.00  0.00     0.129 A 
HETATM    6  C8  UNL     1      23.713   1.169  53.085  1.00  0.00     0.007 A 
HETATM    7  C9  UNL     1      23.160  -0.023  53.781  1.00  0.00     0.045 C 
HETATM    8  C10 UNL     1      21.695   0.137  54.091  1.00  0.00     0.024 C 
HETATM    9  C11 UNL     1      20.885  -0.649  53.126  1.00  0.00     0.120 C 
HETATM   10  N5  UNL     1      19.851   0.124  52.470  1.00  0.00    -0.390 N 
HETATM   11  C12 UNL     1      20.141   0.836  51.279  1.00  0.00     0.028 A 
HETATM   12  C13 UNL     1      19.712   2.141  51.139  1.00  0.00     0.031 A 
HETATM   13  C14 UNL     1      19.992   2.838  49.982  1.00  0.00     0.031 A 
HETATM   14  C15 UNL     1      20.702   2.240  48.960  1.00  0.00     0.028 A 
HETATM   15  C16 UNL     1      21.130   0.936  49.101  1.00  0.00     0.031 A 
HETATM   16  C17 UNL     1      20.850   0.235  50.259  1.00  0.00     0.031 A 
HETATM   17  N6  UNL     1      20.992   2.955  47.774  1.00  0.00    -0.388 N 
HETATM   18  C18 UNL     1      22.088   3.934  47.774  1.00  0.00     0.150 C 
HETATM   19  C19 UNL     1      22.713   3.985  49.144  1.00  0.00     0.291 C 
HETATM   20  N7  UNL     1      23.938   4.722  49.146  1.00  0.00     0.086 N 
HETATM   21  C20 UNL     1      24.025   5.766  48.170  1.00  0.00     0.310 C 
HETATM   22  C21 UNL     1      24.175   5.316  50.456  1.00  0.00     0.279 C 
HETATM   23  C22 UNL     1      25.248   4.507  51.139  1.00  0.00     0.110 C 
HETATM   24  H17 UNL     1      18.850   0.218  52.805  1.00  0.00     0.159 HD
HETATM   25  H22 UNL     1      20.464   2.827  46.872  1.00  0.00     0.159 HD
ENDROOT
BRANCH   1  26
HETATM   26  N2  UNL     1      25.972   0.235  53.024  1.00  0.00    -0.257 N 
HETATM   27  C4  UNL     1      26.438  -0.716  52.002  1.00  0.00     0.182 C 
BRANCH  26  28
HETATM   28  N1  UNL     1      26.532   0.014  54.289  1.00  0.00    -0.185 NA
HETATM   29  C3  UNL     1      27.742   0.381  54.534  1.00  0.00     0.143 C 
BRANCH  29  30
HETATM   30  C2  UNL     1      29.009   1.020  54.040  1.00  0.00     0.156 C 
HETATM   31  C1  UNL     1      29.948  -0.032  53.471  1.00  0.00     0.045 C 
BRANCH  30  32
HETATM   32  O1  UNL     1      28.708   1.949  53.039  1.00  0.00    -0.391 OA
HETATM   33  H5  UNL     1      27.806   1.781  52.690  1.00  0.00     0.210 HD
ENDBRANCH  30  32
ENDBRANCH  29  30
ENDBRANCH  26  28
ENDBRANCH   1  26
TORSDOF 4
ENDMDL
MODEL 2
REMARK VINA RESULT:      -7.7      2.302      6.105
REMARK  4 active torsions:
REMARK  status: ('A' for Active; 'I' for Inactive)
REMARK    1  A    between atoms: C2_2  and  O1_3 
REMARK    2  A    between atoms: C2_2  and  C3_4 
REMARK    3  A    between atoms: N1_5  and  N2_6 
REMARK    4  A    between atoms: N2_6  and  C5_8 
ROOT
HETATM    1  C5  UNL     1      24.272   5.632  49.454  1.00  0.00     0.155 A 
HETATM    2  N3  UNL     1      25.300   5.071  50.115  1.00  0.00    -0.214 NA
HETATM    3  C6  UNL     1      25.365   3.730  50.095  1.00  0.00     0.129 A 
HETATM    4  N4  UNL     1      24.469   2.931  49.459  1.00  0.00    -0.245 NA
HETATM    5  C7  UNL     1      23.442   3.508  48.799  1.00  0.00     0.129 A 
HETATM    6  C8  UNL     1      23.328   4.881  48.788  1.00  0.00     0.007 A 
HETATM    7  C9  UNL     1      22.189   5.497  48.057  1.00  0.00     0.045 C 
HETATM    8  C10 UNL     1      21.333   4.462  47.377  1.00  0.00     0.024 C 
HETATM    9  C11 UNL     1      20.088   4.244  48.157  1.00  0.00     0.120 C 
HETATM   10  N5  UNL     1      19.838   2.854  48.477  1.00  0.00    -0.390 N 
HETATM   11  C12 UNL     1      20.389   2.284  49.652  1.00  0.00     0.028 A 
HETATM   12  C13 UNL     1      21.003   1.049  49.592  1.00  0.00     0.031 A 
HETATM   13  C14 UNL     1      21.541   0.490  50.733  1.00  0.00     0.031 A 
HETATM   14  C15 UNL     1      21.471   1.158  51.938  1.00  0.00     0.028 A 
HETATM   15  C16 UNL     1      20.857   2.393  51.997  1.00  0.00     0.031 A 
HETATM   16  C17 UNL     1      20.316   2.955  50.856  1.00  0.00     0.031 A 
HETATM   17  N6  UNL     1      22.024   0.587  53.109  1.00  0.00    -0.388 N 
HETATM   18  C18 UNL     1      23.478   0.646  53.319  1.00  0.00     0.150 C 
HETATM   19  C19 UNL     1      24.125   1.343  52.151  1.00  0.00     0.291 C 
HETATM   20  N7  UNL     1      25.495   1.658  52.410  1.00  0.00     0.086 N 
HETATM   21  C20 UNL     1      26.170   0.768  53.304  1.00  0.00     0.310 C 
HETATM   22  C21 UNL     1      26.253   1.699  51.165  1.00  0.00     0.279 C 
HETATM   23  C22 UNL     1      26.509   3.148  50.830  1.00  0.00     0.110 C 
HETATM   24  H17 UNL     1      19.258   2.185  47.895  1.00  0.00     0.159 HD
HETATM   25  H22 UNL     1      21.451   0.115  53.854  1.00  0.00     0.159 HD
ENDROOT
BRANCH   1  26
HETATM   26  N2  UNL     1      24.215   7.052  49.480  1.00  0.00    -0.257 N 
HETATM   27  C4  UNL     1      23.670   7.801  50.624  1.00  0.00     0.182 C 
BRANCH  26  28
HETATM   28  N1  UNL     1      24.663   7.874  48.438  1.00  0.00    -0.185 NA
HETATM   29  C3  UNL     1      25.889   8.269  48.405  1.00  0.00     0.143 C 
BRANCH  29  30
HETATM   30  C2  UNL     1      27.249   8.266  49.043  1.00  0.00     0.156 C 
HETATM   31  C1  UNL     1      27.262   9.157  50.274  1.00  0.00     0.045 C 
BRANCH  30  32
HETATM   32  O1  UNL     1      27.589   6.963  49.421  1.00  0.00    -0.391 OA
HETATM   33  H5  UNL     1      28.103   6.983  50.257  1.00  0.00     0.210 HD
ENDBRANCH  30  32
ENDBRANCH  29  30
ENDBRANCH  26  28
ENDBRANCH   1  26
TORSDOF 4
ENDMDL
MODEL 3
REMARK VINA RESULT:      -7.6      2.313      5.219
REMARK  4 active torsions:
REMARK  status: ('A' for Active; 'I' for Inactive)
REMARK    1  A    between atoms: C2_2  and  O1_3 
REMARK    2  A    between atoms: C2_2  and  C3_4 
REMARK    3  A    between atoms: N1_5  and  N2_6 
REMARK    4  A    between atoms: N2_6  and  C5_8 
ROOT
HETATM    1  C5  UNL     1      24.500   2.445  50.978  1.00  0.00     0.155 A 
HETATM    2  N3  UNL     1      23.410   1.661  50.912  1.00  0.00    -0.214 NA
HETATM    3  C6  UNL     1      22.564   1.896  49.896  1.00  0.00     0.129 A 
HETATM    4  N4  UNL     1      22.748   2.859  48.956  1.00  0.00    -0.245 NA
HETATM    5  C7  UNL     1      23.848   3.638  49.033  1.00  0.00     0.129 A 
HETATM    6  C8  UNL     1      24.748   3.440  50.057  1.00  0.00     0.007 A 
HETATM    7  C9  UNL     1      25.953   4.309  50.126  1.00  0.00     0.045 C 
HETATM    8  C10 UNL     1      26.011   5.281  48.978  1.00  0.00     0.024 C 
HETATM    9  C11 UNL     1      25.601   6.632  49.438  1.00  0.00     0.120 C 
HETATM   10  N5  UNL     1      24.550   7.225  48.636  1.00  0.00    -0.390 N 
HETATM   11  C12 UNL     1      23.190   6.971  48.945  1.00  0.00     0.028 A 
HETATM   12  C13 UNL     1      22.307   6.646  47.935  1.00  0.00     0.031 A 
HETATM   13  C14 UNL     1      20.983   6.396  48.230  1.00  0.00     0.031 A 
HETATM   14  C15 UNL     1      20.532   6.469  49.532  1.00  0.00     0.028 A 
HETATM   15  C16 UNL     1      21.415   6.794  50.542  1.00  0.00     0.031 A 
HETATM   16  C17 UNL     1      22.742   7.045  50.249  1.00  0.00     0.031 A 
HETATM   17  N6  UNL     1      19.174   6.212  49.837  1.00  0.00    -0.388 N 
HETATM   18  C18 UNL     1      18.702   4.821  49.898  1.00  0.00     0.150 C 
HETATM   19  C19 UNL     1      19.845   3.890  49.588  1.00  0.00     0.291 C 
HETATM   20  N7  UNL     1      19.520   2.529  49.878  1.00  0.00     0.086 N 
HETATM   21  C20 UNL     1      18.135   2.190  49.752  1.00  0.00     0.310 C 
HETATM   22  C21 UNL     1      20.280   1.628  49.020  1.00  0.00     0.279 C 
HETATM   23  C22 UNL     1      21.376   1.015  49.854  1.00  0.00     0.110 C 
HETATM   24  H17 UNL     1      24.699   7.861  47.803  1.00  0.00     0.159 HD
HETATM   25  H22 UNL     1      18.466   6.967  50.028  1.00  0.00     0.159 HD
ENDROOT
BRANCH   1  26
HETATM   26  N2  UNL     1      25.390   2.187  52.056  1.00  0.00    -0.257 N 
HETATM   27  C4  UNL     1      25.082   2.568  53.444  1.00  0.00     0.182 C 
BRANCH  26  28
HETATM   28  N1  UNL     1      26.631   1.552  51.914  1.00  0.00    -0.185 NA
HETATM   29  C3  UNL     1      26.788   0.339  52.316  1.00  0.00     0.143 C 
BRANCH  29  30
HETATM   30  C2  UNL     1      26.190  -0.884  52.952  1.00  0.00     0.156 C 
HETATM   31  C1  UNL     1      26.873  -2.141  52.436  1.00  0.00     0.045 C 
BRANCH  30  32
HETATM   32  O1  UNL     1      26.350  -0.818  54.340  1.00  0.00    -0.391 OA
HETATM   33  H5  UNL     1      26.020   0.045  54.672  1.00  0.00     0.210 HD
ENDBRANCH  30  32
ENDBRANCH  29  30
ENDBRANCH  26  28
ENDBRANCH   1  26
TORSDOF 4
ENDMDL
MODEL 4
REMARK VINA RESULT:      -7.4      8.212     12.190
REMARK  4 active torsions:
REMARK  status: ('A' for Active; 'I' for Inactive)
REMARK    1  A    between atoms: C2_2  and  O1_3 
REMARK    2  A    between atoms: C2_2  and  C3_4 
REMARK    3  A    between atoms: N1_5  and  N2_6 
REMARK    4  A    between atoms: N2_6  and  C5_8 
ROOT
HETATM    1  C5  UNL     1      29.059   8.174  48.504  1.00  0.00     0.155 A 
HETATM    2  N3  UNL     1      29.370   6.873  48.375  1.00  0.00    -0.214 NA
HETATM    3  C6  UNL     1      30.671   6.556  48.474  1.00  0.00     0.129 A 
HETATM    4  N4  UNL     1      31.663   7.458  48.691  1.00  0.00    -0.245 NA
HETATM    5  C7  UNL     1      31.335   8.762  48.819  1.00  0.00     0.129 A 
HETATM    6  C8  UNL     1      30.015   9.141  48.726  1.00  0.00     0.007 A 
HETATM    7  C9  UNL     1      29.675  10.582  48.868  1.00  0.00     0.045 C 
HETATM    8  C10 UNL     1      30.892  11.422  49.151  1.00  0.00     0.024 C 
HETATM    9  C11 UNL     1      31.310  12.137  47.919  1.00  0.00     0.120 C 
HETATM   10  N5  UNL     1      32.704  11.941  47.577  1.00  0.00    -0.390 N 
HETATM   11  C12 UNL     1      33.092  10.835  46.778  1.00  0.00     0.028 A 
HETATM   12  C13 UNL     1      34.183  10.074  47.146  1.00  0.00     0.031 A 
HETATM   13  C14 UNL     1      34.565   8.997  46.373  1.00  0.00     0.031 A 
HETATM   14  C15 UNL     1      33.861   8.673  45.231  1.00  0.00     0.028 A 
HETATM   15  C16 UNL     1      32.771   9.435  44.864  1.00  0.00     0.031 A 
HETATM   16  C17 UNL     1      32.387  10.515  45.636  1.00  0.00     0.031 A 
HETATM   17  N6  UNL     1      34.250   7.567  44.438  1.00  0.00    -0.388 N 
HETATM   18  C18 UNL     1      33.895   6.209  44.874  1.00  0.00     0.150 C 
HETATM   19  C19 UNL     1      33.145   6.283  46.179  1.00  0.00     0.291 C 
HETATM   20  N7  UNL     1      32.553   5.029  46.526  1.00  0.00     0.086 N 
HETATM   21  C20 UNL     1      33.246   3.871  46.047  1.00  0.00     0.310 C 
HETATM   22  C21 UNL     1      32.428   4.906  47.973  1.00  0.00     0.279 C 
HETATM   23  C22 UNL     1      30.978   5.116  48.328  1.00  0.00     0.110 C 
HETATM   24  H17 UNL     1      33.503  12.568  47.876  1.00  0.00     0.159 HD
HETATM   25  H22 UNL     1      34.787   7.656  43.536  1.00  0.00     0.159 HD
ENDROOT
BRANCH   1  26
HETATM   26  N2  UNL     1      27.678   8.498  48.401  1.00  0.00    -0.257 N 
HETATM   27  C4  UNL     1      27.006   8.692  47.105  1.00  0.00     0.182 C 
BRANCH  26  28
HETATM   28  N1  UNL     1      26.827   8.663  49.501  1.00  0.00    -0.185 NA
HETATM   29  C3  UNL     1      26.148   7.665  49.950  1.00  0.00     0.143 C 
BRANCH  29  30
HETATM   30  C2  UNL     1      25.787   6.211  49.838  1.00  0.00     0.156 C 
HETATM   31  C1  UNL     1      24.859   5.982  48.656  1.00  0.00     0.045 C 
BRANCH  30  32
HETATM   32  O1  UNL     1      26.947   5.451  49.659  1.00  0.00    -0.391 OA
HETATM   33  H5  UNL     1      26.708   4.531  49.415  1.00  0.00     0.210 HD
ENDBRANCH  30  32
ENDBRANCH  29  30
ENDBRANCH  26  28
ENDBRANCH   1  26
TORSDOF 4
ENDMDL
MODEL 5
REMARK VINA RESULT:      -7.4      8.314     11.881
REMARK  4 active torsions:
REMARK  status: ('A' for Active; 'I' for Inactive)
REMARK    1  A    between atoms: C2_2  and  O1_3 
REMARK    2  A    between atoms: C2_2  and  C3_4 
REMARK    3  A    between atoms: N1_5  and  N2_6 
REMARK    4  A    between atoms: N2_6  and  C5_8 
ROOT
HETATM    1  C5  UNL     1      32.555   6.380  47.199  1.00  0.00     0.155 A 
HETATM    2  N3  UNL     1      31.412   5.932  47.746  1.00  0.00    -0.214 NA
HETATM    3  C6  UNL     1      30.281   6.540  47.352  1.00  0.00     0.129 A 
HETATM    4  N4  UNL     1      30.233   7.556  46.453  1.00  0.00    -0.245 NA
HETATM    5  C7  UNL     1      31.389   7.995  45.910  1.00  0.00     0.129 A 
HETATM    6  C8  UNL     1      32.578   7.407  46.280  1.00  0.00     0.007 A 
HETATM    7  C9  UNL     1      33.840   7.906  45.673  1.00  0.00     0.045 C 
HETATM    8  C10 UNL     1      33.587   8.997  44.667  1.00  0.00     0.024 C 
HETATM    9  C11 UNL     1      33.916  10.318  45.261  1.00  0.00     0.120 C 
HETATM   10  N5  UNL     1      32.844  11.286  45.155  1.00  0.00    -0.390 N 
HETATM   11  C12 UNL     1      31.844  11.354  46.158  1.00  0.00     0.028 A 
HETATM   12  C13 UNL     1      30.515  11.438  45.795  1.00  0.00     0.031 A 
HETATM   13  C14 UNL     1      29.538  11.503  46.767  1.00  0.00     0.031 A 
HETATM   14  C15 UNL     1      29.880  11.484  48.104  1.00  0.00     0.028 A 
HETATM   15  C16 UNL     1      31.209  11.401  48.465  1.00  0.00     0.031 A 
HETATM   16  C17 UNL     1      32.190  11.336  47.494  1.00  0.00     0.031 A 
HETATM   17  N6  UNL     1      28.879  11.549  49.102  1.00  0.00    -0.388 N 
HETATM   18  C18 UNL     1      28.107  10.341  49.426  1.00  0.00     0.150 C 
HETATM   19  C19 UNL     1      28.570   9.203  48.553  1.00  0.00     0.291 C 
HETATM   20  N7  UNL     1      28.043   7.948  48.989  1.00  0.00     0.086 N 
HETATM   21  C20 UNL     1      26.770   8.010  49.641  1.00  0.00     0.310 C 
HETATM   22  C21 UNL     1      27.923   7.026  47.866  1.00  0.00     0.279 C 
HETATM   23  C22 UNL     1      29.043   6.021  47.974  1.00  0.00     0.110 C 
HETATM   24  H17 UNL     1      32.724  11.984  44.367  1.00  0.00     0.159 HD
HETATM   25  H22 UNL     1      28.647  12.424  49.639  1.00  0.00     0.159 HD
ENDROOT
BRANCH   1  26
HETATM   26  N2  UNL     1      33.746   5.728  47.621  1.00  0.00    -0.257 N 
HETATM   27  C4  UNL     1      34.470   6.118  48.842  1.00  0.00     0.182 C 
BRANCH  26  28
HETATM   28  N1  UNL     1      34.345   4.666  46.932  1.00  0.00    -0.185 NA
HETATM   29  C3  UNL     1      33.923   3.461  47.105  1.00  0.00     0.143 C 
BRANCH  29  30
HETATM   30  C2  UNL     1      32.963   2.529  47.790  1.00  0.00     0.156 C 
HETATM   31  C1  UNL     1      32.449   1.483  46.814  1.00  0.00     0.045 C 
BRANCH  30  32
HETATM   32  O1  UNL     1      33.609   1.884  48.849  1.00  0.00    -0.391 OA
HETATM   33  H5  UNL     1      33.100   2.015  49.678  1.00  0.00     0.210 HD
ENDBRANCH  30  32
ENDBRANCH  29  30
ENDBRANCH  26  28
ENDBRANCH   1  26
TORSDOF 4
ENDMDL
MODEL 6
REMARK VINA RESULT:      -7.3     10.176     13.127
REMARK  4 active torsions:
REMARK  status: ('A' for Active; 'I' for Inactive)
REMARK    1  A    between atoms: C2_2  and  O1_3 
REMARK    2  A    between atoms: C2_2  and  C3_4 
REMARK    3  A    between atoms: N1_5  and  N2_6 
REMARK    4  A    between atoms: N2_6  and  C5_8 
ROOT
HETATM    1  C5  UNL     1      33.903   6.881  44.073  1.00  0.00     0.155 A 
HETATM    2  N3  UNL     1      33.775   8.213  44.203  1.00  0.00    -0.214 NA
HETATM    3  C6  UNL     1      33.843   8.703  45.451  1.00  0.00     0.129 A 
HETATM    4  N4  UNL     1      34.030   7.943  46.561  1.00  0.00    -0.245 NA
HETATM    5  C7  UNL     1      34.159   6.607  46.416  1.00  0.00     0.129 A 
HETATM    6  C8  UNL     1      34.096   6.052  45.157  1.00  0.00     0.007 A 
HETATM    7  C9  UNL     1      34.239   4.578  45.019  1.00  0.00     0.045 C 
HETATM    8  C10 UNL     1      34.487   3.911  46.345  1.00  0.00     0.024 C 
HETATM    9  C11 UNL     1      33.241   3.262  46.825  1.00  0.00     0.120 C 
HETATM   10  N5  UNL     1      32.866   3.645  48.170  1.00  0.00    -0.390 N 
HETATM   11  C12 UNL     1      32.064   4.795  48.385  1.00  0.00     0.028 A 
HETATM   12  C13 UNL     1      32.410   5.696  49.372  1.00  0.00     0.031 A 
HETATM   13  C14 UNL     1      31.634   6.817  49.585  1.00  0.00     0.031 A 
HETATM   14  C15 UNL     1      30.511   7.045  48.816  1.00  0.00     0.028 A 
HETATM   15  C16 UNL     1      30.166   6.143  47.830  1.00  0.00     0.031 A 
HETATM   16  C17 UNL     1      30.941   5.020  47.615  1.00  0.00     0.031 A 
HETATM   17  N6  UNL     1      29.714   8.195  49.031  1.00  0.00    -0.388 N 
HETATM   18  C18 UNL     1      30.167   9.491  48.507  1.00  0.00     0.150 C 
HETATM   19  C19 UNL     1      31.489   9.314  47.807  1.00  0.00     0.291 C 
HETATM   20  N7  UNL     1      31.858  10.475  47.060  1.00  0.00     0.086 N 
HETATM   21  C20 UNL     1      31.369  11.717  47.577  1.00  0.00     0.310 C 
HETATM   22  C21 UNL     1      33.308  10.577  46.956  1.00  0.00     0.279 C 
HETATM   23  C22 UNL     1      33.698  10.172  45.556  1.00  0.00     0.110 C 
HETATM   24  H17 UNL     1      33.142   3.131  49.054  1.00  0.00     0.159 HD
HETATM   25  H22 UNL     1      28.800   8.181  49.553  1.00  0.00     0.159 HD
ENDROOT
BRANCH   1  26
HETATM   26  N2  UNL     1      33.832   6.374  42.748  1.00  0.00    -0.257 N 
HETATM   27  C4  UNL     1      32.574   6.331  41.984  1.00  0.00     0.182 C 
BRANCH  26  28
HETATM   28  N1  UNL     1      34.932   5.871  42.040  1.00  0.00    -0.185 NA
HETATM   29  C3  UNL     1      35.935   6.634  41.773  1.00  0.00     0.143 C 
BRANCH  29  30
HETATM   30  C2  UNL     1      36.570   7.992  41.874  1.00  0.00     0.156 C 
HETATM   31  C1  UNL     1      35.700   9.038  41.196  1.00  0.00     0.045 C 
BRANCH  30  32
HETATM   32  O1  UNL     1      36.731   8.336  43.219  1.00  0.00    -0.391 OA
HETATM   33  H5  UNL     1      37.435   7.783  43.622  1.00  0.00     0.210 HD
ENDBRANCH  30  32
ENDBRANCH  29  30
ENDBRANCH  26  28
ENDBRANCH   1  26
TORSDOF 4
ENDMDL
MODEL 7
REMARK VINA RESULT:      -7.2      7.763     10.544
REMARK  4 active torsions:
REMARK  status: ('A' for Active; 'I' for Inactive)
REMARK    1  A    between atoms: C2_2  and  O1_3 
REMARK    2  A    between atoms: C2_2  and  C3_4 
REMARK    3  A    between atoms: N1_5  and  N2_6 
REMARK    4  A    between atoms: N2_6  and  C5_8 
ROOT
HETATM    1  C5  UNL     1      31.482   9.196  47.039  1.00  0.00     0.155 A 
HETATM    2  N3  UNL     1      31.329  10.524  47.182  1.00  0.00    -0.214 NA
HETATM    3  C6  UNL     1      30.535  10.931  48.186  1.00  0.00     0.129 A 
HETATM    4  N4  UNL     1      29.897  10.092  49.043  1.00  0.00    -0.245 NA
HETATM    5  C7  UNL     1      30.060   8.761  48.888  1.00  0.00     0.129 A 
HETATM    6  C8  UNL     1      30.863   8.290  47.873  1.00  0.00     0.007 A 
HETATM    7  C9  UNL     1      31.029   6.820  47.719  1.00  0.00     0.045 C 
HETATM    8  C10 UNL     1      30.288   6.056  48.784  1.00  0.00     0.024 C 
HETATM    9  C11 UNL     1      29.037   5.489  48.221  1.00  0.00     0.120 C 
HETATM   10  N5  UNL     1      27.852   5.822  48.984  1.00  0.00    -0.390 N 
HETATM   11  C12 UNL     1      27.146   7.022  48.713  1.00  0.00     0.028 A 
HETATM   12  C13 UNL     1      26.743   7.830  49.757  1.00  0.00     0.031 A 
HETATM   13  C14 UNL     1      26.056   8.998  49.500  1.00  0.00     0.031 A 
HETATM   14  C15 UNL     1      25.768   9.368  48.202  1.00  0.00     0.028 A 
HETATM   15  C16 UNL     1      26.171   8.559  47.158  1.00  0.00     0.031 A 
HETATM   16  C17 UNL     1      26.859   7.388  47.414  1.00  0.00     0.031 A 
HETATM   17  N6  UNL     1      25.065  10.567  47.935  1.00  0.00    -0.388 N 
HETATM   18  C18 UNL     1      25.783  11.848  47.994  1.00  0.00     0.150 C 
HETATM   19  C19 UNL     1      27.222  11.600  48.364  1.00  0.00     0.291 C 
HETATM   20  N7  UNL     1      28.027  12.768  48.189  1.00  0.00     0.086 N 
HETATM   21  C20 UNL     1      27.344  14.014  48.360  1.00  0.00     0.310 C 
HETATM   22  C21 UNL     1      29.158  12.750  49.109  1.00  0.00     0.279 C 
HETATM   23  C22 UNL     1      30.391  12.397  48.314  1.00  0.00     0.110 C 
HETATM   24  H17 UNL     1      27.438   5.235  49.761  1.00  0.00     0.159 HD
HETATM   25  H22 UNL     1      24.041  10.601  47.692  1.00  0.00     0.159 HD
ENDROOT
BRANCH   1  26
HETATM   26  N2  UNL     1      32.325   8.776  45.975  1.00  0.00    -0.257 N 
HETATM   27  C4  UNL     1      31.842   7.937  44.865  1.00  0.00     0.182 C 
BRANCH  26  28
HETATM   28  N1  UNL     1      33.682   9.111  45.870  1.00  0.00    -0.185 NA
HETATM   29  C3  UNL     1      34.499   8.805  46.818  1.00  0.00     0.143 C 
BRANCH  29  30
HETATM   30  C2  UNL     1      34.716   8.176  48.165  1.00  0.00     0.156 C 
HETATM   31  C1  UNL     1      34.718   6.661  48.052  1.00  0.00     0.045 C 
BRANCH  30  32
HETATM   32  O1  UNL     1      35.945   8.595  48.686  1.00  0.00    -0.391 OA
HETATM   33  H5  UNL     1      35.953   9.572  48.776  1.00  0.00     0.210 HD
ENDBRANCH  30  32
ENDBRANCH  29  30
ENDBRANCH  26  28
ENDBRANCH   1  26
TORSDOF 4
ENDMDL
MODEL 8
REMARK VINA RESULT:      -7.2      8.477     12.461
REMARK  4 active torsions:
REMARK  status: ('A' for Active; 'I' for Inactive)
REMARK    1  A    between atoms: C2_2  and  O1_3 
REMARK    2  A    between atoms: C2_2  and  C3_4 
REMARK    3  A    between atoms: N1_5  and  N2_6 
REMARK    4  A    between atoms: N2_6  and  C5_8 
ROOT
HETATM    1  C5  UNL     1      29.744   8.634  48.752  1.00  0.00     0.155 A 
HETATM    2  N3  UNL     1      30.250   7.449  49.138  1.00  0.00    -0.214 NA
HETATM    3  C6  UNL     1      31.579   7.300  49.023  1.00  0.00     0.129 A 
HETATM    4  N4  UNL     1      32.418   8.258  48.551  1.00  0.00    -0.245 NA
HETATM    5  C7  UNL     1      31.896   9.443  48.168  1.00  0.00     0.129 A 
HETATM    6  C8  UNL     1      30.538   9.649  48.264  1.00  0.00     0.007 A 
HETATM    7  C9  UNL     1      29.982  10.960  47.836  1.00  0.00     0.045 C 
HETATM    8  C10 UNL     1      31.062  11.909  47.389  1.00  0.00     0.024 C 
HETATM    9  C11 UNL     1      31.090  11.980  45.906  1.00  0.00     0.120 C 
HETATM   10  N5  UNL     1      32.399  11.734  45.336  1.00  0.00    -0.390 N 
HETATM   11  C12 UNL     1      32.809  10.410  45.040  1.00  0.00     0.028 A 
HETATM   12  C13 UNL     1      34.069   9.984  45.409  1.00  0.00     0.031 A 
HETATM   13  C14 UNL     1      34.473   8.696  45.124  1.00  0.00     0.031 A 
HETATM   14  C15 UNL     1      33.624   7.826  44.472  1.00  0.00     0.028 A 
HETATM   15  C16 UNL     1      32.364   8.252  44.104  1.00  0.00     0.031 A 
HETATM   16  C17 UNL     1      31.957   9.542  44.387  1.00  0.00     0.031 A 
HETATM   17  N6  UNL     1      34.035   6.503  44.180  1.00  0.00    -0.388 N 
HETATM   18  C18 UNL     1      34.022   5.495  45.250  1.00  0.00     0.150 C 
HETATM   19  C19 UNL     1      33.550   6.130  46.531  1.00  0.00     0.291 C 
HETATM   20  N7  UNL     1      33.272   5.155  47.540  1.00  0.00     0.086 N 
HETATM   21  C20 UNL     1      34.049   3.955  47.462  1.00  0.00     0.310 C 
HETATM   22  C21 UNL     1      33.465   5.725  48.868  1.00  0.00     0.279 C 
HETATM   23  C22 UNL     1      32.101   5.986  49.458  1.00  0.00     0.110 C 
HETATM   24  H17 UNL     1      33.117  12.477  45.106  1.00  0.00     0.159 HD
HETATM   25  H22 UNL     1      34.355   6.189  43.228  1.00  0.00     0.159 HD
ENDROOT
BRANCH   1  26
HETATM   26  N2  UNL     1      28.336   8.781  48.881  1.00  0.00    -0.257 N 
HETATM   27  C4  UNL     1      27.708   9.363  50.078  1.00  0.00     0.182 C 
BRANCH  26  28
HETATM   28  N1  UNL     1      27.414   8.396  47.899  1.00  0.00    -0.185 NA
HETATM   29  C3  UNL     1      26.822   7.255  47.979  1.00  0.00     0.143 C 
BRANCH  29  30
HETATM   30  C2  UNL     1      26.626   5.966  48.726  1.00  0.00     0.156 C 
HETATM   31  C1  UNL     1      27.850   5.076  48.583  1.00  0.00     0.045 C 
BRANCH  30  32
HETATM   32  O1  UNL     1      26.417   6.237  50.082  1.00  0.00    -0.391 OA
HETATM   33  H5  UNL     1      27.069   5.741  50.624  1.00  0.00     0.210 HD
ENDBRANCH  30  32
ENDBRANCH  29  30
ENDBRANCH  26  28
ENDBRANCH   1  26
TORSDOF 4
ENDMDL
MODEL 9
REMARK VINA RESULT:      -7.2      2.913      7.271
REMARK  4 active torsions:
REMARK  status: ('A' for Active; 'I' for Inactive)
REMARK    1  A    between atoms: C2_2  and  O1_3 
REMARK    2  A    between atoms: C2_2  and  C3_4 
REMARK    3  A    between atoms: N1_5  and  N2_6 
REMARK    4  A    between atoms: N2_6  and  C5_8 
ROOT
HETATM    1  C5  UNL     1      19.413   3.315  50.356  1.00  0.00     0.155 A 
HETATM    2  N3  UNL     1      19.100   2.161  50.971  1.00  0.00    -0.214 NA
HETATM    3  C6  UNL     1      19.680   1.940  52.162  1.00  0.00     0.129 A 
HETATM    4  N4  UNL     1      20.544   2.800  52.762  1.00  0.00    -0.245 NA
HETATM    5  C7  UNL     1      20.848   3.955  52.133  1.00  0.00     0.129 A 
HETATM    6  C8  UNL     1      20.281   4.231  50.909  1.00  0.00     0.007 A 
HETATM    7  C9  UNL     1      20.630   5.508  50.232  1.00  0.00     0.045 C 
HETATM    8  C10 UNL     1      21.559   6.350  51.065  1.00  0.00     0.024 C 
HETATM    9  C11 UNL     1      22.943   6.250  50.537  1.00  0.00     0.120 C 
HETATM   10  N5  UNL     1      23.923   5.883  51.539  1.00  0.00    -0.390 N 
HETATM   11  C12 UNL     1      24.185   4.516  51.810  1.00  0.00     0.028 A 
HETATM   12  C13 UNL     1      24.261   4.080  53.118  1.00  0.00     0.031 A 
HETATM   13  C14 UNL     1      24.514   2.750  53.388  1.00  0.00     0.031 A 
HETATM   14  C15 UNL     1      24.693   1.850  52.357  1.00  0.00     0.028 A 
HETATM   15  C16 UNL     1      24.617   2.288  51.050  1.00  0.00     0.031 A 
HETATM   16  C17 UNL     1      24.364   3.618  50.777  1.00  0.00     0.031 A 
HETATM   17  N6  UNL     1      24.952   0.486  52.632  1.00  0.00    -0.388 N 
HETATM   18  C18 UNL     1      23.839  -0.392  53.021  1.00  0.00     0.150 C 
HETATM   19  C19 UNL     1      22.561   0.406  53.060  1.00  0.00     0.291 C 
HETATM   20  N7  UNL     1      21.411  -0.434  53.181  1.00  0.00     0.086 N 
HETATM   21  C20 UNL     1      21.623  -1.668  53.874  1.00  0.00     0.310 C 
HETATM   22  C21 UNL     1      20.330   0.275  53.854  1.00  0.00     0.279 C 
HETATM   23  C22 UNL     1      19.313   0.662  52.810  1.00  0.00     0.110 C 
HETATM   24  H17 UNL     1      24.492   6.562  52.118  1.00  0.00     0.159 HD
HETATM   25  H22 UNL     1      25.908   0.051  52.573  1.00  0.00     0.159 HD
ENDROOT
BRANCH   1  26
HETATM   26  N2  UNL     1      18.791   3.539  49.098  1.00  0.00    -0.257 N 
HETATM   27  C4  UNL     1      17.788   4.597  48.889  1.00  0.00     0.182 C 
BRANCH  26  28
HETATM   28  N1  UNL     1      19.061   2.790  47.945  1.00  0.00    -0.185 NA
HETATM   29  C3  UNL     1      20.235   2.814  47.417  1.00  0.00     0.143 C 
BRANCH  29  30
HETATM   30  C2  UNL     1      21.644   3.335  47.457  1.00  0.00     0.156 C 
HETATM   31  C1  UNL     1      22.612   2.226  47.836  1.00  0.00     0.045 C 
BRANCH  30  32
HETATM   32  O1  UNL     1      21.996   3.835  46.199  1.00  0.00    -0.391 OA
HETATM   33  H5  UNL     1      21.193   4.152  45.731  1.00  0.00     0.210 HD
ENDBRANCH  30  32
ENDBRANCH  29  30
ENDBRANCH  26  28
ENDBRANCH   1  26
TORSDOF 4
ENDMDL
