MODEL 1
REMARK VINA RESULT:      -7.3      0.000      0.000
REMARK  8 active torsions:
REMARK  status: ('A' for Active; 'I' for Inactive)
REMARK    1  A    between atoms: N1_1  and  C1_2 
REMARK    2  A    between atoms: C1_2  and  C2_3 
REMARK    3  A    between atoms: C2_3  and  C3_4 
REMARK    4  A    between atoms: C3_4  and  C4_5 
REMARK    5  A    between atoms: C4_5  and  C5_6 
REMARK    6  A    between atoms: C7_10  and  N4_11 
REMARK    7  A    between atoms: N4_11  and  C8_12 
REMARK    8  A    between atoms: C14_19  and  C15_20 
ROOT
HETATM    1  C5  UNL     1      26.125   0.084  54.572  1.00  0.00     0.073 A 
HETATM    2  N2  UNL     1      25.758  -0.758  55.545  1.00  0.00    -0.241 NA
HETATM    3  C6  UNL     1      24.523  -1.261  55.523  1.00  0.00     0.236 A 
HETATM    4  N3  UNL     1      23.645  -0.950  54.560  1.00  0.00    -0.223 NA
HETATM    5  C7  UNL     1      23.922  -0.116  53.543  1.00  0.00     0.142 A 
HETATM    6  C14 UNL     1      25.201   0.377  53.608  1.00  0.00     0.050 A 
ENDROOT
BRANCH   5   7
HETATM    7  N4  UNL     1      23.053   0.260  52.493  1.00  0.00    -0.340 N 
HETATM    8  H9  UNL     1      23.486   0.715  51.662  1.00  0.00     0.167 HD
BRANCH   7   9
HETATM    9  C8  UNL     1      21.651   0.088  52.438  1.00  0.00     0.033 A 
HETATM   10  C9  UNL     1      20.940   0.471  51.301  1.00  0.00     0.031 A 
HETATM   11  C10 UNL     1      19.577   0.328  51.192  1.00  0.00     0.021 A 
HETATM   12  C11 UNL     1      18.838  -0.212  52.221  1.00  0.00     0.011 A 
HETATM   13 BR1  UNL     1      16.955  -0.370  51.981  1.00  0.00    -0.051 Br
HETATM   14  C12 UNL     1      19.482  -0.607  53.367  1.00  0.00     0.021 A 
HETATM   15  C13 UNL     1      20.846  -0.440  53.421  1.00  0.00     0.031 A 
ENDBRANCH   7   9
ENDBRANCH   5   7
BRANCH   6  16
HETATM   16  C15 UNL     1      25.630   1.196  52.702  1.00  0.00     0.235 C 
HETATM   17 CL1  UNL     1      26.544   1.708  51.326  1.00  0.00    -0.229 Cl
ENDBRANCH   6  16
BRANCH   1  18
HETATM   18  C4  UNL     1      27.339   0.590  54.578  1.00  0.00     0.032 C 
BRANCH  18  19
HETATM   19  C3  UNL     1      28.542  -0.178  54.354  1.00  0.00     0.000 C 
BRANCH  19  20
HETATM   20  C2  UNL     1      28.997  -0.928  53.368  1.00  0.00     0.003 C 
BRANCH  20  21
HETATM   21  C1  UNL     1      29.530  -2.337  53.359  1.00  0.00     0.294 C 
BRANCH  21  22
HETATM   22  N1  UNL     1      28.401  -3.210  53.103  1.00  0.00     0.081 N 
HETATM   23  H1  UNL     1      28.268  -3.416  52.101  1.00  0.00     0.313 HD
HETATM   24  H2  UNL     1      28.482  -4.108  53.626  1.00  0.00     0.313 HD
ENDBRANCH  21  22
ENDBRANCH  20  21
ENDBRANCH  19  20
ENDBRANCH  18  19
ENDBRANCH   1  18
TORSDOF 8
ENDMDL
MODEL 2
REMARK VINA RESULT:      -7.0      2.302      3.011
REMARK  8 active torsions:
REMARK  status: ('A' for Active; 'I' for Inactive)
REMARK    1  A    between atoms: N1_1  and  C1_2 
REMARK    2  A    between atoms: C1_2  and  C2_3 
REMARK    3  A    between atoms: C2_3  and  C3_4 
REMARK    4  A    between atoms: C3_4  and  C4_5 
REMARK    5  A    between atoms: C4_5  and  C5_6 
REMARK    6  A    between atoms: C7_10  and  N4_11 
REMARK    7  A    between atoms: N4_11  and  C8_12 
REMARK    8  A    between atoms: C14_19  and  C15_20 
ROOT
HETATM    1  C5  UNL     1      24.843   0.265  52.714  1.00  0.00     0.073 A 
HETATM    2  N2  UNL     1      25.328   1.283  51.993  1.00  0.00    -0.241 NA
HETATM    3  C6  UNL     1      24.493   2.250  51.610  1.00  0.00     0.236 A 
HETATM    4  N3  UNL     1      23.191   2.232  51.927  1.00  0.00    -0.223 NA
HETATM    5  C7  UNL     1      22.615   1.255  52.647  1.00  0.00     0.142 A 
HETATM    6  C14 UNL     1      23.511   0.283  53.016  1.00  0.00     0.050 A 
ENDROOT
BRANCH   5   7
HETATM    7  N4  UNL     1      21.254   1.165  53.021  1.00  0.00    -0.340 N 
HETATM    8  H9  UNL     1      21.024   1.363  54.017  1.00  0.00     0.167 HD
BRANCH   7   9
HETATM    9  C8  UNL     1      20.158   0.834  52.192  1.00  0.00     0.033 A 
HETATM   10  C9  UNL     1      19.214  -0.101  52.616  1.00  0.00     0.031 A 
HETATM   11  C10 UNL     1      18.129  -0.462  51.853  1.00  0.00     0.021 A 
HETATM   12  C11 UNL     1      17.921   0.095  50.610  1.00  0.00     0.011 A 
HETATM   13 BR1  UNL     1      16.391  -0.467  49.625  1.00  0.00    -0.051 Br
HETATM   14  C12 UNL     1      18.817   1.022  50.138  1.00  0.00     0.021 A 
HETATM   15  C13 UNL     1      19.884   1.344  50.945  1.00  0.00     0.031 A 
ENDBRANCH   7   9
ENDBRANCH   5   7
BRANCH   6  16
HETATM   16  C15 UNL     1      23.118  -0.733  53.717  1.00  0.00     0.235 C 
HETATM   17 CL1  UNL     1      22.084  -1.634  54.769  1.00  0.00    -0.229 Cl
ENDBRANCH   6  16
BRANCH   1  18
HETATM   18  C4  UNL     1      25.653  -0.697  53.098  1.00  0.00     0.032 C 
BRANCH  18  19
HETATM   19  C3  UNL     1      27.019  -0.839  52.650  1.00  0.00     0.000 C 
BRANCH  19  20
HETATM   20  C2  UNL     1      28.194  -0.893  53.250  1.00  0.00     0.003 C 
BRANCH  20  21
HETATM   21  C1  UNL     1      29.248  -1.969  53.270  1.00  0.00     0.294 C 
BRANCH  21  22
HETATM   22  N1  UNL     1      28.555  -3.237  53.158  1.00  0.00     0.081 N 
HETATM   23  H1  UNL     1      28.543  -3.608  52.196  1.00  0.00     0.313 HD
HETATM   24  H2  UNL     1      28.961  -3.957  53.793  1.00  0.00     0.313 HD
ENDBRANCH  21  22
ENDBRANCH  20  21
ENDBRANCH  19  20
ENDBRANCH  18  19
ENDBRANCH   1  18
TORSDOF 8
ENDMDL
MODEL 3
REMARK VINA RESULT:      -6.9      3.581      7.548
REMARK  8 active torsions:
REMARK  status: ('A' for Active; 'I' for Inactive)
REMARK    1  A    between atoms: N1_1  and  C1_2 
REMARK    2  A    between atoms: C1_2  and  C2_3 
REMARK    3  A    between atoms: C2_3  and  C3_4 
REMARK    4  A    between atoms: C3_4  and  C4_5 
REMARK    5  A    between atoms: C4_5  and  C5_6 
REMARK    6  A    between atoms: C7_10  and  N4_11 
REMARK    7  A    between atoms: N4_11  and  C8_12 
REMARK    8  A    between atoms: C14_19  and  C15_20 
ROOT
HETATM    1  C5  UNL     1      20.554   0.175  52.958  1.00  0.00     0.073 A 
HETATM    2  N2  UNL     1      20.462  -0.862  53.800  1.00  0.00    -0.241 NA
HETATM    3  C6  UNL     1      21.556  -1.254  54.453  1.00  0.00     0.236 A 
HETATM    4  N3  UNL     1      22.738  -0.643  54.293  1.00  0.00    -0.223 NA
HETATM    5  C7  UNL     1      22.927   0.405  53.473  1.00  0.00     0.142 A 
HETATM    6  C14 UNL     1      21.776   0.772  52.822  1.00  0.00     0.050 A 
ENDROOT
BRANCH   5   7
HETATM    7  N4  UNL     1      24.138   1.102  53.250  1.00  0.00    -0.340 N 
HETATM    8  H9  UNL     1      24.064   2.114  53.018  1.00  0.00     0.167 HD
BRANCH   7   9
HETATM    9  C8  UNL     1      25.449   0.578  53.307  1.00  0.00     0.033 A 
HETATM   10  C9  UNL     1      26.394   1.140  54.167  1.00  0.00     0.031 A 
HETATM   11  C10 UNL     1      27.683   0.674  54.263  1.00  0.00     0.021 A 
HETATM   12  C11 UNL     1      28.109  -0.392  53.502  1.00  0.00     0.011 A 
HETATM   13 BR1  UNL     1      29.913  -0.970  53.703  1.00  0.00    -0.051 Br
HETATM   14  C12 UNL     1      27.224  -0.987  52.636  1.00  0.00     0.021 A 
HETATM   15  C13 UNL     1      25.948  -0.478  52.581  1.00  0.00     0.031 A 
ENDBRANCH   7   9
ENDBRANCH   5   7
BRANCH   6  16
HETATM   16  C15 UNL     1      21.784   1.766  51.993  1.00  0.00     0.235 C 
HETATM   17 CL1  UNL     1      22.437   2.845  50.810  1.00  0.00    -0.229 Cl
ENDBRANCH   6  16
BRANCH   1  18
HETATM   18  C4  UNL     1      19.484   0.574  52.305  1.00  0.00     0.032 C 
BRANCH  18  19
HETATM   19  C3  UNL     1      18.514  -0.316  51.712  1.00  0.00     0.000 C 
BRANCH  19  20
HETATM   20  C2  UNL     1      17.278  -0.677  52.008  1.00  0.00     0.003 C 
BRANCH  20  21
HETATM   21  C1  UNL     1      16.750  -1.827  52.824  1.00  0.00     0.294 C 
BRANCH  21  22
HETATM   22  N1  UNL     1      17.653  -1.994  53.946  1.00  0.00     0.081 N 
HETATM   23  H1  UNL     1      18.505  -2.522  53.704  1.00  0.00     0.313 HD
HETATM   24  H2  UNL     1      17.929  -1.077  54.359  1.00  0.00     0.313 HD
ENDBRANCH  21  22
ENDBRANCH  20  21
ENDBRANCH  19  20
ENDBRANCH  18  19
ENDBRANCH   1  18
TORSDOF 8
ENDMDL
MODEL 4
REMARK VINA RESULT:      -6.9      3.251      3.932
REMARK  8 active torsions:
REMARK  status: ('A' for Active; 'I' for Inactive)
REMARK    1  A    between atoms: N1_1  and  C1_2 
REMARK    2  A    between atoms: C1_2  and  C2_3 
REMARK    3  A    between atoms: C2_3  and  C3_4 
REMARK    4  A    between atoms: C3_4  and  C4_5 
REMARK    5  A    between atoms: C4_5  and  C5_6 
REMARK    6  A    between atoms: C7_10  and  N4_11 
REMARK    7  A    between atoms: N4_11  and  C8_12 
REMARK    8  A    between atoms: C14_19  and  C15_20 
ROOT
HETATM    1  C5  UNL     1      25.727   0.303  52.501  1.00  0.00     0.073 A 
HETATM    2  N2  UNL     1      24.990  -0.575  53.193  1.00  0.00    -0.241 NA
HETATM    3  C6  UNL     1      23.682  -0.352  53.318  1.00  0.00     0.236 A 
HETATM    4  N3  UNL     1      23.086   0.717  52.773  1.00  0.00    -0.223 NA
HETATM    5  C7  UNL     1      23.741   1.650  52.061  1.00  0.00     0.142 A 
HETATM    6  C14 UNL     1      25.083   1.380  51.960  1.00  0.00     0.050 A 
ENDROOT
BRANCH   5   7
HETATM    7  N4  UNL     1      23.186   2.801  51.456  1.00  0.00    -0.340 N 
HETATM    8  H9  UNL     1      23.009   3.620  52.074  1.00  0.00     0.167 HD
BRANCH   7   9
HETATM    9  C8  UNL     1      22.839   2.971  50.097  1.00  0.00     0.033 A 
HETATM   10  C9  UNL     1      22.990   4.215  49.483  1.00  0.00     0.031 A 
HETATM   11  C10 UNL     1      22.669   4.438  48.165  1.00  0.00     0.021 A 
HETATM   12  C11 UNL     1      22.176   3.423  47.375  1.00  0.00     0.011 A 
HETATM   13 BR1  UNL     1      21.759   3.826  45.560  1.00  0.00    -0.051 Br
HETATM   14  C12 UNL     1      22.005   2.176  47.923  1.00  0.00     0.021 A 
HETATM   15  C13 UNL     1      22.342   2.011  49.246  1.00  0.00     0.031 A 
ENDBRANCH   7   9
ENDBRANCH   5   7
BRANCH   6  16
HETATM   16  C15 UNL     1      25.861   2.181  51.305  1.00  0.00     0.235 C 
HETATM   17 CL1  UNL     1      26.511   2.987  49.920  1.00  0.00    -0.229 Cl
ENDBRANCH   6  16
BRANCH   1  18
HETATM   18  C4  UNL     1      27.019   0.100  52.368  1.00  0.00     0.032 C 
BRANCH  18  19
HETATM   19  C3  UNL     1      27.872  -0.422  53.411  1.00  0.00     0.000 C 
BRANCH  19  20
HETATM   20  C2  UNL     1      29.088  -0.936  53.449  1.00  0.00     0.003 C 
BRANCH  20  21
HETATM   21  C1  UNL     1      29.560  -2.366  53.442  1.00  0.00     0.294 C 
BRANCH  21  22
HETATM   22  N1  UNL     1      28.414  -3.184  53.099  1.00  0.00     0.081 N 
HETATM   23  H1  UNL     1      28.543  -3.717  52.226  1.00  0.00     0.313 HD
HETATM   24  H2  UNL     1      28.169  -3.846  53.866  1.00  0.00     0.313 HD
ENDBRANCH  21  22
ENDBRANCH  20  21
ENDBRANCH  19  20
ENDBRANCH  18  19
ENDBRANCH   1  18
TORSDOF 8
ENDMDL
MODEL 5
REMARK VINA RESULT:      -6.9      5.390      7.663
REMARK  8 active torsions:
REMARK  status: ('A' for Active; 'I' for Inactive)
REMARK    1  A    between atoms: N1_1  and  C1_2 
REMARK    2  A    between atoms: C1_2  and  C2_3 
REMARK    3  A    between atoms: C2_3  and  C3_4 
REMARK    4  A    between atoms: C3_4  and  C4_5 
REMARK    5  A    between atoms: C4_5  and  C5_6 
REMARK    6  A    between atoms: C7_10  and  N4_11 
REMARK    7  A    between atoms: N4_11  and  C8_12 
REMARK    8  A    between atoms: C14_19  and  C15_20 
ROOT
HETATM    1  C5  UNL     1      24.886   1.679  52.518  1.00  0.00     0.073 A 
HETATM    2  N2  UNL     1      26.003   1.555  53.246  1.00  0.00    -0.241 NA
HETATM    3  C6  UNL     1      27.148   2.019  52.743  1.00  0.00     0.236 A 
HETATM    4  N3  UNL     1      27.211   2.604  51.539  1.00  0.00    -0.223 NA
HETATM    5  C7  UNL     1      26.146   2.774  50.739  1.00  0.00     0.142 A 
HETATM    6  C14 UNL     1      24.992   2.280  51.296  1.00  0.00     0.050 A 
ENDROOT
BRANCH   5   7
HETATM    7  N4  UNL     1      26.132   3.379  49.460  1.00  0.00    -0.340 N 
HETATM    8  H9  UNL     1      25.717   2.826  48.681  1.00  0.00     0.167 HD
BRANCH   7   9
HETATM    9  C8  UNL     1      26.620   4.659  49.114  1.00  0.00     0.033 A 
HETATM   10  C9  UNL     1      27.904   4.803  48.588  1.00  0.00     0.031 A 
HETATM   11  C10 UNL     1      28.432   6.022  48.234  1.00  0.00     0.021 A 
HETATM   12  C11 UNL     1      27.700   7.179  48.384  1.00  0.00     0.011 A 
HETATM   13 BR1  UNL     1      28.514   8.823  47.867  1.00  0.00    -0.051 Br
HETATM   14  C12 UNL     1      26.429   7.102  48.898  1.00  0.00     0.021 A 
HETATM   15  C13 UNL     1      25.954   5.856  49.235  1.00  0.00     0.031 A 
ENDBRANCH   7   9
ENDBRANCH   5   7
BRANCH   6  16
HETATM   16  C15 UNL     1      23.871   2.365  50.654  1.00  0.00     0.235 C 
HETATM   17 CL1  UNL     1      22.826   2.406  49.277  1.00  0.00    -0.229 Cl
ENDBRANCH   6  16
BRANCH   1  18
HETATM   18  C4  UNL     1      23.749   1.226  52.998  1.00  0.00     0.032 C 
BRANCH  18  19
HETATM   19  C3  UNL     1      23.493  -0.161  53.313  1.00  0.00     0.000 C 
BRANCH  19  20
HETATM   20  C2  UNL     1      22.415  -0.922  53.356  1.00  0.00     0.003 C 
BRANCH  20  21
HETATM   21  C1  UNL     1      21.513  -1.299  54.502  1.00  0.00     0.294 C 
BRANCH  21  22
HETATM   22  N1  UNL     1      20.698  -0.137  54.793  1.00  0.00     0.081 N 
HETATM   23  H1  UNL     1      21.237   0.742  54.810  1.00  0.00     0.313 HD
HETATM   24  H2  UNL     1      19.911  -0.038  54.117  1.00  0.00     0.313 HD
ENDBRANCH  21  22
ENDBRANCH  20  21
ENDBRANCH  19  20
ENDBRANCH  18  19
ENDBRANCH   1  18
TORSDOF 8
ENDMDL
MODEL 6
REMARK VINA RESULT:      -6.8      2.332      3.198
REMARK  8 active torsions:
REMARK  status: ('A' for Active; 'I' for Inactive)
REMARK    1  A    between atoms: N1_1  and  C1_2 
REMARK    2  A    between atoms: C1_2  and  C2_3 
REMARK    3  A    between atoms: C2_3  and  C3_4 
REMARK    4  A    between atoms: C3_4  and  C4_5 
REMARK    5  A    between atoms: C4_5  and  C5_6 
REMARK    6  A    between atoms: C7_10  and  N4_11 
REMARK    7  A    between atoms: N4_11  and  C8_12 
REMARK    8  A    between atoms: C14_19  and  C15_20 
ROOT
HETATM    1  C5  UNL     1      26.108   0.232  52.457  1.00  0.00     0.073 A 
HETATM    2  N2  UNL     1      26.628   1.089  51.571  1.00  0.00    -0.241 NA
HETATM    3  C6  UNL     1      25.871   2.098  51.136  1.00  0.00     0.236 A 
HETATM    4  N3  UNL     1      24.613   2.277  51.561  1.00  0.00    -0.223 NA
HETATM    5  C7  UNL     1      24.006   1.471  52.448  1.00  0.00     0.142 A 
HETATM    6  C14 UNL     1      24.822   0.448  52.866  1.00  0.00     0.050 A 
ENDROOT
BRANCH   5   7
HETATM    7  N4  UNL     1      22.687   1.594  52.944  1.00  0.00    -0.340 N 
HETATM    8  H9  UNL     1      22.580   1.957  53.914  1.00  0.00     0.167 HD
BRANCH   7   9
HETATM    9  C8  UNL     1      21.487   1.277  52.270  1.00  0.00     0.033 A 
HETATM   10  C9  UNL     1      20.582   0.374  52.831  1.00  0.00     0.031 A 
HETATM   11  C10 UNL     1      19.400   0.028  52.221  1.00  0.00     0.021 A 
HETATM   12  C11 UNL     1      19.047   0.569  51.004  1.00  0.00     0.011 A 
HETATM   13 BR1  UNL     1      17.390   0.030  50.234  1.00  0.00    -0.051 Br
HETATM   14  C12 UNL     1      19.897   1.463  50.401  1.00  0.00     0.021 A 
HETATM   15  C13 UNL     1      21.066   1.772  51.057  1.00  0.00     0.031 A 
ENDBRANCH   7   9
ENDBRANCH   5   7
BRANCH   6  16
HETATM   16  C15 UNL     1      24.391  -0.420  53.723  1.00  0.00     0.235 C 
HETATM   17 CL1  UNL     1      23.298  -1.117  54.868  1.00  0.00    -0.229 Cl
ENDBRANCH   6  16
BRANCH   1  18
HETATM   18  C4  UNL     1      26.840  -0.769  52.895  1.00  0.00     0.032 C 
BRANCH  18  19
HETATM   19  C3  UNL     1      28.052  -0.614  53.667  1.00  0.00     0.000 C 
BRANCH  19  20
HETATM   20  C2  UNL     1      28.531   0.318  54.469  1.00  0.00     0.003 C 
BRANCH  20  21
HETATM   21  C1  UNL     1      29.128   1.669  54.175  1.00  0.00     0.294 C 
BRANCH  21  22
HETATM   22  N1  UNL     1      28.022   2.593  54.027  1.00  0.00     0.081 N 
HETATM   23  H1  UNL     1      27.669   2.950  54.928  1.00  0.00     0.313 HD
HETATM   24  H2  UNL     1      28.272   3.401  53.417  1.00  0.00     0.313 HD
ENDBRANCH  21  22
ENDBRANCH  20  21
ENDBRANCH  19  20
ENDBRANCH  18  19
ENDBRANCH   1  18
TORSDOF 8
ENDMDL
MODEL 7
REMARK VINA RESULT:      -6.6      3.851      8.018
REMARK  8 active torsions:
REMARK  status: ('A' for Active; 'I' for Inactive)
REMARK    1  A    between atoms: N1_1  and  C1_2 
REMARK    2  A    between atoms: C1_2  and  C2_3 
REMARK    3  A    between atoms: C2_3  and  C3_4 
REMARK    4  A    between atoms: C3_4  and  C4_5 
REMARK    5  A    between atoms: C4_5  and  C5_6 
REMARK    6  A    between atoms: C7_10  and  N4_11 
REMARK    7  A    between atoms: N4_11  and  C8_12 
REMARK    8  A    between atoms: C14_19  and  C15_20 
ROOT
HETATM    1  C5  UNL     1      20.973   0.590  51.597  1.00  0.00     0.073 A 
HETATM    2  N2  UNL     1      21.149   0.988  50.331  1.00  0.00    -0.241 NA
HETATM    3  C6  UNL     1      22.306   1.560  49.996  1.00  0.00     0.236 A 
HETATM    4  N3  UNL     1      23.292   1.746  50.885  1.00  0.00    -0.223 NA
HETATM    5  C7  UNL     1      23.209   1.379  52.174  1.00  0.00     0.142 A 
HETATM    6  C14 UNL     1      22.002   0.796  52.473  1.00  0.00     0.050 A 
ENDROOT
BRANCH   5   7
HETATM    7  N4  UNL     1      24.201   1.538  53.169  1.00  0.00    -0.340 N 
HETATM    8  H9  UNL     1      23.987   2.196  53.948  1.00  0.00     0.167 HD
BRANCH   7   9
HETATM    9  C8  UNL     1      25.462   0.905  53.229  1.00  0.00     0.033 A 
HETATM   10  C9  UNL     1      26.541   1.542  53.843  1.00  0.00     0.031 A 
HETATM   11  C10 UNL     1      27.790   0.974  53.931  1.00  0.00     0.021 A 
HETATM   12  C11 UNL     1      28.037  -0.276  53.407  1.00  0.00     0.011 A 
HETATM   13 BR1  UNL     1      29.799  -0.982  53.575  1.00  0.00    -0.051 Br
HETATM   14  C12 UNL     1      27.015  -0.952  52.789  1.00  0.00     0.021 A 
HETATM   15  C13 UNL     1      25.787  -0.335  52.730  1.00  0.00     0.031 A 
ENDBRANCH   7   9
ENDBRANCH   5   7
BRANCH   6  16
HETATM   16  C15 UNL     1      21.757   0.384  53.675  1.00  0.00     0.235 C 
HETATM   17 CL1  UNL     1      21.795  -0.699  55.023  1.00  0.00    -0.229 Cl
ENDBRANCH   6  16
BRANCH   1  18
HETATM   18  C4  UNL     1      19.838   0.025  51.945  1.00  0.00     0.032 C 
BRANCH  18  19
HETATM   19  C3  UNL     1      18.618   0.108  51.175  1.00  0.00     0.000 C 
BRANCH  19  20
HETATM   20  C2  UNL     1      17.398  -0.377  51.310  1.00  0.00     0.003 C 
BRANCH  20  21
HETATM   21  C1  UNL     1      16.232   0.092  52.141  1.00  0.00     0.294 C 
BRANCH  21  22
HETATM   22  N1  UNL     1      16.012  -0.915  53.160  1.00  0.00     0.081 N 
HETATM   23  H1  UNL     1      16.887  -1.253  53.590  1.00  0.00     0.313 HD
HETATM   24  H2  UNL     1      15.377  -0.572  53.912  1.00  0.00     0.313 HD
ENDBRANCH  21  22
ENDBRANCH  20  21
ENDBRANCH  19  20
ENDBRANCH  18  19
ENDBRANCH   1  18
TORSDOF 8
ENDMDL
MODEL 8
REMARK VINA RESULT:      -6.6      1.743      2.277
REMARK  8 active torsions:
REMARK  status: ('A' for Active; 'I' for Inactive)
REMARK    1  A    between atoms: N1_1  and  C1_2 
REMARK    2  A    between atoms: C1_2  and  C2_3 
REMARK    3  A    between atoms: C2_3  and  C3_4 
REMARK    4  A    between atoms: C3_4  and  C4_5 
REMARK    5  A    between atoms: C4_5  and  C5_6 
REMARK    6  A    between atoms: C7_10  and  N4_11 
REMARK    7  A    between atoms: N4_11  and  C8_12 
REMARK    8  A    between atoms: C14_19  and  C15_20 
ROOT
HETATM    1  C5  UNL     1      26.234  -0.460  53.202  1.00  0.00     0.073 A 
HETATM    2  N2  UNL     1      25.783  -1.179  54.238  1.00  0.00    -0.241 NA
HETATM    3  C6  UNL     1      24.558  -0.932  54.703  1.00  0.00     0.236 A 
HETATM    4  N3  UNL     1      23.770   0.009  54.167  1.00  0.00    -0.223 NA
HETATM    5  C7  UNL     1      24.133   0.778  53.127  1.00  0.00     0.142 A 
HETATM    6  C14 UNL     1      25.400   0.490  52.683  1.00  0.00     0.050 A 
ENDROOT
BRANCH   5   7
HETATM    7  N4  UNL     1      23.361   1.788  52.506  1.00  0.00    -0.340 N 
HETATM    8  H9  UNL     1      23.811   2.719  52.386  1.00  0.00     0.167 HD
BRANCH   7   9
HETATM    9  C8  UNL     1      22.037   1.678  52.026  1.00  0.00     0.033 A 
HETATM   10  C9  UNL     1      21.695   0.664  51.130  1.00  0.00     0.031 A 
HETATM   11  C10 UNL     1      20.424   0.509  50.630  1.00  0.00     0.021 A 
HETATM   12  C11 UNL     1      19.409   1.364  50.999  1.00  0.00     0.011 A 
HETATM   13 BR1  UNL     1      17.681   1.072  50.255  1.00  0.00    -0.051 Br
HETATM   14  C12 UNL     1      19.684   2.383  51.878  1.00  0.00     0.021 A 
HETATM   15  C13 UNL     1      20.973   2.490  52.345  1.00  0.00     0.031 A 
ENDBRANCH   7   9
ENDBRANCH   5   7
BRANCH   6  16
HETATM   16  C15 UNL     1      25.904   1.141  51.685  1.00  0.00     0.235 C 
HETATM   17 CL1  UNL     1      26.500   2.515  50.820  1.00  0.00    -0.229 Cl
ENDBRANCH   6  16
BRANCH   1  18
HETATM   18  C4  UNL     1      27.439  -0.690  52.732  1.00  0.00     0.032 C 
BRANCH  18  19
HETATM   19  C3  UNL     1      28.658  -0.491  53.482  1.00  0.00     0.000 C 
BRANCH  19  20
HETATM   20  C2  UNL     1      29.470   0.530  53.685  1.00  0.00     0.003 C 
BRANCH  20  21
HETATM   21  C1  UNL     1      29.317   1.763  54.536  1.00  0.00     0.294 C 
BRANCH  21  22
HETATM   22  N1  UNL     1      28.363   2.622  53.863  1.00  0.00     0.081 N 
HETATM   23  H1  UNL     1      27.804   2.126  53.152  1.00  0.00     0.313 HD
HETATM   24  H2  UNL     1      27.717   3.085  54.538  1.00  0.00     0.313 HD
ENDBRANCH  21  22
ENDBRANCH  20  21
ENDBRANCH  19  20
ENDBRANCH  18  19
ENDBRANCH   1  18
TORSDOF 8
ENDMDL
MODEL 9
REMARK VINA RESULT:      -6.5      2.631      3.295
REMARK  8 active torsions:
REMARK  status: ('A' for Active; 'I' for Inactive)
REMARK    1  A    between atoms: N1_1  and  C1_2 
REMARK    2  A    between atoms: C1_2  and  C2_3 
REMARK    3  A    between atoms: C2_3  and  C3_4 
REMARK    4  A    between atoms: C3_4  and  C4_5 
REMARK    5  A    between atoms: C4_5  and  C5_6 
REMARK    6  A    between atoms: C7_10  and  N4_11 
REMARK    7  A    between atoms: N4_11  and  C8_12 
REMARK    8  A    between atoms: C14_19  and  C15_20 
ROOT
HETATM    1  C5  UNL     1      27.059   1.633  52.877  1.00  0.00     0.073 A 
HETATM    2  N2  UNL     1      27.469   2.382  51.847  1.00  0.00    -0.241 NA
HETATM    3  C6  UNL     1      26.580   2.733  50.917  1.00  0.00     0.236 A 
HETATM    4  N3  UNL     1      25.295   2.360  50.985  1.00  0.00    -0.223 NA
HETATM    5  C7  UNL     1      24.790   1.610  51.979  1.00  0.00     0.142 A 
HETATM    6  C14 UNL     1      25.741   1.273  52.911  1.00  0.00     0.050 A 
ENDROOT
BRANCH   5   7
HETATM    7  N4  UNL     1      23.451   1.178  52.122  1.00  0.00    -0.340 N 
HETATM    8  H9  UNL     1      23.254   0.495  52.883  1.00  0.00     0.167 HD
BRANCH   7   9
HETATM    9  C8  UNL     1      22.339   1.568  51.343  1.00  0.00     0.033 A 
HETATM   10  C9  UNL     1      21.555   2.655  51.732  1.00  0.00     0.031 A 
HETATM   11  C10 UNL     1      20.462   3.079  51.014  1.00  0.00     0.021 A 
HETATM   12  C11 UNL     1      20.084   2.438  49.855  1.00  0.00     0.011 A 
HETATM   13 BR1  UNL     1      18.556   3.096  48.928  1.00  0.00    -0.051 Br
HETATM   14  C12 UNL     1      20.817   1.361  49.421  1.00  0.00     0.021 A 
HETATM   15  C13 UNL     1      21.900   0.981  50.179  1.00  0.00     0.031 A 
ENDBRANCH   7   9
ENDBRANCH   5   7
BRANCH   6  16
HETATM   16  C15 UNL     1      25.420   0.552  53.937  1.00  0.00     0.235 C 
HETATM   17 CL1  UNL     1      25.220  -0.893  54.865  1.00  0.00    -0.229 Cl
ENDBRANCH   6  16
BRANCH   1  18
HETATM   18  C4  UNL     1      27.922   1.277  53.803  1.00  0.00     0.032 C 
BRANCH  18  19
HETATM   19  C3  UNL     1      28.978   0.311  53.602  1.00  0.00     0.000 C 
BRANCH  19  20
HETATM   20  C2  UNL     1      29.021  -0.996  53.423  1.00  0.00     0.003 C 
BRANCH  20  21
HETATM   21  C1  UNL     1      28.009  -1.951  52.847  1.00  0.00     0.294 C 
BRANCH  21  22
HETATM   22  N1  UNL     1      28.490  -3.289  53.126  1.00  0.00     0.081 N 
HETATM   23  H1  UNL     1      29.465  -3.440  52.823  1.00  0.00     0.313 HD
HETATM   24  H2  UNL     1      28.410  -3.526  54.137  1.00  0.00     0.313 HD
ENDBRANCH  21  22
ENDBRANCH  20  21
ENDBRANCH  19  20
ENDBRANCH  18  19
ENDBRANCH   1  18
TORSDOF 8
ENDMDL
