MODEL 1
REMARK VINA RESULT:      -8.6      0.000      0.000
REMARK  4 active torsions:
REMARK  status: ('A' for Active; 'I' for Inactive)
REMARK    1  A    between atoms: O1_2  and  C2_3 
REMARK    2  A    between atoms: C7_8  and  O2_9 
REMARK    3  A    between atoms: N1_13  and  C10_14 
REMARK    4  A    between atoms: C10_14  and  N2_15 
ROOT
HETATM    1  C2  UNL     1      27.803   7.248  47.754  1.00  0.00     0.102 A 
HETATM    2  C3  UNL     1      26.511   6.988  48.149  1.00  0.00     0.051 A 
HETATM    3  C4  UNL     1      26.163   5.805  48.759  1.00  0.00     0.006 A 
HETATM    4  C5  UNL     1      27.166   4.853  48.975  1.00  0.00     0.088 A 
HETATM    5  C6  UNL     1      28.478   5.110  48.577  1.00  0.00     0.077 A 
HETATM    6  C7  UNL     1      28.797   6.315  47.963  1.00  0.00     0.104 A 
HETATM    7  O3  UNL     1      27.098   3.590  49.561  1.00  0.00    -0.294 OA
HETATM    8  C9  UNL     1      26.061   3.164  50.398  1.00  0.00     0.171 C 
HETATM    9  N1  UNL     1      26.316   2.388  51.370  1.00  0.00    -0.247 NA
HETATM   10  C17 UNL     1      24.639   3.544  50.257  1.00  0.00     0.355 C 
HETATM   11  N4  UNL     1      24.379   4.275  49.035  1.00  0.00     0.095 N 
HETATM   12  C18 UNL     1      24.723   5.667  49.130  1.00  0.00     0.311 C 
HETATM   13  H21 UNL     1      24.838   3.833  48.214  1.00  0.00     0.316 HD
ENDROOT
BRANCH   9  14
HETATM   14  C10 UNL     1      25.410   1.847  52.331  1.00  0.00     0.297 C 
BRANCH  14  15
HETATM   15  N2  UNL     1      26.113   1.691  53.581  1.00  0.00    -0.266 N 
HETATM   16  N3  UNL     1      27.179   2.519  53.741  1.00  0.00    -0.309 N 
HETATM   17  C11 UNL     1      28.577   2.218  53.703  1.00  0.00     0.107 C 
HETATM   18  H11 UNL     1      27.000   3.551  53.922  1.00  0.00     0.186 HD
HETATM   19  C12 UNL     1      29.142   1.033  53.472  1.00  0.00     0.018 C 
HETATM   20  C13 UNL     1      28.440  -0.224  53.206  1.00  0.00     0.002 C 
HETATM   21  C14 UNL     1      27.175  -0.514  53.472  1.00  0.00     0.040 C 
HETATM   22  C15 UNL     1      26.175   0.387  54.110  1.00  0.00     0.207 C 
HETATM   23  C16 UNL     1      24.820  -0.265  53.994  1.00  0.00     0.083 C 
HETATM   24  F1  UNL     1      26.447   0.495  55.481  1.00  0.00    -0.213 F 
ENDBRANCH  14  15
ENDBRANCH   9  14
BRANCH   6  25
HETATM   25  O2  UNL     1      30.082   6.645  47.538  1.00  0.00    -0.353 OA
HETATM   26  C8  UNL     1      31.066   6.969  48.486  1.00  0.00     0.210 C 
ENDBRANCH   6  25
BRANCH   1  27
HETATM   27  O1  UNL     1      28.109   8.468  47.136  1.00  0.00    -0.353 OA
HETATM   28  C1  UNL     1      27.185   9.514  47.282  1.00  0.00     0.210 C 
ENDBRANCH   1  27
TORSDOF 4
ENDMDL
MODEL 2
REMARK VINA RESULT:      -8.3      1.581      2.413
REMARK  4 active torsions:
REMARK  status: ('A' for Active; 'I' for Inactive)
REMARK    1  A    between atoms: O1_2  and  C2_3 
REMARK    2  A    between atoms: C7_8  and  O2_9 
REMARK    3  A    between atoms: N1_13  and  C10_14 
REMARK    4  A    between atoms: C10_14  and  N2_15 
ROOT
HETATM    1  C2  UNL     1      29.862   8.049  48.007  1.00  0.00     0.102 A 
HETATM    2  C3  UNL     1      28.539   8.113  48.379  1.00  0.00     0.051 A 
HETATM    3  C4  UNL     1      27.793   6.979  48.599  1.00  0.00     0.006 A 
HETATM    4  C5  UNL     1      28.415   5.735  48.435  1.00  0.00     0.088 A 
HETATM    5  C6  UNL     1      29.756   5.664  48.057  1.00  0.00     0.077 A 
HETATM    6  C7  UNL     1      30.483   6.828  47.842  1.00  0.00     0.104 A 
HETATM    7  O3  UNL     1      27.906   4.447  48.588  1.00  0.00    -0.294 OA
HETATM    8  C9  UNL     1      26.749   4.137  49.309  1.00  0.00     0.171 C 
HETATM    9  N1  UNL     1      26.687   3.050  49.963  1.00  0.00    -0.247 NA
HETATM   10  C17 UNL     1      25.539   4.984  49.388  1.00  0.00     0.355 C 
HETATM   11  N4  UNL     1      25.593   6.113  48.484  1.00  0.00     0.095 N 
HETATM   12  C18 UNL     1      26.372   7.206  48.997  1.00  0.00     0.311 C 
HETATM   13  H21 UNL     1      25.920   5.836  47.537  1.00  0.00     0.316 HD
ENDROOT
BRANCH   9  14
HETATM   14  C10 UNL     1      25.607   2.555  50.755  1.00  0.00     0.297 C 
BRANCH  14  15
HETATM   15  N2  UNL     1      26.106   2.283  52.082  1.00  0.00    -0.266 N 
HETATM   16  N3  UNL     1      27.169   1.437  52.128  1.00  0.00    -0.309 N 
HETATM   17  C11 UNL     1      27.230   0.077  52.568  1.00  0.00     0.107 C 
HETATM   18  H11 UNL     1      28.116   1.791  51.799  1.00  0.00     0.186 HD
HETATM   19  C12 UNL     1      26.223  -0.673  53.014  1.00  0.00     0.018 C 
HETATM   20  C13 UNL     1      24.826  -0.256  53.148  1.00  0.00     0.002 C 
HETATM   21  C14 UNL     1      24.353   0.981  53.193  1.00  0.00     0.040 C 
HETATM   22  C15 UNL     1      25.151   2.237  53.116  1.00  0.00     0.207 C 
HETATM   23  C16 UNL     1      24.190   3.390  52.961  1.00  0.00     0.083 C 
HETATM   24  F1  UNL     1      25.824   2.441  54.329  1.00  0.00    -0.213 F 
ENDBRANCH  14  15
ENDBRANCH   9  14
BRANCH   6  25
HETATM   25  O2  UNL     1      31.823   6.840  47.465  1.00  0.00    -0.353 OA
HETATM   26  C8  UNL     1      32.818   6.581  48.422  1.00  0.00     0.210 C 
ENDBRANCH   6  25
BRANCH   1  27
HETATM   27  O1  UNL     1      30.582   9.233  47.794  1.00  0.00    -0.353 OA
HETATM   28  C1  UNL     1      30.849  10.035  48.915  1.00  0.00     0.210 C 
ENDBRANCH   1  27
TORSDOF 4
ENDMDL
MODEL 3
REMARK VINA RESULT:      -7.9      2.723      3.903
REMARK  4 active torsions:
REMARK  status: ('A' for Active; 'I' for Inactive)
REMARK    1  A    between atoms: O1_2  and  C2_3 
REMARK    2  A    between atoms: C7_8  and  O2_9 
REMARK    3  A    between atoms: N1_13  and  C10_14 
REMARK    4  A    between atoms: C10_14  and  N2_15 
ROOT
HETATM    1  C2  UNL     1      27.040   7.403  49.056  1.00  0.00     0.102 A 
HETATM    2  C3  UNL     1      25.971   7.492  49.917  1.00  0.00     0.051 A 
HETATM    3  C4  UNL     1      25.269   6.381  50.319  1.00  0.00     0.006 A 
HETATM    4  C5  UNL     1      25.668   5.132  49.827  1.00  0.00     0.088 A 
HETATM    5  C6  UNL     1      26.751   5.034  48.953  1.00  0.00     0.077 A 
HETATM    6  C7  UNL     1      27.440   6.177  48.566  1.00  0.00     0.104 A 
HETATM    7  O3  UNL     1      25.146   3.861  50.063  1.00  0.00    -0.294 OA
HETATM    8  C9  UNL     1      24.329   3.535  51.150  1.00  0.00     0.171 C 
HETATM    9  N1  UNL     1      24.427   2.388  51.688  1.00  0.00    -0.247 NA
HETATM   10  C17 UNL     1      23.321   4.428  51.761  1.00  0.00     0.355 C 
HETATM   11  N4  UNL     1      23.126   5.644  51.001  1.00  0.00     0.095 N 
HETATM   12  C18 UNL     1      24.134   6.635  51.256  1.00  0.00     0.311 C 
HETATM   13  H21 UNL     1      23.039   5.454  49.982  1.00  0.00     0.316 HD
ENDROOT
BRANCH   9  14
HETATM   14  C10 UNL     1      23.693   1.865  52.796  1.00  0.00     0.297 C 
BRANCH  14  15
HETATM   15  N2  UNL     1      23.045   0.647  52.376  1.00  0.00    -0.266 N 
HETATM   16  N3  UNL     1      22.027   0.821  51.491  1.00  0.00    -0.309 N 
HETATM   17  C11 UNL     1      20.617   0.695  51.693  1.00  0.00     0.107 C 
HETATM   18  H11 UNL     1      22.262   1.090  50.490  1.00  0.00     0.186 HD
HETATM   19  C12 UNL     1      19.987   0.397  52.829  1.00  0.00     0.018 C 
HETATM   20  C13 UNL     1      20.616   0.133  54.124  1.00  0.00     0.002 C 
HETATM   21  C14 UNL     1      21.877  -0.198  54.357  1.00  0.00     0.040 C 
HETATM   22  C15 UNL     1      22.948  -0.378  53.336  1.00  0.00     0.207 C 
HETATM   23  C16 UNL     1      24.264  -0.511  54.061  1.00  0.00     0.083 C 
HETATM   24  F1  UNL     1      22.747  -1.586  52.653  1.00  0.00    -0.213 F 
ENDBRANCH  14  15
ENDBRANCH   9  14
BRANCH   6  25
HETATM   25  O2  UNL     1      28.530   6.161  47.699  1.00  0.00    -0.353 OA
HETATM   26  C8  UNL     1      29.764   5.656  48.140  1.00  0.00     0.210 C 
ENDBRANCH   6  25
BRANCH   1  27
HETATM   27  O1  UNL     1      27.726   8.564  48.675  1.00  0.00    -0.353 OA
HETATM   28  C1  UNL     1      28.168   9.416  49.699  1.00  0.00     0.210 C 
ENDBRANCH   1  27
TORSDOF 4
ENDMDL
MODEL 4
REMARK VINA RESULT:      -7.7      1.381      1.878
REMARK  4 active torsions:
REMARK  status: ('A' for Active; 'I' for Inactive)
REMARK    1  A    between atoms: O1_2  and  C2_3 
REMARK    2  A    between atoms: C7_8  and  O2_9 
REMARK    3  A    between atoms: N1_13  and  C10_14 
REMARK    4  A    between atoms: C10_14  and  N2_15 
ROOT
HETATM    1  C2  UNL     1      24.885   7.451  47.821  1.00  0.00     0.102 A 
HETATM    2  C3  UNL     1      23.894   6.531  48.070  1.00  0.00     0.051 A 
HETATM    3  C4  UNL     1      24.149   5.350  48.727  1.00  0.00     0.006 A 
HETATM    4  C5  UNL     1      25.461   5.096  49.145  1.00  0.00     0.088 A 
HETATM    5  C6  UNL     1      26.472   6.025  48.894  1.00  0.00     0.077 A 
HETATM    6  C7  UNL     1      26.181   7.209  48.228  1.00  0.00     0.104 A 
HETATM    7  O3  UNL     1      25.996   3.999  49.819  1.00  0.00    -0.294 OA
HETATM    8  C9  UNL     1      25.239   3.080  50.552  1.00  0.00     0.171 C 
HETATM    9  N1  UNL     1      25.722   2.568  51.609  1.00  0.00    -0.247 NA
HETATM   10  C17 UNL     1      23.876   2.625  50.203  1.00  0.00     0.355 C 
HETATM   11  N4  UNL     1      23.450   3.096  48.903  1.00  0.00     0.095 N 
HETATM   12  C18 UNL     1      22.973   4.452  48.925  1.00  0.00     0.311 C 
HETATM   13  H21 UNL     1      24.191   2.974  48.185  1.00  0.00     0.316 HD
ENDROOT
BRANCH   9  14
HETATM   14  C10 UNL     1      25.117   1.621  52.490  1.00  0.00     0.297 C 
BRANCH  14  15
HETATM   15  N2  UNL     1      25.899   1.566  53.702  1.00  0.00    -0.266 N 
HETATM   16  N3  UNL     1      26.888   2.494  53.783  1.00  0.00    -0.309 N 
HETATM   17  C11 UNL     1      28.304   2.325  53.674  1.00  0.00     0.107 C 
HETATM   18  H11 UNL     1      26.622   3.510  53.952  1.00  0.00     0.186 HD
HETATM   19  C12 UNL     1      28.966   1.192  53.438  1.00  0.00     0.018 C 
HETATM   20  C13 UNL     1      28.374  -0.131  53.238  1.00  0.00     0.002 C 
HETATM   21  C14 UNL     1      27.159  -0.532  53.581  1.00  0.00     0.040 C 
HETATM   22  C15 UNL     1      26.113   0.288  54.255  1.00  0.00     0.207 C 
HETATM   23  C16 UNL     1      24.821  -0.491  54.228  1.00  0.00     0.083 C 
HETATM   24  F1  UNL     1      26.447   0.458  55.605  1.00  0.00    -0.213 F 
ENDBRANCH  14  15
ENDBRANCH   9  14
BRANCH   6  25
HETATM   25  O2  UNL     1      27.132   8.185  47.941  1.00  0.00    -0.353 OA
HETATM   26  C8  UNL     1      28.217   8.376  48.813  1.00  0.00     0.210 C 
ENDBRANCH   6  25
BRANCH   1  27
HETATM   27  O1  UNL     1      24.576   8.641  47.148  1.00  0.00    -0.353 OA
HETATM   28  C1  UNL     1      23.980   9.669  47.896  1.00  0.00     0.210 C 
ENDBRANCH   1  27
TORSDOF 4
ENDMDL
MODEL 5
REMARK VINA RESULT:      -7.7      4.245      7.839
REMARK  4 active torsions:
REMARK  status: ('A' for Active; 'I' for Inactive)
REMARK    1  A    between atoms: O1_2  and  C2_3 
REMARK    2  A    between atoms: C7_8  and  O2_9 
REMARK    3  A    between atoms: N1_13  and  C10_14 
REMARK    4  A    between atoms: C10_14  and  N2_15 
ROOT
HETATM    1  C2  UNL     1      26.088  -0.096  53.647  1.00  0.00     0.102 A 
HETATM    2  C3  UNL     1      24.836  -0.169  53.081  1.00  0.00     0.051 A 
HETATM    3  C4  UNL     1      24.071   0.953  52.867  1.00  0.00     0.006 A 
HETATM    4  C5  UNL     1      24.598   2.195  53.243  1.00  0.00     0.088 A 
HETATM    5  C6  UNL     1      25.867   2.276  53.819  1.00  0.00     0.077 A 
HETATM    6  C7  UNL     1      26.615   1.123  54.021  1.00  0.00     0.104 A 
HETATM    7  O3  UNL     1      24.051   3.473  53.145  1.00  0.00    -0.294 OA
HETATM    8  C9  UNL     1      22.993   3.814  52.297  1.00  0.00     0.171 C 
HETATM    9  N1  UNL     1      22.969   4.961  51.751  1.00  0.00    -0.247 NA
HETATM   10  C17 UNL     1      21.852   2.936  51.958  1.00  0.00     0.355 C 
HETATM   11  N4  UNL     1      21.836   1.721  52.743  1.00  0.00     0.095 N 
HETATM   12  C18 UNL     1      22.735   0.717  52.244  1.00  0.00     0.311 C 
HETATM   13  H21 UNL     1      22.010   1.909  53.751  1.00  0.00     0.316 HD
ENDROOT
BRANCH   9  14
HETATM   14  C10 UNL     1      21.988   5.497  50.862  1.00  0.00     0.297 C 
BRANCH  14  15
HETATM   15  N2  UNL     1      22.662   5.971  49.677  1.00  0.00    -0.266 N 
HETATM   16  N3  UNL     1      23.577   5.108  49.159  1.00  0.00    -0.309 N 
HETATM   17  C11 UNL     1      25.005   5.184  49.171  1.00  0.00     0.107 C 
HETATM   18  H11 UNL     1      23.230   4.234  48.664  1.00  0.00     0.186 HD
HETATM   19  C12 UNL     1      25.758   6.130  49.730  1.00  0.00     0.018 C 
HETATM   20  C13 UNL     1      25.275   7.305  50.457  1.00  0.00     0.002 C 
HETATM   21  C14 UNL     1      24.064   7.839  50.415  1.00  0.00     0.040 C 
HETATM   22  C15 UNL     1      22.910   7.355  49.605  1.00  0.00     0.207 C 
HETATM   23  C16 UNL     1      21.681   8.108  50.049  1.00  0.00     0.083 C 
HETATM   24  F1  UNL     1      23.112   7.683  48.257  1.00  0.00    -0.213 F 
ENDBRANCH  14  15
ENDBRANCH   9  14
BRANCH   6  25
HETATM   25  O2  UNL     1      27.887   1.121  54.588  1.00  0.00    -0.353 OA
HETATM   26  C8  UNL     1      28.986   1.560  53.833  1.00  0.00     0.210 C 
ENDBRANCH   6  25
BRANCH   1  27
HETATM   27  O1  UNL     1      26.831  -1.268  53.845  1.00  0.00    -0.353 OA
HETATM   28  C1  UNL     1      27.168  -2.017  52.708  1.00  0.00     0.210 C 
ENDBRANCH   1  27
TORSDOF 4
ENDMDL
MODEL 6
REMARK VINA RESULT:      -7.5      1.837      2.473
REMARK  4 active torsions:
REMARK  status: ('A' for Active; 'I' for Inactive)
REMARK    1  A    between atoms: O1_2  and  C2_3 
REMARK    2  A    between atoms: C7_8  and  O2_9 
REMARK    3  A    between atoms: N1_13  and  C10_14 
REMARK    4  A    between atoms: C10_14  and  N2_15 
ROOT
HETATM    1  C2  UNL     1      27.105   9.857  48.945  1.00  0.00     0.102 A 
HETATM    2  C3  UNL     1      25.926   9.166  49.098  1.00  0.00     0.051 A 
HETATM    3  C4  UNL     1      25.879   7.793  49.047  1.00  0.00     0.006 A 
HETATM    4  C5  UNL     1      27.075   7.097  48.835  1.00  0.00     0.088 A 
HETATM    5  C6  UNL     1      28.275   7.793  48.678  1.00  0.00     0.077 A 
HETATM    6  C7  UNL     1      28.288   9.180  48.734  1.00  0.00     0.104 A 
HETATM    7  O3  UNL     1      27.317   5.727  48.740  1.00  0.00    -0.294 OA
HETATM    8  C9  UNL     1      26.448   4.740  49.214  1.00  0.00     0.171 C 
HETATM    9  N1  UNL     1      26.922   3.670  49.709  1.00  0.00    -0.247 NA
HETATM   10  C17 UNL     1      24.971   4.820  49.196  1.00  0.00     0.355 C 
HETATM   11  N4  UNL     1      24.488   5.969  48.463  1.00  0.00     0.095 N 
HETATM   12  C18 UNL     1      24.528   7.183  49.230  1.00  0.00     0.311 C 
HETATM   13  H21 UNL     1      24.982   6.086  47.555  1.00  0.00     0.316 HD
ENDROOT
BRANCH   9  14
HETATM   14  C10 UNL     1      26.213   2.552  50.243  1.00  0.00     0.297 C 
BRANCH  14  15
HETATM   15  N2  UNL     1      26.191   2.674  51.680  1.00  0.00    -0.266 N 
HETATM   16  N3  UNL     1      27.417   2.724  52.265  1.00  0.00    -0.309 N 
HETATM   17  C11 UNL     1      28.094   1.732  53.043  1.00  0.00     0.107 C 
HETATM   18  H11 UNL     1      27.998   3.608  52.157  1.00  0.00     0.186 HD
HETATM   19  C12 UNL     1      27.661   0.508  53.344  1.00  0.00     0.018 C 
HETATM   20  C13 UNL     1      26.386  -0.084  52.937  1.00  0.00     0.002 C 
HETATM   21  C14 UNL     1      25.302   0.547  52.511  1.00  0.00     0.040 C 
HETATM   22  C15 UNL     1      25.140   2.020  52.351  1.00  0.00     0.207 C 
HETATM   23  C16 UNL     1      23.846   2.269  51.617  1.00  0.00     0.083 C 
HETATM   24  F1  UNL     1      25.002   2.616  53.613  1.00  0.00    -0.213 F 
ENDBRANCH  14  15
ENDBRANCH   9  14
BRANCH   6  25
HETATM   25  O2  UNL     1      29.444   9.945  48.589  1.00  0.00    -0.353 OA
HETATM   26  C8  UNL     1      30.516   9.762  49.478  1.00  0.00     0.210 C 
ENDBRANCH   6  25
BRANCH   1  27
HETATM   27  O1  UNL     1      27.103  11.258  49.004  1.00  0.00    -0.353 OA
HETATM   28  C1  UNL     1      26.428  11.945  47.983  1.00  0.00     0.210 C 
ENDBRANCH   1  27
TORSDOF 4
ENDMDL
MODEL 7
REMARK VINA RESULT:      -7.5      4.565      8.238
REMARK  4 active torsions:
REMARK  status: ('A' for Active; 'I' for Inactive)
REMARK    1  A    between atoms: O1_2  and  C2_3 
REMARK    2  A    between atoms: C7_8  and  O2_9 
REMARK    3  A    between atoms: N1_13  and  C10_14 
REMARK    4  A    between atoms: C10_14  and  N2_15 
ROOT
HETATM    1  C2  UNL     1      26.926   0.113  53.942  1.00  0.00     0.102 A 
HETATM    2  C3  UNL     1      27.262   1.068  53.010  1.00  0.00     0.051 A 
HETATM    3  C4  UNL     1      26.313   1.686  52.231  1.00  0.00     0.006 A 
HETATM    4  C5  UNL     1      24.973   1.322  52.406  1.00  0.00     0.088 A 
HETATM    5  C6  UNL     1      24.625   0.354  53.349  1.00  0.00     0.077 A 
HETATM    6  C7  UNL     1      25.608  -0.253  54.121  1.00  0.00     0.104 A 
HETATM    7  O3  UNL     1      23.824   1.778  51.763  1.00  0.00    -0.294 OA
HETATM    8  C9  UNL     1      23.741   2.982  51.056  1.00  0.00     0.171 C 
HETATM    9  N1  UNL     1      22.662   3.651  51.078  1.00  0.00    -0.247 NA
HETATM   10  C17 UNL     1      24.831   3.577  50.253  1.00  0.00     0.355 C 
HETATM   11  N4  UNL     1      25.966   2.690  50.116  1.00  0.00     0.095 N 
HETATM   12  C18 UNL     1      26.830   2.701  51.265  1.00  0.00     0.311 C 
HETATM   13  H21 UNL     1      25.675   1.721  49.879  1.00  0.00     0.316 HD
ENDROOT
BRANCH   9  14
HETATM   14  C10 UNL     1      22.378   4.892  50.430  1.00  0.00     0.297 C 
BRANCH  14  15
HETATM   15  N2  UNL     1      21.342   4.666  49.453  1.00  0.00    -0.266 N 
HETATM   16  N3  UNL     1      20.378   3.787  49.838  1.00  0.00    -0.309 N 
HETATM   17  C11 UNL     1      20.140   2.449  49.394  1.00  0.00     0.107 C 
HETATM   18  H11 UNL     1      19.675   4.092  50.575  1.00  0.00     0.186 HD
HETATM   19  C12 UNL     1      20.848   1.755  48.503  1.00  0.00     0.018 C 
HETATM   20  C13 UNL     1      22.033   2.226  47.783  1.00  0.00     0.002 C 
HETATM   21  C14 UNL     1      22.424   3.478  47.603  1.00  0.00     0.040 C 
HETATM   22  C15 UNL     1      21.733   4.702  48.100  1.00  0.00     0.207 C 
HETATM   23  C16 UNL     1      22.651   5.878  47.876  1.00  0.00     0.083 C 
HETATM   24  F1  UNL     1      20.586   4.940  47.330  1.00  0.00    -0.213 F 
ENDBRANCH  14  15
ENDBRANCH   9  14
BRANCH   6  25
HETATM   25  O2  UNL     1      25.341  -1.225  55.082  1.00  0.00    -0.353 OA
HETATM   26  C8  UNL     1      24.048  -1.335  55.620  1.00  0.00     0.210 C 
ENDBRANCH   6  25
BRANCH   1  27
HETATM   27  O1  UNL     1      27.929  -0.490  54.714  1.00  0.00    -0.353 OA
HETATM   28  C1  UNL     1      29.234  -0.475  54.199  1.00  0.00     0.210 C 
ENDBRANCH   1  27
TORSDOF 4
ENDMDL
MODEL 8
REMARK VINA RESULT:      -7.4      6.055      9.469
REMARK  4 active torsions:
REMARK  status: ('A' for Active; 'I' for Inactive)
REMARK    1  A    between atoms: O1_2  and  C2_3 
REMARK    2  A    between atoms: C7_8  and  O2_9 
REMARK    3  A    between atoms: N1_13  and  C10_14 
REMARK    4  A    between atoms: C10_14  and  N2_15 
ROOT
HETATM    1  C2  UNL     1      25.628  -0.283  53.705  1.00  0.00     0.102 A 
HETATM    2  C3  UNL     1      24.544  -0.812  54.367  1.00  0.00     0.051 A 
HETATM    3  C4  UNL     1      23.254  -0.482  54.025  1.00  0.00     0.006 A 
HETATM    4  C5  UNL     1      23.059   0.420  52.971  1.00  0.00     0.088 A 
HETATM    5  C6  UNL     1      24.154   0.961  52.297  1.00  0.00     0.077 A 
HETATM    6  C7  UNL     1      25.445   0.606  52.667  1.00  0.00     0.104 A 
HETATM    7  O3  UNL     1      21.881   0.923  52.422  1.00  0.00    -0.294 OA
HETATM    8  C9  UNL     1      20.623   0.332  52.579  1.00  0.00     0.171 C 
HETATM    9  N1  UNL     1      19.785   0.375  51.626  1.00  0.00    -0.247 NA
HETATM   10  C17 UNL     1      20.153  -0.366  53.796  1.00  0.00     0.355 C 
HETATM   11  N4  UNL     1      21.072  -0.227  54.904  1.00  0.00     0.095 N 
HETATM   12  C18 UNL     1      22.182  -1.136  54.832  1.00  0.00     0.311 C 
HETATM   13  H21 UNL     1      21.401   0.754  55.015  1.00  0.00     0.316 HD
ENDROOT
BRANCH   9  14
HETATM   14  C10 UNL     1      18.463  -0.163  51.587  1.00  0.00     0.297 C 
BRANCH  14  15
HETATM   15  N2  UNL     1      17.894   0.125  50.292  1.00  0.00    -0.266 N 
HETATM   16  N3  UNL     1      18.621   0.987  49.532  1.00  0.00    -0.309 N 
HETATM   17  C11 UNL     1      18.351   2.350  49.194  1.00  0.00     0.107 C 
HETATM   18  H11 UNL     1      19.532   0.645  49.102  1.00  0.00     0.186 HD
HETATM   19  C12 UNL     1      17.314   3.089  49.587  1.00  0.00     0.018 C 
HETATM   20  C13 UNL     1      16.220   2.653  50.457  1.00  0.00     0.002 C 
HETATM   21  C14 UNL     1      15.856   1.410  50.736  1.00  0.00     0.040 C 
HETATM   22  C15 UNL     1      16.489   0.165  50.216  1.00  0.00     0.207 C 
HETATM   23  C16 UNL     1      15.913  -1.002  50.979  1.00  0.00     0.083 C 
HETATM   24  F1  UNL     1      16.128  -0.021  48.874  1.00  0.00    -0.213 F 
ENDBRANCH  14  15
ENDBRANCH   9  14
BRANCH   6  25
HETATM   25  O2  UNL     1      26.588   1.102  52.043  1.00  0.00    -0.353 OA
HETATM   26  C8  UNL     1      26.538   2.339  51.380  1.00  0.00     0.210 C 
ENDBRANCH   6  25
BRANCH   1  27
HETATM   27  O1  UNL     1      26.925  -0.650  54.090  1.00  0.00    -0.353 OA
HETATM   28  C1  UNL     1      27.601   0.204  54.975  1.00  0.00     0.210 C 
ENDBRANCH   1  27
TORSDOF 4
ENDMDL
MODEL 9
REMARK VINA RESULT:      -7.4      2.266      3.869
REMARK  4 active torsions:
REMARK  status: ('A' for Active; 'I' for Inactive)
REMARK    1  A    between atoms: O1_2  and  C2_3 
REMARK    2  A    between atoms: C7_8  and  O2_9 
REMARK    3  A    between atoms: N1_13  and  C10_14 
REMARK    4  A    between atoms: C10_14  and  N2_15 
ROOT
HETATM    1  C2  UNL     1      32.050   6.987  48.092  1.00  0.00     0.102 A 
HETATM    2  C3  UNL     1      30.858   7.644  48.290  1.00  0.00     0.051 A 
HETATM    3  C4  UNL     1      29.659   6.972  48.337  1.00  0.00     0.006 A 
HETATM    4  C5  UNL     1      29.673   5.581  48.178  1.00  0.00     0.088 A 
HETATM    5  C6  UNL     1      30.879   4.909  47.976  1.00  0.00     0.077 A 
HETATM    6  C7  UNL     1      32.073   5.617  47.933  1.00  0.00     0.104 A 
HETATM    7  O3  UNL     1      28.624   4.663  48.182  1.00  0.00    -0.294 OA
HETATM    8  C9  UNL     1      27.360   4.914  48.723  1.00  0.00     0.171 C 
HETATM    9  N1  UNL     1      26.722   3.975  49.295  1.00  0.00    -0.247 NA
HETATM   10  C17 UNL     1      26.661   6.218  48.696  1.00  0.00     0.355 C 
HETATM   11  N4  UNL     1      27.348   7.196  47.880  1.00  0.00     0.095 N 
HETATM   12  C18 UNL     1      28.450   7.820  48.559  1.00  0.00     0.311 C 
HETATM   13  H21 UNL     1      27.650   6.798  46.969  1.00  0.00     0.316 HD
ENDROOT
BRANCH   9  14
HETATM   14  C10 UNL     1      25.433   4.026  49.905  1.00  0.00     0.297 C 
BRANCH  14  15
HETATM   15  N2  UNL     1      25.582   3.717  51.306  1.00  0.00    -0.266 N 
HETATM   16  N3  UNL     1      26.736   3.072  51.627  1.00  0.00    -0.309 N 
HETATM   17  C11 UNL     1      26.939   1.708  52.006  1.00  0.00     0.107 C 
HETATM   18  H11 UNL     1      27.648   3.619  51.607  1.00  0.00     0.186 HD
HETATM   19  C12 UNL     1      26.017   0.751  52.103  1.00  0.00     0.018 C 
HETATM   20  C13 UNL     1      24.585   0.898  51.838  1.00  0.00     0.002 C 
HETATM   21  C14 UNL     1      23.883   2.020  51.795  1.00  0.00     0.040 C 
HETATM   22  C15 UNL     1      24.404   3.400  52.010  1.00  0.00     0.207 C 
HETATM   23  C16 UNL     1      23.317   4.373  51.630  1.00  0.00     0.083 C 
HETATM   24  F1  UNL     1      24.656   3.599  53.375  1.00  0.00    -0.213 F 
ENDBRANCH  14  15
ENDBRANCH   9  14
BRANCH   6  25
HETATM   25  O2  UNL     1      33.316   5.018  47.737  1.00  0.00    -0.353 OA
HETATM   26  C8  UNL     1      33.385   3.683  47.307  1.00  0.00     0.210 C 
ENDBRANCH   6  25
BRANCH   1  27
HETATM   27  O1  UNL     1      33.247   7.715  48.050  1.00  0.00    -0.353 OA
HETATM   28  C1  UNL     1      33.389   8.664  47.027  1.00  0.00     0.210 C 
ENDBRANCH   1  27
TORSDOF 4
ENDMDL
