MODEL 1
REMARK VINA RESULT:      -7.0      0.000      0.000
REMARK  7 active torsions:
REMARK  status: ('A' for Active; 'I' for Inactive)
REMARK    1  A    between atoms: C3_3  and  C4_4 
REMARK    2  A    between atoms: C5_5  and  N1_6 
REMARK    3  A    between atoms: N1_6  and  C6_7 
REMARK    4  A    between atoms: C10_13  and  C11_14 
REMARK    5  A    between atoms: C11_14  and  O1_15 
REMARK    6  A    between atoms: C12_16  and  C13_17 
REMARK    7  A    between atoms: C13_17  and  O2_18 
ROOT
HETATM    1  C6  UNL     1      24.157   2.204  53.104  1.00  0.00     0.141 A 
HETATM    2  N2  UNL     1      22.948   1.607  52.957  1.00  0.00    -0.224 NA
HETATM    3  C7  UNL     1      22.873   0.243  52.962  1.00  0.00     0.236 A 
HETATM    4  N3  UNL     1      24.003  -0.471  53.113  1.00  0.00    -0.241 NA
HETATM    5  C8  UNL     1      25.212   0.047  53.260  1.00  0.00     0.072 A 
HETATM    6  C9  UNL     1      26.372  -0.682  53.414  1.00  0.00     0.042 A 
HETATM    7  C10 UNL     1      27.625  -0.124  53.567  1.00  0.00    -0.024 A 
HETATM    8  C12 UNL     1      27.709   1.254  53.562  1.00  0.00    -0.025 A 
HETATM    9  C14 UNL     1      26.535   2.000  53.406  1.00  0.00     0.027 A 
HETATM   10  C15 UNL     1      25.294   1.419  53.256  1.00  0.00     0.039 A 
ENDROOT
BRANCH   1  11
HETATM   11  N1  UNL     1      24.370   3.622  53.114  1.00  0.00    -0.350 N 
HETATM   12  H8  UNL     1      25.231   3.742  53.672  1.00  0.00     0.166 HD
BRANCH  11  13
HETATM   13  C5  UNL     1      23.495   4.540  52.452  1.00  0.00     0.090 C 
HETATM   14  C4  UNL     1      23.747   4.948  51.199  1.00  0.00     0.017 C 
BRANCH  14  15
HETATM   15  C3  UNL     1      24.932   4.438  50.528  1.00  0.00    -0.003 C 
HETATM   16  C2  UNL     1      24.816   3.541  49.577  1.00  0.00    -0.031 C 
HETATM   17  C1  UNL     1      23.535   2.982  49.108  1.00  0.00     0.036 C 
ENDBRANCH  14  15
ENDBRANCH  11  13
ENDBRANCH   1  11
BRANCH   8  18
HETATM   18  C13 UNL     1      29.002   1.965  53.720  1.00  0.00     0.203 C 
BRANCH  18  19
HETATM   19  O2  UNL     1      29.044   3.110  52.935  1.00  0.00    -0.396 OA
HETATM   20  H16 UNL     1      28.418   3.774  53.296  1.00  0.00     0.209 HD
ENDBRANCH  18  19
ENDBRANCH   8  18
BRANCH   7  21
HETATM   21  C11 UNL     1      28.842  -0.956  53.729  1.00  0.00     0.203 C 
BRANCH  21  22
HETATM   22  O1  UNL     1      28.684  -2.275  53.377  1.00  0.00    -0.396 OA
HETATM   23  H13 UNL     1      29.097  -2.864  54.052  1.00  0.00     0.209 HD
ENDBRANCH  21  22
ENDBRANCH   7  21
TORSDOF 7
ENDMDL
MODEL 2
REMARK VINA RESULT:      -7.0      2.831      4.146
REMARK  7 active torsions:
REMARK  status: ('A' for Active; 'I' for Inactive)
REMARK    1  A    between atoms: C3_3  and  C4_4 
REMARK    2  A    between atoms: C5_5  and  N1_6 
REMARK    3  A    between atoms: N1_6  and  C6_7 
REMARK    4  A    between atoms: C10_13  and  C11_14 
REMARK    5  A    between atoms: C11_14  and  O1_15 
REMARK    6  A    between atoms: C12_16  and  C13_17 
REMARK    7  A    between atoms: C13_17  and  O2_18 
ROOT
HETATM    1  C6  UNL     1      26.912   2.093  52.475  1.00  0.00     0.141 A 
HETATM    2  N2  UNL     1      28.208   1.860  52.802  1.00  0.00    -0.224 NA
HETATM    3  C7  UNL     1      28.508   0.821  53.637  1.00  0.00     0.236 A 
HETATM    4  N3  UNL     1      27.508   0.057  54.112  1.00  0.00    -0.241 NA
HETATM    5  C8  UNL     1      26.225   0.229  53.834  1.00  0.00     0.072 A 
HETATM    6  C9  UNL     1      25.198  -0.551  54.319  1.00  0.00     0.042 A 
HETATM    7  C10 UNL     1      23.865  -0.356  54.018  1.00  0.00    -0.024 A 
HETATM    8  C12 UNL     1      23.554   0.692  53.175  1.00  0.00    -0.025 A 
HETATM    9  C14 UNL     1      24.592   1.489  52.678  1.00  0.00     0.027 A 
HETATM   10  C15 UNL     1      25.917   1.273  52.994  1.00  0.00     0.039 A 
ENDROOT
BRANCH   1  11
HETATM   11  N1  UNL     1      26.466   3.149  51.612  1.00  0.00    -0.350 N 
HETATM   12  H8  UNL     1      26.108   3.868  52.261  1.00  0.00     0.166 HD
BRANCH  11  13
HETATM   13  C5  UNL     1      26.562   3.074  50.187  1.00  0.00     0.090 C 
HETATM   14  C4  UNL     1      25.608   3.602  49.406  1.00  0.00     0.017 C 
BRANCH  14  15
HETATM   15  C3  UNL     1      24.472   4.253  50.040  1.00  0.00    -0.003 C 
HETATM   16  C2  UNL     1      23.263   3.765  49.889  1.00  0.00    -0.031 C 
HETATM   17  C1  UNL     1      22.942   2.562  49.100  1.00  0.00     0.036 C 
ENDBRANCH  14  15
ENDBRANCH  11  13
ENDBRANCH   1  11
BRANCH   8  18
HETATM   18  C13 UNL     1      22.157   0.996  52.779  1.00  0.00     0.203 C 
BRANCH  18  19
HETATM   19  O2  UNL     1      21.807   0.326  51.614  1.00  0.00    -0.396 OA
HETATM   20  H16 UNL     1      22.472   0.516  50.918  1.00  0.00     0.209 HD
ENDBRANCH  18  19
ENDBRANCH   8  18
BRANCH   7  21
HETATM   21  C11 UNL     1      22.798  -1.226  54.569  1.00  0.00     0.203 C 
BRANCH  21  22
HETATM   22  O1  UNL     1      23.070  -1.747  55.811  1.00  0.00    -0.396 OA
HETATM   23  H13 UNL     1      22.385  -1.463  56.462  1.00  0.00     0.209 HD
ENDBRANCH  21  22
ENDBRANCH   7  21
TORSDOF 7
ENDMDL
MODEL 3
REMARK VINA RESULT:      -6.9      2.818      5.555
REMARK  7 active torsions:
REMARK  status: ('A' for Active; 'I' for Inactive)
REMARK    1  A    between atoms: C3_3  and  C4_4 
REMARK    2  A    between atoms: C5_5  and  N1_6 
REMARK    3  A    between atoms: N1_6  and  C6_7 
REMARK    4  A    between atoms: C10_13  and  C11_14 
REMARK    5  A    between atoms: C11_14  and  O1_15 
REMARK    6  A    between atoms: C12_16  and  C13_17 
REMARK    7  A    between atoms: C13_17  and  O2_18 
ROOT
HETATM    1  C6  UNL     1      26.392  -0.336  54.199  1.00  0.00     0.141 A 
HETATM    2  N2  UNL     1      27.591  -0.398  54.829  1.00  0.00    -0.224 NA
HETATM    3  C7  UNL     1      28.557   0.517  54.517  1.00  0.00     0.236 A 
HETATM    4  N3  UNL     1      28.290   1.456  53.591  1.00  0.00    -0.241 NA
HETATM    5  C8  UNL     1      27.143   1.573  52.940  1.00  0.00     0.072 A 
HETATM    6  C9  UNL     1      26.866   2.532  51.990  1.00  0.00     0.042 A 
HETATM    7  C10 UNL     1      25.664   2.639  51.321  1.00  0.00    -0.024 A 
HETATM    8  C12 UNL     1      24.683   1.718  51.631  1.00  0.00    -0.025 A 
HETATM    9  C14 UNL     1      24.958   0.740  52.595  1.00  0.00     0.027 A 
HETATM   10  C15 UNL     1      26.168   0.655  53.250  1.00  0.00     0.039 A 
ENDROOT
BRANCH   1  11
HETATM   11  N1  UNL     1      25.299  -1.235  54.435  1.00  0.00    -0.350 N 
HETATM   12  H8  UNL     1      25.314  -1.866  53.618  1.00  0.00     0.166 HD
BRANCH  11  13
HETATM   13  C5  UNL     1      24.463  -1.147  55.593  1.00  0.00     0.090 C 
HETATM   14  C4  UNL     1      23.130  -1.248  55.486  1.00  0.00     0.017 C 
BRANCH  14  15
HETATM   15  C3  UNL     1      22.552  -1.448  54.167  1.00  0.00    -0.003 C 
HETATM   16  C2  UNL     1      21.542  -0.709  53.771  1.00  0.00    -0.031 C 
HETATM   17  C1  UNL     1      20.917   0.353  54.580  1.00  0.00     0.036 C 
ENDBRANCH  14  15
ENDBRANCH  11  13
ENDBRANCH   1  11
BRANCH   8  18
HETATM   18  C13 UNL     1      23.351   1.735  50.978  1.00  0.00     0.203 C 
BRANCH  18  19
HETATM   19  O2  UNL     1      22.396   2.319  51.801  1.00  0.00    -0.396 OA
HETATM   20  H16 UNL     1      22.845   2.777  52.544  1.00  0.00     0.209 HD
ENDBRANCH  18  19
ENDBRANCH   8  18
BRANCH   7  21
HETATM   21  C11 UNL     1      25.419   3.692  50.307  1.00  0.00     0.203 C 
BRANCH  21  22
HETATM   22  O1  UNL     1      26.411   4.638  50.213  1.00  0.00    -0.396 OA
HETATM   23  H13 UNL     1      26.140   5.470  50.670  1.00  0.00     0.209 HD
ENDBRANCH  21  22
ENDBRANCH   7  21
TORSDOF 7
ENDMDL
MODEL 4
REMARK VINA RESULT:      -6.8      3.829      6.371
REMARK  7 active torsions:
REMARK  status: ('A' for Active; 'I' for Inactive)
REMARK    1  A    between atoms: C3_3  and  C4_4 
REMARK    2  A    between atoms: C5_5  and  N1_6 
REMARK    3  A    between atoms: N1_6  and  C6_7 
REMARK    4  A    between atoms: C10_13  and  C11_14 
REMARK    5  A    between atoms: C11_14  and  O1_15 
REMARK    6  A    between atoms: C12_16  and  C13_17 
REMARK    7  A    between atoms: C13_17  and  O2_18 
ROOT
HETATM    1  C6  UNL     1      24.090  -0.204  53.779  1.00  0.00     0.141 A 
HETATM    2  N2  UNL     1      24.702  -0.810  54.827  1.00  0.00    -0.224 NA
HETATM    3  C7  UNL     1      23.956  -1.560  55.692  1.00  0.00     0.236 A 
HETATM    4  N3  UNL     1      22.633  -1.676  55.479  1.00  0.00    -0.241 NA
HETATM    5  C8  UNL     1      21.974  -1.112  54.478  1.00  0.00     0.072 A 
HETATM    6  C9  UNL     1      20.619  -1.228  54.258  1.00  0.00     0.042 A 
HETATM    7  C10 UNL     1      19.949  -0.632  53.209  1.00  0.00    -0.024 A 
HETATM    8  C12 UNL     1      20.696   0.127  52.330  1.00  0.00    -0.025 A 
HETATM    9  C14 UNL     1      22.074   0.250  52.549  1.00  0.00     0.027 A 
HETATM   10  C15 UNL     1      22.720  -0.357  53.605  1.00  0.00     0.039 A 
ENDROOT
BRANCH   1  11
HETATM   11  N1  UNL     1      24.758   0.608  52.803  1.00  0.00    -0.350 N 
HETATM   12  H8  UNL     1      24.493   0.183  51.900  1.00  0.00     0.166 HD
BRANCH  11  13
HETATM   13  C5  UNL     1      25.578   1.725  53.159  1.00  0.00     0.090 C 
HETATM   14  C4  UNL     1      26.916   1.643  53.096  1.00  0.00     0.017 C 
BRANCH  14  15
HETATM   15  C3  UNL     1      27.515   0.393  52.659  1.00  0.00    -0.003 C 
HETATM   16  C2  UNL     1      28.297  -0.283  53.468  1.00  0.00    -0.031 C 
HETATM   17  C1  UNL     1      28.633   0.132  54.842  1.00  0.00     0.036 C 
ENDBRANCH  14  15
ENDBRANCH  11  13
ENDBRANCH   1  11
BRANCH   8  18
HETATM   18  C13 UNL     1      20.085   0.813  51.165  1.00  0.00     0.203 C 
BRANCH  18  19
HETATM   19  O2  UNL     1      20.845   0.626  50.017  1.00  0.00    -0.396 OA
HETATM   20  H16 UNL     1      20.256   0.636  49.233  1.00  0.00     0.209 HD
ENDBRANCH  18  19
ENDBRANCH   8  18
BRANCH   7  21
HETATM   21  C11 UNL     1      18.487  -0.789  53.018  1.00  0.00     0.203 C 
BRANCH  21  22
HETATM   22  O1  UNL     1      17.811  -1.238  54.127  1.00  0.00    -0.396 OA
HETATM   23  H13 UNL     1      17.854  -0.571  54.853  1.00  0.00     0.209 HD
ENDBRANCH  21  22
ENDBRANCH   7  21
TORSDOF 7
ENDMDL
MODEL 5
REMARK VINA RESULT:      -6.8      2.744      5.425
REMARK  7 active torsions:
REMARK  status: ('A' for Active; 'I' for Inactive)
REMARK    1  A    between atoms: C3_3  and  C4_4 
REMARK    2  A    between atoms: C5_5  and  N1_6 
REMARK    3  A    between atoms: N1_6  and  C6_7 
REMARK    4  A    between atoms: C10_13  and  C11_14 
REMARK    5  A    between atoms: C11_14  and  O1_15 
REMARK    6  A    between atoms: C12_16  and  C13_17 
REMARK    7  A    between atoms: C13_17  and  O2_18 
ROOT
HETATM    1  C6  UNL     1      25.628   1.755  51.674  1.00  0.00     0.141 A 
HETATM    2  N2  UNL     1      25.419   2.654  50.680  1.00  0.00    -0.224 NA
HETATM    3  C7  UNL     1      24.138   2.983  50.337  1.00  0.00     0.236 A 
HETATM    4  N3  UNL     1      23.118   2.403  50.996  1.00  0.00    -0.241 NA
HETATM    5  C8  UNL     1      23.251   1.520  51.973  1.00  0.00     0.072 A 
HETATM    6  C9  UNL     1      22.209   0.925  52.650  1.00  0.00     0.042 A 
HETATM    7  C10 UNL     1      22.368   0.005  53.666  1.00  0.00    -0.024 A 
HETATM    8  C12 UNL     1      23.659  -0.332  54.019  1.00  0.00    -0.025 A 
HETATM    9  C14 UNL     1      24.723   0.269  53.336  1.00  0.00     0.027 A 
HETATM   10  C15 UNL     1      24.538   1.186  52.323  1.00  0.00     0.039 A 
ENDROOT
BRANCH   1  11
HETATM   11  N1  UNL     1      26.920   1.326  52.127  1.00  0.00    -0.350 N 
HETATM   12  H8  UNL     1      26.927   0.312  51.936  1.00  0.00     0.166 HD
BRANCH  11  13
HETATM   13  C5  UNL     1      27.876   2.225  52.697  1.00  0.00     0.090 C 
HETATM   14  C4  UNL     1      28.500   1.926  53.846  1.00  0.00     0.017 C 
BRANCH  14  15
HETATM   15  C3  UNL     1      28.182   0.667  54.501  1.00  0.00    -0.003 C 
HETATM   16  C2  UNL     1      28.951  -0.382  54.323  1.00  0.00    -0.031 C 
HETATM   17  C1  UNL     1      30.160  -0.396  53.481  1.00  0.00     0.036 C 
ENDBRANCH  14  15
ENDBRANCH  11  13
ENDBRANCH   1  11
BRANCH   8  18
HETATM   18  C13 UNL     1      23.952  -1.307  55.099  1.00  0.00     0.203 C 
BRANCH  18  19
HETATM   19  O2  UNL     1      25.267  -1.193  55.534  1.00  0.00    -0.396 OA
HETATM   20  H16 UNL     1      25.707  -2.067  55.467  1.00  0.00     0.209 HD
ENDBRANCH  18  19
ENDBRANCH   8  18
BRANCH   7  21
HETATM   21  C11 UNL     1      21.210  -0.607  54.362  1.00  0.00     0.203 C 
BRANCH  21  22
HETATM   22  O1  UNL     1      20.457   0.273  55.101  1.00  0.00    -0.396 OA
HETATM   23  H13 UNL     1      21.036   0.823  55.680  1.00  0.00     0.209 HD
ENDBRANCH  21  22
ENDBRANCH   7  21
TORSDOF 7
ENDMDL
MODEL 6
REMARK VINA RESULT:      -6.8      1.965      4.505
REMARK  7 active torsions:
REMARK  status: ('A' for Active; 'I' for Inactive)
REMARK    1  A    between atoms: C3_3  and  C4_4 
REMARK    2  A    between atoms: C5_5  and  N1_6 
REMARK    3  A    between atoms: N1_6  and  C6_7 
REMARK    4  A    between atoms: C10_13  and  C11_14 
REMARK    5  A    between atoms: C11_14  and  O1_15 
REMARK    6  A    between atoms: C12_16  and  C13_17 
REMARK    7  A    between atoms: C13_17  and  O2_18 
ROOT
HETATM    1  C6  UNL     1      23.116   1.683  51.151  1.00  0.00     0.141 A 
HETATM    2  N2  UNL     1      22.817   2.409  50.045  1.00  0.00    -0.224 NA
HETATM    3  C7  UNL     1      23.795   3.155  49.452  1.00  0.00     0.236 A 
HETATM    4  N3  UNL     1      25.032   3.149  49.983  1.00  0.00    -0.241 NA
HETATM    5  C8  UNL     1      25.390   2.465  51.058  1.00  0.00     0.072 A 
HETATM    6  C9  UNL     1      26.655   2.457  51.606  1.00  0.00     0.042 A 
HETATM    7  C10 UNL     1      27.011   1.737  52.728  1.00  0.00    -0.024 A 
HETATM    8  C12 UNL     1      26.027   0.980  53.333  1.00  0.00    -0.025 A 
HETATM    9  C14 UNL     1      24.740   0.985  52.783  1.00  0.00     0.027 A 
HETATM   10  C15 UNL     1      24.409   1.712  51.659  1.00  0.00     0.039 A 
ENDROOT
BRANCH   1  11
HETATM   11  N1  UNL     1      22.181   0.863  51.865  1.00  0.00    -0.350 N 
HETATM   12  H8  UNL     1      22.212  -0.042  51.368  1.00  0.00     0.166 HD
BRANCH  11  13
HETATM   13  C5  UNL     1      21.444   1.336  52.996  1.00  0.00     0.090 C 
HETATM   14  C4  UNL     1      20.852   0.477  53.839  1.00  0.00     0.017 C 
BRANCH  14  15
HETATM   15  C3  UNL     1      20.976  -0.948  53.579  1.00  0.00    -0.003 C 
HETATM   16  C2  UNL     1      21.846  -1.668  54.247  1.00  0.00    -0.031 C 
HETATM   17  C1  UNL     1      22.748  -1.135  55.284  1.00  0.00     0.036 C 
ENDBRANCH  14  15
ENDBRANCH  11  13
ENDBRANCH   1  11
BRANCH   8  18
HETATM   18  C13 UNL     1      26.293   0.165  54.544  1.00  0.00     0.203 C 
BRANCH  18  19
HETATM   19  O2  UNL     1      26.167  -1.192  54.273  1.00  0.00    -0.396 OA
HETATM   20  H16 UNL     1      25.706  -1.630  55.020  1.00  0.00     0.209 HD
ENDBRANCH  18  19
ENDBRANCH   8  18
BRANCH   7  21
HETATM   21  C11 UNL     1      28.389   1.764  53.276  1.00  0.00     0.203 C 
BRANCH  21  22
HETATM   22  O1  UNL     1      29.080   2.925  53.027  1.00  0.00    -0.396 OA
HETATM   23  H13 UNL     1      29.436   3.303  53.866  1.00  0.00     0.209 HD
ENDBRANCH  21  22
ENDBRANCH   7  21
TORSDOF 7
ENDMDL
MODEL 7
REMARK VINA RESULT:      -6.7      3.096      4.554
REMARK  7 active torsions:
REMARK  status: ('A' for Active; 'I' for Inactive)
REMARK    1  A    between atoms: C3_3  and  C4_4 
REMARK    2  A    between atoms: C5_5  and  N1_6 
REMARK    3  A    between atoms: N1_6  and  C6_7 
REMARK    4  A    between atoms: C10_13  and  C11_14 
REMARK    5  A    between atoms: C11_14  and  O1_15 
REMARK    6  A    between atoms: C12_16  and  C13_17 
REMARK    7  A    between atoms: C13_17  and  O2_18 
ROOT
HETATM    1  C6  UNL     1      25.613   1.980  51.504  1.00  0.00     0.141 A 
HETATM    2  N2  UNL     1      26.953   1.986  51.715  1.00  0.00    -0.224 NA
HETATM    3  C7  UNL     1      27.478   1.187  52.690  1.00  0.00     0.236 A 
HETATM    4  N3  UNL     1      26.649   0.415  53.417  1.00  0.00    -0.241 NA
HETATM    5  C8  UNL     1      25.335   0.363  53.264  1.00  0.00     0.072 A 
HETATM    6  C9  UNL     1      24.483  -0.426  54.007  1.00  0.00     0.042 A 
HETATM    7  C10 UNL     1      23.114  -0.467  53.833  1.00  0.00    -0.024 A 
HETATM    8  C12 UNL     1      22.576   0.337  52.849  1.00  0.00    -0.025 A 
HETATM    9  C14 UNL     1      23.436   1.141  52.091  1.00  0.00     0.027 A 
HETATM   10  C15 UNL     1      24.801   1.165  52.284  1.00  0.00     0.039 A 
ENDROOT
BRANCH   1  11
HETATM   11  N1  UNL     1      24.940   2.771  50.515  1.00  0.00    -0.350 N 
HETATM   12  H8  UNL     1      24.552   2.075  49.859  1.00  0.00     0.166 HD
BRANCH  11  13
HETATM   13  C5  UNL     1      24.903   4.201  50.563  1.00  0.00     0.090 C 
HETATM   14  C4  UNL     1      25.819   4.934  49.912  1.00  0.00     0.017 C 
BRANCH  14  15
HETATM   15  C3  UNL     1      26.852   4.243  49.156  1.00  0.00    -0.003 C 
HETATM   16  C2  UNL     1      27.757   4.929  48.499  1.00  0.00    -0.031 C 
HETATM   17  C1  UNL     1      27.823   6.401  48.459  1.00  0.00     0.036 C 
ENDBRANCH  14  15
ENDBRANCH  11  13
ENDBRANCH   1  11
BRANCH   8  18
HETATM   18  C13 UNL     1      21.119   0.374  52.571  1.00  0.00     0.203 C 
BRANCH  18  19
HETATM   19  O2  UNL     1      20.854   0.059  51.244  1.00  0.00    -0.396 OA
HETATM   20  H16 UNL     1      20.431   0.829  50.806  1.00  0.00     0.209 HD
ENDBRANCH  18  19
ENDBRANCH   8  18
BRANCH   7  21
HETATM   21  C11 UNL     1      22.242  -1.334  54.662  1.00  0.00     0.203 C 
BRANCH  21  22
HETATM   22  O1  UNL     1      22.867  -1.907  55.744  1.00  0.00    -0.396 OA
HETATM   23  H13 UNL     1      23.383  -1.231  56.243  1.00  0.00     0.209 HD
ENDBRANCH  21  22
ENDBRANCH   7  21
TORSDOF 7
ENDMDL
MODEL 8
REMARK VINA RESULT:      -6.6      2.340      5.537
REMARK  7 active torsions:
REMARK  status: ('A' for Active; 'I' for Inactive)
REMARK    1  A    between atoms: C3_3  and  C4_4 
REMARK    2  A    between atoms: C5_5  and  N1_6 
REMARK    3  A    between atoms: N1_6  and  C6_7 
REMARK    4  A    between atoms: C10_13  and  C11_14 
REMARK    5  A    between atoms: C11_14  and  O1_15 
REMARK    6  A    between atoms: C12_16  and  C13_17 
REMARK    7  A    between atoms: C13_17  and  O2_18 
ROOT
HETATM    1  C6  UNL     1      24.941   0.564  53.242  1.00  0.00     0.141 A 
HETATM    2  N2  UNL     1      24.090  -0.331  53.804  1.00  0.00    -0.224 NA
HETATM    3  C7  UNL     1      22.830  -0.464  53.294  1.00  0.00     0.236 A 
HETATM    4  N3  UNL     1      22.467   0.298  52.246  1.00  0.00    -0.241 NA
HETATM    5  C8  UNL     1      23.247   1.188  51.651  1.00  0.00     0.072 A 
HETATM    6  C9  UNL     1      22.878   1.970  50.577  1.00  0.00     0.042 A 
HETATM    7  C10 UNL     1      23.705   2.893  49.970  1.00  0.00    -0.024 A 
HETATM    8  C12 UNL     1      24.980   3.033  50.480  1.00  0.00    -0.025 A 
HETATM    9  C14 UNL     1      25.361   2.242  51.571  1.00  0.00     0.027 A 
HETATM   10  C15 UNL     1      24.516   1.326  52.160  1.00  0.00     0.039 A 
ENDROOT
BRANCH   1  11
HETATM   11  N1  UNL     1      26.285   0.798  53.683  1.00  0.00    -0.350 N 
HETATM   12  H8  UNL     1      26.679   1.426  52.964  1.00  0.00     0.166 HD
BRANCH  11  13
HETATM   13  C5  UNL     1      26.819   0.218  54.877  1.00  0.00     0.090 C 
HETATM   14  C4  UNL     1      28.144   0.131  55.065  1.00  0.00     0.017 C 
BRANCH  14  15
HETATM   15  C3  UNL     1      29.028   0.639  54.028  1.00  0.00    -0.003 C 
HETATM   16  C2  UNL     1      29.747  -0.191  53.310  1.00  0.00    -0.031 C 
HETATM   17  C1  UNL     1      29.736  -1.657  53.468  1.00  0.00     0.036 C 
ENDBRANCH  14  15
ENDBRANCH  11  13
ENDBRANCH   1  11
BRANCH   8  18
HETATM   18  C13 UNL     1      25.957   3.992  49.907  1.00  0.00     0.203 C 
BRANCH  18  19
HETATM   19  O2  UNL     1      27.217   3.818  50.464  1.00  0.00    -0.396 OA
HETATM   20  H16 UNL     1      27.594   2.967  50.154  1.00  0.00     0.209 HD
ENDBRANCH  18  19
ENDBRANCH   8  18
BRANCH   7  21
HETATM   21  C11 UNL     1      23.258   3.710  48.816  1.00  0.00     0.203 C 
BRANCH  21  22
HETATM   22  O1  UNL     1      22.557   4.843  49.155  1.00  0.00    -0.396 OA
HETATM   23  H13 UNL     1      22.541   5.478  48.400  1.00  0.00     0.209 HD
ENDBRANCH  21  22
ENDBRANCH   7  21
TORSDOF 7
ENDMDL
MODEL 9
REMARK VINA RESULT:      -6.5      4.075      6.051
REMARK  7 active torsions:
REMARK  status: ('A' for Active; 'I' for Inactive)
REMARK    1  A    between atoms: C3_3  and  C4_4 
REMARK    2  A    between atoms: C5_5  and  N1_6 
REMARK    3  A    between atoms: N1_6  and  C6_7 
REMARK    4  A    between atoms: C10_13  and  C11_14 
REMARK    5  A    between atoms: C11_14  and  O1_15 
REMARK    6  A    between atoms: C12_16  and  C13_17 
REMARK    7  A    between atoms: C13_17  and  O2_18 
ROOT
HETATM    1  C6  UNL     1      23.734  -0.141  53.541  1.00  0.00     0.141 A 
HETATM    2  N2  UNL     1      24.378  -0.719  54.587  1.00  0.00    -0.224 NA
HETATM    3  C7  UNL     1      23.663  -1.468  55.478  1.00  0.00     0.236 A 
HETATM    4  N3  UNL     1      22.338  -1.613  55.293  1.00  0.00    -0.241 NA
HETATM    5  C8  UNL     1      21.650  -1.078  54.296  1.00  0.00     0.072 A 
HETATM    6  C9  UNL     1      20.293  -1.223  54.105  1.00  0.00     0.042 A 
HETATM    7  C10 UNL     1      19.592  -0.657  53.059  1.00  0.00    -0.024 A 
HETATM    8  C12 UNL     1      20.307   0.102  52.155  1.00  0.00    -0.025 A 
HETATM    9  C14 UNL     1      21.686   0.254  52.344  1.00  0.00     0.027 A 
HETATM   10  C15 UNL     1      22.364  -0.322  53.397  1.00  0.00     0.039 A 
ENDROOT
BRANCH   1  11
HETATM   11  N1  UNL     1      24.368   0.668  52.541  1.00  0.00    -0.350 N 
HETATM   12  H8  UNL     1      24.213   0.147  51.663  1.00  0.00     0.166 HD
BRANCH  11  13
HETATM   13  C5  UNL     1      25.029   1.899  52.847  1.00  0.00     0.090 C 
HETATM   14  C4  UNL     1      24.803   3.000  52.116  1.00  0.00     0.017 C 
BRANCH  14  15
HETATM   15  C3  UNL     1      23.870   2.917  51.004  1.00  0.00    -0.003 C 
HETATM   16  C2  UNL     1      22.706   3.519  51.072  1.00  0.00    -0.031 C 
HETATM   17  C1  UNL     1      22.241   4.307  52.228  1.00  0.00     0.036 C 
ENDBRANCH  14  15
ENDBRANCH  11  13
ENDBRANCH   1  11
BRANCH   8  18
HETATM   18  C13 UNL     1      19.661   0.757  50.991  1.00  0.00     0.203 C 
BRANCH  18  19
HETATM   19  O2  UNL     1      19.433   2.106  51.236  1.00  0.00    -0.396 OA
HETATM   20  H16 UNL     1      18.505   2.326  51.005  1.00  0.00     0.209 HD
ENDBRANCH  18  19
ENDBRANCH   8  18
BRANCH   7  21
HETATM   21  C11 UNL     1      18.130  -0.845  52.900  1.00  0.00     0.203 C 
BRANCH  21  22
HETATM   22  O1  UNL     1      17.488  -1.315  54.020  1.00  0.00    -0.396 OA
HETATM   23  H13 UNL     1      16.605  -1.686  53.783  1.00  0.00     0.209 HD
ENDBRANCH  21  22
ENDBRANCH   7  21
TORSDOF 7
ENDMDL
