MODEL 1
REMARK VINA RESULT:      -8.5      0.000      0.000
REMARK  3 active torsions:
REMARK  status: ('A' for Active; 'I' for Inactive)
REMARK    1  A    between atoms: C3_3  and  C4_4 
REMARK    2  A    between atoms: C5_5  and  N1_6 
REMARK    3  A    between atoms: N1_6  and  C6_7 
ROOT
HETATM    1  C6  UNL     1      20.981  -0.115  53.621  1.00  0.00     0.041 A 
HETATM    2  C7  UNL     1      21.900  -0.137  52.672  1.00  0.00     0.020 A 
HETATM    3  C8  UNL     1      21.733   0.184  51.267  1.00  0.00     0.060 C 
HETATM    4  C9  UNL     1      22.163   1.205  50.581  1.00  0.00     0.124 C 
HETATM    5 CL1  UNL     1      21.796   1.329  48.850  1.00  0.00    -0.063 Cl
HETATM    6  N2  UNL     1      22.935   2.282  51.108  1.00  0.00    -0.255 N 
HETATM    7  O1  UNL     1      23.607   1.954  52.235  1.00  0.00    -0.278 OA
HETATM    8  C10 UNL     1      24.686   2.736  52.528  1.00  0.00     0.221 C 
HETATM    9  C11 UNL     1      25.405   2.331  53.792  1.00  0.00     0.151 C 
HETATM   10  N3  UNL     1      25.907   0.973  53.718  1.00  0.00    -0.378 N 
HETATM   11  C12 UNL     1      26.963   0.646  54.675  1.00  0.00     0.149 C 
HETATM   12  C13 UNL     1      28.177   0.345  53.783  1.00  0.00     0.187 C 
HETATM   13  O2  UNL     1      27.954  -0.757  53.006  1.00  0.00    -0.384 OA
HETATM   14  C14 UNL     1      26.801  -0.712  52.227  1.00  0.00     0.224 C 
HETATM   15  C15 UNL     1      25.638  -0.169  52.932  1.00  0.00     0.033 C 
HETATM   16  C16 UNL     1      24.468  -0.757  52.791  1.00  0.00     0.059 C 
HETATM   17  C17 UNL     1      23.122  -0.547  53.294  1.00  0.00     0.065 A 
HETATM   18  N4  UNL     1      22.925  -0.754  54.550  1.00  0.00    -0.283 NA
HETATM   19  C18 UNL     1      21.539  -0.507  54.922  1.00  0.00     0.207 A 
HETATM   20  H10 UNL     1      22.936   3.208  50.623  1.00  0.00     0.195 HD
ENDROOT
BRANCH   1  21
HETATM   21  N1  UNL     1      19.645   0.272  53.237  1.00  0.00    -0.367 N 
HETATM   22  H8  UNL     1      19.459   1.298  53.166  1.00  0.00     0.165 HD
BRANCH  21  23
HETATM   23  C5  UNL     1      18.542  -0.574  52.940  1.00  0.00     0.088 C 
HETATM   24  C4  UNL     1      18.395  -1.748  53.553  1.00  0.00     0.017 C 
BRANCH  24  25
HETATM   25  C3  UNL     1      17.268  -2.596  53.239  1.00  0.00    -0.003 C 
HETATM   26  C2  UNL     1      17.240  -3.844  53.636  1.00  0.00    -0.031 C 
HETATM   27  C1  UNL     1      16.139  -4.782  53.365  1.00  0.00     0.036 C 
ENDBRANCH  24  25
ENDBRANCH  21  23
ENDBRANCH   1  21
TORSDOF 3
ENDMDL
MODEL 2
REMARK VINA RESULT:      -7.6      3.330      7.420
REMARK  3 active torsions:
REMARK  status: ('A' for Active; 'I' for Inactive)
REMARK    1  A    between atoms: C3_3  and  C4_4 
REMARK    2  A    between atoms: C5_5  and  N1_6 
REMARK    3  A    between atoms: N1_6  and  C6_7 
ROOT
HETATM    1  C6  UNL     1      24.386   1.695  52.108  1.00  0.00     0.041 A 
HETATM    2  C7  UNL     1      23.208   1.313  51.649  1.00  0.00     0.020 A 
HETATM    3  C8  UNL     1      22.282   0.374  52.254  1.00  0.00     0.060 C 
HETATM    4  C9  UNL     1      21.126   0.578  52.819  1.00  0.00     0.124 C 
HETATM    5 CL1  UNL     1      20.206  -0.787  53.480  1.00  0.00    -0.063 Cl
HETATM    6  N2  UNL     1      20.497   1.850  52.966  1.00  0.00    -0.255 N 
HETATM    7  O1  UNL     1      20.928   2.763  52.066  1.00  0.00    -0.278 OA
HETATM    8  C10 UNL     1      20.085   3.812  51.837  1.00  0.00     0.221 C 
HETATM    9  C11 UNL     1      20.607   4.803  50.825  1.00  0.00     0.151 C 
HETATM   10  N3  UNL     1      20.834   4.187  49.533  1.00  0.00    -0.378 N 
HETATM   11  C12 UNL     1      20.912   5.116  48.406  1.00  0.00     0.149 C 
HETATM   12  C13 UNL     1      19.705   4.732  47.538  1.00  0.00     0.187 C 
HETATM   13  O2  UNL     1      19.837   3.461  47.050  1.00  0.00    -0.384 OA
HETATM   14  C14 UNL     1      20.056   2.477  48.008  1.00  0.00     0.224 C 
HETATM   15  C15 UNL     1      21.007   2.872  49.049  1.00  0.00     0.033 C 
HETATM   16  C16 UNL     1      21.920   2.011  49.448  1.00  0.00     0.059 C 
HETATM   17  C17 UNL     1      23.004   2.006  50.414  1.00  0.00     0.065 A 
HETATM   18  N4  UNL     1      24.017   2.760  50.164  1.00  0.00    -0.283 NA
HETATM   19  C18 UNL     1      25.028   2.662  51.208  1.00  0.00     0.207 A 
HETATM   20  H10 UNL     1      19.783   1.995  53.715  1.00  0.00     0.195 HD
ENDROOT
BRANCH   1  21
HETATM   21  N1  UNL     1      24.824   1.126  53.360  1.00  0.00    -0.367 N 
HETATM   22  H8  UNL     1      24.189   1.257  54.179  1.00  0.00     0.165 HD
BRANCH  21  23
HETATM   23  C5  UNL     1      26.020   0.403  53.620  1.00  0.00     0.088 C 
HETATM   24  C4  UNL     1      26.477  -0.499  52.751  1.00  0.00     0.017 C 
BRANCH  24  25
HETATM   25  C3  UNL     1      27.695  -1.224  53.031  1.00  0.00    -0.003 C 
HETATM   26  C2  UNL     1      28.773  -0.593  53.424  1.00  0.00    -0.031 C 
HETATM   27  C1  UNL     1      30.056  -1.243  53.732  1.00  0.00     0.036 C 
ENDBRANCH  24  25
ENDBRANCH  21  23
ENDBRANCH   1  21
TORSDOF 3
ENDMDL
MODEL 3
REMARK VINA RESULT:      -7.6      5.027      9.826
REMARK  3 active torsions:
REMARK  status: ('A' for Active; 'I' for Inactive)
REMARK    1  A    between atoms: C3_3  and  C4_4 
REMARK    2  A    between atoms: C5_5  and  N1_6 
REMARK    3  A    between atoms: N1_6  and  C6_7 
ROOT
HETATM    1  C6  UNL     1      26.250   5.479  48.966  1.00  0.00     0.041 A 
HETATM    2  C7  UNL     1      25.633   4.360  49.302  1.00  0.00     0.020 A 
HETATM    3  C8  UNL     1      26.215   3.166  49.886  1.00  0.00     0.060 C 
HETATM    4  C9  UNL     1      26.101   2.675  51.087  1.00  0.00     0.124 C 
HETATM    5 CL1  UNL     1      26.943   1.175  51.518  1.00  0.00    -0.063 Cl
HETATM    6  N2  UNL     1      25.328   3.251  52.139  1.00  0.00    -0.255 N 
HETATM    7  O1  UNL     1      24.340   4.059  51.693  1.00  0.00    -0.278 OA
HETATM    8  C10 UNL     1      23.308   4.268  52.561  1.00  0.00     0.221 C 
HETATM    9  C11 UNL     1      22.229   5.173  52.020  1.00  0.00     0.151 C 
HETATM   10  N3  UNL     1      21.630   4.639  50.812  1.00  0.00    -0.378 N 
HETATM   11  C12 UNL     1      20.322   5.195  50.468  1.00  0.00     0.149 C 
HETATM   12  C13 UNL     1      19.378   3.987  50.573  1.00  0.00     0.187 C 
HETATM   13  O2  UNL     1      19.694   3.036  49.641  1.00  0.00    -0.384 OA
HETATM   14  C14 UNL     1      21.015   2.601  49.661  1.00  0.00     0.224 C 
HETATM   15  C15 UNL     1      21.987   3.681  49.838  1.00  0.00     0.033 C 
HETATM   16  C16 UNL     1      23.083   3.688  49.107  1.00  0.00     0.059 C 
HETATM   17  C17 UNL     1      24.251   4.541  48.978  1.00  0.00     0.065 A 
HETATM   18  N4  UNL     1      24.069   5.712  48.475  1.00  0.00    -0.283 NA
HETATM   19  C18 UNL     1      25.316   6.462  48.402  1.00  0.00     0.207 A 
HETATM   20  H10 UNL     1      25.557   3.030  53.134  1.00  0.00     0.195 HD
ENDROOT
BRANCH   1  21
HETATM   21  N1  UNL     1      27.673   5.544  49.198  1.00  0.00    -0.367 N 
HETATM   22  H8  UNL     1      27.978   5.681  50.188  1.00  0.00     0.165 HD
BRANCH  21  23
HETATM   23  C5  UNL     1      28.719   5.443  48.242  1.00  0.00     0.088 C 
HETATM   24  C4  UNL     1      29.979   5.725  48.573  1.00  0.00     0.017 C 
BRANCH  24  25
HETATM   25  C3  UNL     1      31.031   5.617  47.587  1.00  0.00    -0.003 C 
HETATM   26  C2  UNL     1      31.613   4.467  47.356  1.00  0.00    -0.031 C 
HETATM   27  C1  UNL     1      32.690   4.259  46.376  1.00  0.00     0.036 C 
ENDBRANCH  24  25
ENDBRANCH  21  23
ENDBRANCH   1  21
TORSDOF 3
ENDMDL
MODEL 4
REMARK VINA RESULT:      -7.4      4.233      7.821
REMARK  3 active torsions:
REMARK  status: ('A' for Active; 'I' for Inactive)
REMARK    1  A    between atoms: C3_3  and  C4_4 
REMARK    2  A    between atoms: C5_5  and  N1_6 
REMARK    3  A    between atoms: N1_6  and  C6_7 
ROOT
HETATM    1  C6  UNL     1      25.503   2.884  51.370  1.00  0.00     0.041 A 
HETATM    2  C7  UNL     1      24.290   2.521  50.991  1.00  0.00     0.020 A 
HETATM    3  C8  UNL     1      23.307   1.778  51.757  1.00  0.00     0.060 C 
HETATM    4  C9  UNL     1      22.181   2.169  52.284  1.00  0.00     0.124 C 
HETATM    5 CL1  UNL     1      21.172   1.017  53.180  1.00  0.00    -0.063 Cl
HETATM    6  N2  UNL     1      21.655   3.492  52.208  1.00  0.00    -0.255 N 
HETATM    7  O1  UNL     1      22.137   4.197  51.158  1.00  0.00    -0.278 OA
HETATM    8  C10 UNL     1      21.372   5.252  50.753  1.00  0.00     0.221 C 
HETATM    9  C11 UNL     1      21.949   6.007  49.580  1.00  0.00     0.151 C 
HETATM   10  N3  UNL     1      22.104   5.158  48.414  1.00  0.00    -0.378 N 
HETATM   11  C12 UNL     1      22.231   5.866  47.141  1.00  0.00     0.149 C 
HETATM   12  C13 UNL     1      20.981   5.432  46.361  1.00  0.00     0.187 C 
HETATM   13  O2  UNL     1      21.006   4.089  46.104  1.00  0.00    -0.384 OA
HETATM   14  C14 UNL     1      21.168   3.273  47.219  1.00  0.00     0.224 C 
HETATM   15  C15 UNL     1      22.166   3.769  48.169  1.00  0.00     0.033 C 
HETATM   16  C16 UNL     1      23.018   2.922  48.709  1.00  0.00     0.059 C 
HETATM   17  C17 UNL     1      24.116   3.001  49.655  1.00  0.00     0.065 A 
HETATM   18  N4  UNL     1      25.179   3.618  49.270  1.00  0.00    -0.283 NA
HETATM   19  C18 UNL     1      26.200   3.624  50.310  1.00  0.00     0.207 A 
HETATM   20  H10 UNL     1      20.968   3.822  52.923  1.00  0.00     0.195 HD
ENDROOT
BRANCH   1  21
HETATM   21  N1  UNL     1      25.920   2.510  52.700  1.00  0.00    -0.367 N 
HETATM   22  H8  UNL     1      25.470   3.024  53.491  1.00  0.00     0.165 HD
BRANCH  21  23
HETATM   23  C5  UNL     1      26.872   1.522  53.071  1.00  0.00     0.088 C 
HETATM   24  C4  UNL     1      26.782   0.276  52.606  1.00  0.00     0.017 C 
BRANCH  24  25
HETATM   25  C3  UNL     1      27.759  -0.716  52.994  1.00  0.00    -0.003 C 
HETATM   26  C2  UNL     1      28.953  -0.356  53.395  1.00  0.00    -0.031 C 
HETATM   27  C1  UNL     1      30.012  -1.289  53.809  1.00  0.00     0.036 C 
ENDBRANCH  24  25
ENDBRANCH  21  23
ENDBRANCH   1  21
TORSDOF 3
ENDMDL
MODEL 5
REMARK VINA RESULT:      -7.3      8.650     12.445
REMARK  3 active torsions:
REMARK  status: ('A' for Active; 'I' for Inactive)
REMARK    1  A    between atoms: C3_3  and  C4_4 
REMARK    2  A    between atoms: C5_5  and  N1_6 
REMARK    3  A    between atoms: N1_6  and  C6_7 
ROOT
HETATM    1  C6  UNL     1      29.817   6.958  48.564  1.00  0.00     0.041 A 
HETATM    2  C7  UNL     1      28.619   6.537  48.198  1.00  0.00     0.020 A 
HETATM    3  C8  UNL     1      28.026   5.233  48.432  1.00  0.00     0.060 C 
HETATM    4  C9  UNL     1      27.053   4.881  49.223  1.00  0.00     0.124 C 
HETATM    5 CL1  UNL     1      26.538   3.186  49.299  1.00  0.00    -0.063 Cl
HETATM    6  N2  UNL     1      26.326   5.766  50.073  1.00  0.00    -0.255 N 
HETATM    7  O1  UNL     1      26.369   7.055  49.663  1.00  0.00    -0.278 OA
HETATM    8  C10 UNL     1      25.365   7.856  50.122  1.00  0.00     0.221 C 
HETATM    9  C11 UNL     1      25.454   9.283  49.637  1.00  0.00     0.151 C 
HETATM   10  N3  UNL     1      25.398   9.366  48.190  1.00  0.00    -0.378 N 
HETATM   11  C12 UNL     1      25.042  10.680  47.656  1.00  0.00     0.149 C 
HETATM   12  C13 UNL     1      23.704  10.428  46.943  1.00  0.00     0.187 C 
HETATM   13  O2  UNL     1      23.864   9.571  45.890  1.00  0.00    -0.384 OA
HETATM   14  C14 UNL     1      24.466   8.355  46.199  1.00  0.00     0.224 C 
HETATM   15  C15 UNL     1      25.604   8.479  47.112  1.00  0.00     0.033 C 
HETATM   16  C16 UNL     1      26.697   7.782  46.876  1.00  0.00     0.059 C 
HETATM   17  C17 UNL     1      27.995   7.624  47.508  1.00  0.00     0.065 A 
HETATM   18  N4  UNL     1      28.792   8.635  47.474  1.00  0.00    -0.283 NA
HETATM   19  C18 UNL     1      30.054   8.343  48.141  1.00  0.00     0.207 A 
HETATM   20  H10 UNL     1      25.831   5.392  50.914  1.00  0.00     0.195 HD
ENDROOT
BRANCH   1  21
HETATM   21  N1  UNL     1      30.651   6.027  49.286  1.00  0.00    -0.367 N 
HETATM   22  H8  UNL     1      30.264   5.650  50.180  1.00  0.00     0.165 HD
BRANCH  21  23
HETATM   23  C5  UNL     1      31.944   5.557  48.930  1.00  0.00     0.088 C 
HETATM   24  C4  UNL     1      32.112   4.725  47.902  1.00  0.00     0.017 C 
BRANCH  24  25
HETATM   25  C3  UNL     1      33.434   4.257  47.555  1.00  0.00    -0.003 C 
HETATM   26  C2  UNL     1      33.714   3.902  46.326  1.00  0.00    -0.031 C 
HETATM   27  C1  UNL     1      35.028   3.414  45.877  1.00  0.00     0.036 C 
ENDBRANCH  24  25
ENDBRANCH  21  23
ENDBRANCH   1  21
TORSDOF 3
ENDMDL
MODEL 6
REMARK VINA RESULT:      -7.3      3.229      3.954
REMARK  3 active torsions:
REMARK  status: ('A' for Active; 'I' for Inactive)
REMARK    1  A    between atoms: C3_3  and  C4_4 
REMARK    2  A    between atoms: C5_5  and  N1_6 
REMARK    3  A    between atoms: N1_6  and  C6_7 
ROOT
HETATM    1  C6  UNL     1      19.817  -0.574  53.300  1.00  0.00     0.041 A 
HETATM    2  C7  UNL     1      19.774  -0.005  52.108  1.00  0.00     0.020 A 
HETATM    3  C8  UNL     1      18.610   0.208  51.268  1.00  0.00     0.060 C 
HETATM    4  C9  UNL     1      17.988   1.310  50.956  1.00  0.00     0.124 C 
HETATM    5 CL1  UNL     1      16.571   1.259  49.891  1.00  0.00    -0.063 Cl
HETATM    6  N2  UNL     1      18.351   2.613  51.408  1.00  0.00    -0.255 N 
HETATM    7  O1  UNL     1      19.649   2.706  51.777  1.00  0.00    -0.278 OA
HETATM    8  C10 UNL     1      20.177   3.964  51.774  1.00  0.00     0.221 C 
HETATM    9  C11 UNL     1      21.627   4.018  52.191  1.00  0.00     0.151 C 
HETATM   10  N3  UNL     1      22.471   3.231  51.314  1.00  0.00    -0.378 N 
HETATM   11  C12 UNL     1      23.895   3.560  51.361  1.00  0.00     0.149 C 
HETATM   12  C13 UNL     1      24.192   4.078  49.946  1.00  0.00     0.187 C 
HETATM   13  O2  UNL     1      24.016   3.090  49.016  1.00  0.00    -0.384 OA
HETATM   14  C14 UNL     1      22.770   2.471  49.036  1.00  0.00     0.224 C 
HETATM   15  C15 UNL     1      22.278   2.185  50.385  1.00  0.00     0.033 C 
HETATM   16  C16 UNL     1      21.711   1.022  50.631  1.00  0.00     0.059 C 
HETATM   17  C17 UNL     1      21.116   0.369  51.783  1.00  0.00     0.065 A 
HETATM   18  N4  UNL     1      21.907   0.036  52.743  1.00  0.00    -0.283 NA
HETATM   19  C18 UNL     1      21.185  -0.607  53.833  1.00  0.00     0.207 A 
HETATM   20  H10 UNL     1      17.637   3.376  51.427  1.00  0.00     0.195 HD
ENDROOT
BRANCH   1  21
HETATM   21  N1  UNL     1      18.569  -1.044  53.853  1.00  0.00    -0.367 N 
HETATM   22  H8  UNL     1      17.978  -0.333  54.339  1.00  0.00     0.165 HD
BRANCH  21  23
HETATM   23  C5  UNL     1      18.041  -2.363  53.818  1.00  0.00     0.088 C 
HETATM   24  C4  UNL     1      16.942  -2.642  53.117  1.00  0.00     0.017 C 
BRANCH  24  25
HETATM   25  C3  UNL     1      16.419  -3.989  53.093  1.00  0.00    -0.003 C 
HETATM   26  C2  UNL     1      16.288  -4.674  54.201  1.00  0.00    -0.031 C 
HETATM   27  C1  UNL     1      15.766  -6.048  54.276  1.00  0.00     0.036 C 
ENDBRANCH  24  25
ENDBRANCH  21  23
ENDBRANCH   1  21
TORSDOF 3
ENDMDL
MODEL 7
REMARK VINA RESULT:      -7.3      7.036      9.894
REMARK  3 active torsions:
REMARK  status: ('A' for Active; 'I' for Inactive)
REMARK    1  A    between atoms: C3_3  and  C4_4 
REMARK    2  A    between atoms: C5_5  and  N1_6 
REMARK    3  A    between atoms: N1_6  and  C6_7 
ROOT
HETATM    1  C6  UNL     1      26.875   4.929  49.300  1.00  0.00     0.041 A 
HETATM    2  C7  UNL     1      26.232   6.026  48.941  1.00  0.00     0.020 A 
HETATM    3  C8  UNL     1      24.933   6.483  49.397  1.00  0.00     0.060 C 
HETATM    4  C9  UNL     1      24.616   7.484  50.169  1.00  0.00     0.124 C 
HETATM    5 CL1  UNL     1      22.915   7.802  50.559  1.00  0.00    -0.063 Cl
HETATM    6  N2  UNL     1      25.545   8.391  50.759  1.00  0.00    -0.255 N 
HETATM    7  O1  UNL     1      26.721   8.458  50.092  1.00  0.00    -0.278 OA
HETATM    8  C10 UNL     1      27.454   9.590  50.297  1.00  0.00     0.221 C 
HETATM    9  C11 UNL     1      28.755   9.620  49.532  1.00  0.00     0.151 C 
HETATM   10  N3  UNL     1      28.542   9.538  48.100  1.00  0.00    -0.378 N 
HETATM   11  C12 UNL     1      29.664   9.990  47.278  1.00  0.00     0.149 C 
HETATM   12  C13 UNL     1      29.098  11.210  46.535  1.00  0.00     0.187 C 
HETATM   13  O2  UNL     1      28.079  10.845  45.699  1.00  0.00    -0.384 OA
HETATM   14  C14 UNL     1      27.041  10.140  46.300  1.00  0.00     0.224 C 
HETATM   15  C15 UNL     1      27.495   9.122  47.250  1.00  0.00     0.033 C 
HETATM   16  C16 UNL     1      26.920   7.937  47.247  1.00  0.00     0.059 C 
HETATM   17  C17 UNL     1      27.067   6.700  47.994  1.00  0.00     0.065 A 
HETATM   18  N4  UNL     1      28.149   6.027  47.809  1.00  0.00    -0.283 NA
HETATM   19  C18 UNL     1      28.169   4.814  48.615  1.00  0.00     0.207 A 
HETATM   20  H10 UNL     1      25.281   8.921  51.620  1.00  0.00     0.195 HD
ENDROOT
BRANCH   1  21
HETATM   21  N1  UNL     1      26.228   4.069  50.261  1.00  0.00    -0.367 N 
HETATM   22  H8  UNL     1      25.380   4.454  50.735  1.00  0.00     0.165 HD
BRANCH  21  23
HETATM   23  C5  UNL     1      26.602   2.753  50.645  1.00  0.00     0.088 C 
HETATM   24  C4  UNL     1      26.790   2.441  51.927  1.00  0.00     0.017 C 
BRANCH  24  25
HETATM   25  C3  UNL     1      27.170   1.097  52.300  1.00  0.00    -0.003 C 
HETATM   26  C2  UNL     1      26.343   0.097  52.125  1.00  0.00    -0.031 C 
HETATM   27  C1  UNL     1      26.638  -1.302  52.473  1.00  0.00     0.036 C 
ENDBRANCH  24  25
ENDBRANCH  21  23
ENDBRANCH   1  21
TORSDOF 3
ENDMDL
MODEL 8
REMARK VINA RESULT:      -7.1      3.030      7.380
REMARK  3 active torsions:
REMARK  status: ('A' for Active; 'I' for Inactive)
REMARK    1  A    between atoms: C3_3  and  C4_4 
REMARK    2  A    between atoms: C5_5  and  N1_6 
REMARK    3  A    between atoms: N1_6  and  C6_7 
ROOT
HETATM    1  C6  UNL     1      22.562  -0.300  53.244  1.00  0.00     0.041 A 
HETATM    2  C7  UNL     1      22.353   0.875  52.676  1.00  0.00     0.020 A 
HETATM    3  C8  UNL     1      23.286   1.659  51.890  1.00  0.00     0.060 C 
HETATM    4  C9  UNL     1      23.301   1.917  50.613  1.00  0.00     0.124 C 
HETATM    5 CL1  UNL     1      24.590   2.923  49.924  1.00  0.00    -0.063 Cl
HETATM    6  N2  UNL     1      22.339   1.449  49.670  1.00  0.00    -0.255 N 
HETATM    7  O1  UNL     1      21.151   1.133  50.234  1.00  0.00    -0.278 OA
HETATM    8  C10 UNL     1      20.078   1.127  49.390  1.00  0.00     0.221 C 
HETATM    9  C11 UNL     1      18.776   0.771  50.064  1.00  0.00     0.151 C 
HETATM   10  N3  UNL     1      18.443   1.702  51.125  1.00  0.00    -0.378 N 
HETATM   11  C12 UNL     1      17.038   1.707  51.530  1.00  0.00     0.149 C 
HETATM   12  C13 UNL     1      16.562   3.120  51.163  1.00  0.00     0.187 C 
HETATM   13  O2  UNL     1      17.219   4.066  51.900  1.00  0.00    -0.384 OA
HETATM   14  C14 UNL     1      18.608   4.009  51.837  1.00  0.00     0.224 C 
HETATM   15  C15 UNL     1      19.143   2.648  51.905  1.00  0.00     0.033 C 
HETATM   16  C16 UNL     1      20.198   2.407  52.657  1.00  0.00     0.059 C 
HETATM   17  C17 UNL     1      21.006   1.247  52.986  1.00  0.00     0.065 A 
HETATM   18  N4  UNL     1      20.454   0.330  53.702  1.00  0.00    -0.283 NA
HETATM   19  C18 UNL     1      21.370  -0.773  53.959  1.00  0.00     0.207 A 
HETATM   20  H10 UNL     1      22.591   1.381  48.658  1.00  0.00     0.195 HD
ENDROOT
BRANCH   1  21
HETATM   21  N1  UNL     1      23.866  -0.893  53.073  1.00  0.00    -0.367 N 
HETATM   22  H8  UNL     1      23.917  -1.739  52.462  1.00  0.00     0.165 HD
BRANCH  21  23
HETATM   23  C5  UNL     1      25.100  -0.466  53.635  1.00  0.00     0.088 C 
HETATM   24  C4  UNL     1      26.235  -0.555  52.943  1.00  0.00     0.017 C 
BRANCH  24  25
HETATM   25  C3  UNL     1      27.481  -0.116  53.530  1.00  0.00    -0.003 C 
HETATM   26  C2  UNL     1      28.595  -0.762  53.293  1.00  0.00    -0.031 C 
HETATM   27  C1  UNL     1      29.908  -0.393  53.844  1.00  0.00     0.036 C 
ENDBRANCH  24  25
ENDBRANCH  21  23
ENDBRANCH   1  21
TORSDOF 3
ENDMDL
MODEL 9
REMARK VINA RESULT:      -7.0      7.846     12.085
REMARK  3 active torsions:
REMARK  status: ('A' for Active; 'I' for Inactive)
REMARK    1  A    between atoms: C3_3  and  C4_4 
REMARK    2  A    between atoms: C5_5  and  N1_6 
REMARK    3  A    between atoms: N1_6  and  C6_7 
ROOT
HETATM    1  C6  UNL     1      28.154   7.530  48.538  1.00  0.00     0.041 A 
HETATM    2  C7  UNL     1      27.140   6.700  48.364  1.00  0.00     0.020 A 
HETATM    3  C8  UNL     1      27.123   5.265  48.573  1.00  0.00     0.060 C 
HETATM    4  C9  UNL     1      26.535   4.555  49.494  1.00  0.00     0.124 C 
HETATM    5 CL1  UNL     1      26.697   2.789  49.494  1.00  0.00    -0.063 Cl
HETATM    6  N2  UNL     1      25.737   5.083  50.552  1.00  0.00    -0.255 N 
HETATM    7  O1  UNL     1      25.223   6.303  50.273  1.00  0.00    -0.278 OA
HETATM    8  C10 UNL     1      24.121   6.659  50.994  1.00  0.00     0.221 C 
HETATM    9  C11 UNL     1      23.582   8.026  50.647  1.00  0.00     0.151 C 
HETATM   10  N3  UNL     1      23.193   8.117  49.254  1.00  0.00    -0.378 N 
HETATM   11  C12 UNL     1      22.281   9.214  48.933  1.00  0.00     0.149 C 
HETATM   12  C13 UNL     1      21.006   8.497  48.464  1.00  0.00     0.187 C 
HETATM   13  O2  UNL     1      21.236   7.787  47.318  1.00  0.00    -0.384 OA
HETATM   14  C14 UNL     1      22.287   6.878  47.383  1.00  0.00     0.224 C 
HETATM   15  C15 UNL     1      23.470   7.397  48.071  1.00  0.00     0.033 C 
HETATM   16  C16 UNL     1      24.664   7.167  47.563  1.00  0.00     0.059 C 
HETATM   17  C17 UNL     1      26.034   7.491  47.919  1.00  0.00     0.065 A 
HETATM   18  N4  UNL     1      26.385   8.727  47.838  1.00  0.00    -0.283 NA
HETATM   19  C18 UNL     1      27.778   8.914  48.220  1.00  0.00     0.207 A 
HETATM   20  H10 UNL     1      25.603   4.531  51.429  1.00  0.00     0.195 HD
ENDROOT
BRANCH   1  21
HETATM   21  N1  UNL     1      29.401   6.963  48.990  1.00  0.00    -0.367 N 
HETATM   22  H8  UNL     1      29.345   6.285  49.783  1.00  0.00     0.165 HD
BRANCH  21  23
HETATM   23  C5  UNL     1      30.707   7.215  48.489  1.00  0.00     0.088 C 
HETATM   24  C4  UNL     1      31.700   7.562  49.307  1.00  0.00     0.017 C 
BRANCH  24  25
HETATM   25  C3  UNL     1      33.022   7.814  48.779  1.00  0.00    -0.003 C 
HETATM   26  C2  UNL     1      33.949   6.892  48.835  1.00  0.00    -0.031 C 
HETATM   27  C1  UNL     1      35.320   7.055  48.326  1.00  0.00     0.036 C 
ENDBRANCH  24  25
ENDBRANCH  21  23
ENDBRANCH   1  21
TORSDOF 3
ENDMDL
