MODEL 1
REMARK VINA RESULT:      -8.7      0.000      0.000
REMARK  7 active torsions:
REMARK  status: ('A' for Active; 'I' for Inactive)
REMARK    1  A    between atoms: C2_2  and  N1_15 
REMARK    2  A    between atoms: C3_3  and  C4_4 
REMARK    3  A    between atoms: C4_4  and  C5_5 
REMARK    4  A    between atoms: C4_4  and  O1_7 
REMARK    5  A    between atoms: O1_7  and  C6_8 
REMARK    6  A    between atoms: N1_15  and  C12_16 
REMARK    7  A    between atoms: C17_23  and  N4_24 
REMARK       I    between atoms: N4_24  and  C18_25 
REMARK       I    between atoms: C18_25  and  N5_26 
ROOT
HETATM    1  C12 UNL     1      22.463   0.583  52.255  1.00  0.00     0.141 A 
HETATM    2  N2  UNL     1      21.129   0.738  52.284  1.00  0.00    -0.224 NA
HETATM    3  C13 UNL     1      20.388   0.297  53.338  1.00  0.00     0.236 A 
HETATM    4  N3  UNL     1      21.021  -0.307  54.366  1.00  0.00    -0.241 NA
HETATM    5  C14 UNL     1      22.334  -0.484  54.383  1.00  0.00     0.072 A 
HETATM    6  C15 UNL     1      23.030  -1.103  55.424  1.00  0.00     0.035 A 
HETATM    7  C16 UNL     1      24.402  -1.243  55.354  1.00  0.00     0.032 A 
HETATM    8  C17 UNL     1      25.116  -0.774  54.253  1.00  0.00     0.037 A 
HETATM    9  C19 UNL     1      24.456  -0.156  53.206  1.00  0.00     0.047 A 
HETATM   10  C20 UNL     1      23.106  -0.045  53.327  1.00  0.00     0.041 A 
ENDROOT
BRANCH   1  11
HETATM   11  N1  UNL     1      23.040   1.104  51.084  1.00  0.00    -0.344 N 
HETATM   12  H14 UNL     1      23.547   0.413  50.506  1.00  0.00     0.167 HD
BRANCH  11  13
HETATM   13  C2  UNL     1      23.048   2.423  50.553  1.00  0.00     0.005 C 
HETATM   14  C1  UNL     1      22.768   2.427  49.090  1.00  0.00     0.068 C 
HETATM   15  C3  UNL     1      23.275   3.506  51.261  1.00  0.00     0.031 C 
BRANCH  15  16
HETATM   16  C4  UNL     1      23.238   4.804  50.498  1.00  0.00     0.167 C 
BRANCH  16  17
HETATM   17  C5  UNL     1      22.088   5.616  51.064  1.00  0.00     0.151 C 
HETATM   18 CL1  UNL     1      22.473   7.344  50.808  1.00  0.00    -0.128 Cl
ENDBRANCH  16  17
BRANCH  16  19
HETATM   19  O1  UNL     1      24.484   5.406  50.678  1.00  0.00    -0.342 OA
BRANCH  19  20
HETATM   20  C6  UNL     1      25.619   5.159  49.919  1.00  0.00     0.089 A 
HETATM   21  C7  UNL     1      26.081   6.281  49.385  1.00  0.00     0.151 A 
HETATM   22  F1  UNL     1      25.532   7.526  49.546  1.00  0.00    -0.203 F 
HETATM   23  C8  UNL     1      27.276   6.015  48.587  1.00  0.00    -0.024 A 
HETATM   24  C9  UNL     1      28.137   6.951  47.804  1.00  0.00     0.051 C 
HETATM   25  C10 UNL     1      27.506   4.713  48.662  1.00  0.00    -0.010 A 
HETATM   26  C11 UNL     1      26.490   4.025  49.509  1.00  0.00     0.095 A 
ENDBRANCH  19  20
ENDBRANCH  16  19
ENDBRANCH  15  16
ENDBRANCH  11  13
ENDBRANCH   1  11
BRANCH   8  27
HETATM   27  N4  UNL     1      26.546  -0.899  54.137  1.00  0.00    -0.309 N 
HETATM   28  C18 UNL     1      27.190   0.289  54.624  1.00  0.00     0.318 C 
HETATM   29  N5  UNL     1      28.609   0.396  54.609  1.00  0.00    -0.352 N 
HETATM   30  O2  UNL     1      26.508   1.253  55.071  1.00  0.00    -0.247 OA
HETATM   31  H19 UNL     1      28.812   1.034  53.795  1.00  0.00     0.160 HD
HETATM   32  H20 UNL     1      29.627   0.404  54.687  1.00  0.00     0.160 HD
HETATM   33  H18 UNL     1      27.129  -1.696  53.767  1.00  0.00     0.170 HD
ENDBRANCH   8  27
TORSDOF 7
ENDMDL
MODEL 2
REMARK VINA RESULT:      -8.7      3.693      7.298
REMARK  7 active torsions:
REMARK  status: ('A' for Active; 'I' for Inactive)
REMARK    1  A    between atoms: C2_2  and  N1_15 
REMARK    2  A    between atoms: C3_3  and  C4_4 
REMARK    3  A    between atoms: C4_4  and  C5_5 
REMARK    4  A    between atoms: C4_4  and  O1_7 
REMARK    5  A    between atoms: O1_7  and  C6_8 
REMARK    6  A    between atoms: N1_15  and  C12_16 
REMARK    7  A    between atoms: C17_23  and  N4_24 
REMARK       I    between atoms: N4_24  and  C18_25 
REMARK       I    between atoms: C18_25  and  N5_26 
ROOT
HETATM    1  C12 UNL     1      22.652   4.104  50.783  1.00  0.00     0.141 A 
HETATM    2  N2  UNL     1      21.361   3.736  50.717  1.00  0.00    -0.224 NA
HETATM    3  C13 UNL     1      20.371   4.654  50.545  1.00  0.00     0.236 A 
HETATM    4  N3  UNL     1      20.709   5.957  50.442  1.00  0.00    -0.241 NA
HETATM    5  C14 UNL     1      21.967   6.369  50.502  1.00  0.00     0.072 A 
HETATM    6  C15 UNL     1      22.361   7.705  50.400  1.00  0.00     0.035 A 
HETATM    7  C16 UNL     1      23.699   8.041  50.474  1.00  0.00     0.032 A 
HETATM    8  C17 UNL     1      24.676   7.063  50.650  1.00  0.00     0.037 A 
HETATM    9  C19 UNL     1      24.317   5.731  50.754  1.00  0.00     0.047 A 
HETATM   10  C20 UNL     1      22.988   5.457  50.675  1.00  0.00     0.041 A 
ENDROOT
BRANCH   1  11
HETATM   11  N1  UNL     1      23.515   3.009  50.963  1.00  0.00    -0.344 N 
HETATM   12  H14 UNL     1      24.101   2.780  50.143  1.00  0.00     0.167 HD
BRANCH  11  13
HETATM   13  C2  UNL     1      23.724   2.157  52.082  1.00  0.00     0.005 C 
HETATM   14  C1  UNL     1      24.361   2.886  53.215  1.00  0.00     0.068 C 
HETATM   15  C3  UNL     1      23.398   0.885  52.117  1.00  0.00     0.031 C 
BRANCH  15  16
HETATM   16  C4  UNL     1      23.709   0.166  53.404  1.00  0.00     0.167 C 
BRANCH  16  17
HETATM   17  C5  UNL     1      22.510  -0.705  53.724  1.00  0.00     0.151 C 
HETATM   18 CL1  UNL     1      21.162   0.381  54.178  1.00  0.00    -0.128 Cl
ENDBRANCH  16  17
BRANCH  16  19
HETATM   19  O1  UNL     1      24.880  -0.560  53.179  1.00  0.00    -0.342 OA
BRANCH  19  20
HETATM   20  C6  UNL     1      26.114  -0.305  53.759  1.00  0.00     0.089 A 
HETATM   21  C7  UNL     1      27.082  -0.919  53.092  1.00  0.00     0.151 A 
HETATM   22  F1  UNL     1      26.913  -1.701  51.980  1.00  0.00    -0.203 F 
HETATM   23  C8  UNL     1      28.380  -0.647  53.707  1.00  0.00    -0.024 A 
HETATM   24  C9  UNL     1      29.745  -1.113  53.318  1.00  0.00     0.051 C 
HETATM   25  C10 UNL     1      28.154   0.138  54.749  1.00  0.00    -0.010 A 
HETATM   26  C11 UNL     1      26.702   0.443  54.902  1.00  0.00     0.095 A 
ENDBRANCH  19  20
ENDBRANCH  16  19
ENDBRANCH  15  16
ENDBRANCH  11  13
ENDBRANCH   1  11
BRANCH   8  27
HETATM   27  N4  UNL     1      26.081   7.367  50.733  1.00  0.00    -0.309 N 
HETATM   28  C18 UNL     1      26.666   7.376  49.421  1.00  0.00     0.318 C 
HETATM   29  N5  UNL     1      28.051   7.654  49.254  1.00  0.00    -0.352 N 
HETATM   30  O2  UNL     1      25.961   7.139  48.401  1.00  0.00    -0.247 OA
HETATM   31  H19 UNL     1      28.484   6.711  49.064  1.00  0.00     0.160 HD
HETATM   32  H20 UNL     1      29.020   7.961  49.152  1.00  0.00     0.160 HD
HETATM   33  H18 UNL     1      26.682   7.566  51.577  1.00  0.00     0.170 HD
ENDBRANCH   8  27
TORSDOF 7
ENDMDL
MODEL 3
REMARK VINA RESULT:      -8.1      3.878      8.124
REMARK  7 active torsions:
REMARK  status: ('A' for Active; 'I' for Inactive)
REMARK    1  A    between atoms: C2_2  and  N1_15 
REMARK    2  A    between atoms: C3_3  and  C4_4 
REMARK    3  A    between atoms: C4_4  and  C5_5 
REMARK    4  A    between atoms: C4_4  and  O1_7 
REMARK    5  A    between atoms: O1_7  and  C6_8 
REMARK    6  A    between atoms: N1_15  and  C12_16 
REMARK    7  A    between atoms: C17_23  and  N4_24 
REMARK       I    between atoms: N4_24  and  C18_25 
REMARK       I    between atoms: C18_25  and  N5_26 
ROOT
HETATM    1  C12 UNL     1      24.558   4.035  50.223  1.00  0.00     0.141 A 
HETATM    2  N2  UNL     1      25.727   3.512  49.814  1.00  0.00    -0.224 NA
HETATM    3  C13 UNL     1      26.707   4.297  49.289  1.00  0.00     0.236 A 
HETATM    4  N3  UNL     1      26.488   5.624  49.185  1.00  0.00    -0.241 NA
HETATM    5  C14 UNL     1      25.353   6.186  49.574  1.00  0.00     0.072 A 
HETATM    6  C15 UNL     1      25.082   7.554  49.484  1.00  0.00     0.035 A 
HETATM    7  C16 UNL     1      23.868   8.050  49.916  1.00  0.00     0.032 A 
HETATM    8  C17 UNL     1      22.894   7.206  50.446  1.00  0.00     0.037 A 
HETATM    9  C19 UNL     1      23.132   5.847  50.549  1.00  0.00     0.047 A 
HETATM   10  C20 UNL     1      24.343   5.413  50.109  1.00  0.00     0.041 A 
ENDROOT
BRANCH   1  11
HETATM   11  N1  UNL     1      23.682   3.061  50.732  1.00  0.00    -0.344 N 
HETATM   12  H14 UNL     1      22.824   2.917  50.174  1.00  0.00     0.167 HD
BRANCH  11  13
HETATM   13  C2  UNL     1      23.769   2.236  51.886  1.00  0.00     0.005 C 
HETATM   14  C1  UNL     1      24.263   2.996  53.068  1.00  0.00     0.068 C 
HETATM   15  C3  UNL     1      23.457   0.960  51.911  1.00  0.00     0.031 C 
BRANCH  15  16
HETATM   16  C4  UNL     1      23.626   0.272  53.241  1.00  0.00     0.167 C 
BRANCH  16  17
HETATM   17  C5  UNL     1      22.353  -0.511  53.497  1.00  0.00     0.151 C 
HETATM   18 CL1  UNL     1      22.442  -1.154  55.164  1.00  0.00    -0.128 Cl
ENDBRANCH  16  17
BRANCH  16  19
HETATM   19  O1  UNL     1      24.761  -0.533  53.130  1.00  0.00    -0.342 OA
BRANCH  19  20
HETATM   20  C6  UNL     1      25.990  -0.284  53.723  1.00  0.00     0.089 A 
HETATM   21  C7  UNL     1      26.960  -0.915  53.076  1.00  0.00     0.151 A 
HETATM   22  F1  UNL     1      26.797  -1.709  51.971  1.00  0.00    -0.203 F 
HETATM   23  C8  UNL     1      28.252  -0.650  53.705  1.00  0.00    -0.024 A 
HETATM   24  C9  UNL     1      29.617  -1.135  53.339  1.00  0.00     0.051 C 
HETATM   25  C10 UNL     1      28.022   0.149  54.735  1.00  0.00    -0.010 A 
HETATM   26  C11 UNL     1      26.571   0.471  54.865  1.00  0.00     0.095 A 
ENDBRANCH  19  20
ENDBRANCH  16  19
ENDBRANCH  15  16
ENDBRANCH  11  13
ENDBRANCH   1  11
BRANCH   8  27
HETATM   27  N4  UNL     1      21.615   7.679  50.908  1.00  0.00    -0.309 N 
HETATM   28  C18 UNL     1      20.706   7.812  49.804  1.00  0.00     0.318 C 
HETATM   29  N5  UNL     1      19.375   8.267  50.019  1.00  0.00    -0.352 N 
HETATM   30  O2  UNL     1      21.074   7.528  48.630  1.00  0.00    -0.247 OA
HETATM   31  H19 UNL     1      19.385   9.266  49.684  1.00  0.00     0.160 HD
HETATM   32  H20 UNL     1      18.398   8.491  50.214  1.00  0.00     0.160 HD
HETATM   33  H18 UNL     1      21.294   7.920  51.883  1.00  0.00     0.170 HD
ENDBRANCH   8  27
TORSDOF 7
ENDMDL
MODEL 4
REMARK VINA RESULT:      -8.1      4.014      8.160
REMARK  7 active torsions:
REMARK  status: ('A' for Active; 'I' for Inactive)
REMARK    1  A    between atoms: C2_2  and  N1_15 
REMARK    2  A    between atoms: C3_3  and  C4_4 
REMARK    3  A    between atoms: C4_4  and  C5_5 
REMARK    4  A    between atoms: C4_4  and  O1_7 
REMARK    5  A    between atoms: O1_7  and  C6_8 
REMARK    6  A    between atoms: N1_15  and  C12_16 
REMARK    7  A    between atoms: C17_23  and  N4_24 
REMARK       I    between atoms: N4_24  and  C18_25 
REMARK       I    between atoms: C18_25  and  N5_26 
ROOT
HETATM    1  C12 UNL     1      23.907   4.752  50.414  1.00  0.00     0.141 A 
HETATM    2  N2  UNL     1      22.698   4.216  50.176  1.00  0.00    -0.224 NA
HETATM    3  C13 UNL     1      21.962   4.586  49.093  1.00  0.00     0.236 A 
HETATM    4  N3  UNL     1      22.469   5.511  48.251  1.00  0.00    -0.241 NA
HETATM    5  C14 UNL     1      23.655   6.069  48.444  1.00  0.00     0.072 A 
HETATM    6  C15 UNL     1      24.219   7.029  47.601  1.00  0.00     0.035 A 
HETATM    7  C16 UNL     1      25.464   7.555  47.882  1.00  0.00     0.032 A 
HETATM    8  C17 UNL     1      26.180   7.143  49.005  1.00  0.00     0.037 A 
HETATM    9  C19 UNL     1      25.650   6.193  49.860  1.00  0.00     0.047 A 
HETATM   10  C20 UNL     1      24.421   5.710  49.534  1.00  0.00     0.041 A 
ENDROOT
BRANCH   1  11
HETATM   11  N1  UNL     1      24.503   4.238  51.579  1.00  0.00    -0.344 N 
HETATM   12  H14 UNL     1      24.480   4.873  52.394  1.00  0.00     0.167 HD
BRANCH  11  13
HETATM   13  C2  UNL     1      25.137   2.991  51.833  1.00  0.00     0.005 C 
HETATM   14  C1  UNL     1      26.141   2.661  50.783  1.00  0.00     0.068 C 
HETATM   15  C3  UNL     1      24.872   2.220  52.863  1.00  0.00     0.031 C 
BRANCH  15  16
HETATM   16  C4  UNL     1      25.658   0.938  52.940  1.00  0.00     0.167 C 
BRANCH  16  17
HETATM   17  C5  UNL     1      26.285   0.887  54.320  1.00  0.00     0.151 C 
HETATM   18 CL1  UNL     1      27.709  -0.191  54.225  1.00  0.00    -0.128 Cl
ENDBRANCH  16  17
BRANCH  16  19
HETATM   19  O1  UNL     1      24.754  -0.098  52.701  1.00  0.00    -0.342 OA
BRANCH  19  20
HETATM   20  C6  UNL     1      23.675  -0.432  53.507  1.00  0.00     0.089 A 
HETATM   21  C7  UNL     1      22.530  -0.189  52.885  1.00  0.00     0.151 A 
HETATM   22  F1  UNL     1      22.402   0.321  51.619  1.00  0.00    -0.203 F 
HETATM   23  C8  UNL     1      21.398  -0.543  53.739  1.00  0.00    -0.024 A 
HETATM   24  C9  UNL     1      19.930  -0.448  53.478  1.00  0.00     0.051 C 
HETATM   25  C10 UNL     1      21.901  -0.998  54.876  1.00  0.00    -0.010 A 
HETATM   26  C11 UNL     1      23.392  -0.980  54.861  1.00  0.00     0.095 A 
ENDBRANCH  19  20
ENDBRANCH  16  19
ENDBRANCH  15  16
ENDBRANCH  11  13
ENDBRANCH   1  11
BRANCH   8  27
HETATM   27  N4  UNL     1      27.481   7.664  49.338  1.00  0.00    -0.309 N 
HETATM   28  C18 UNL     1      27.354   8.939  49.987  1.00  0.00     0.318 C 
HETATM   29  N5  UNL     1      28.512   9.649  50.410  1.00  0.00    -0.352 N 
HETATM   30  O2  UNL     1      26.216   9.447  50.190  1.00  0.00    -0.247 OA
HETATM   31  H19 UNL     1      28.625  10.412  49.691  1.00  0.00     0.160 HD
HETATM   32  H20 UNL     1      29.350  10.086  50.798  1.00  0.00     0.160 HD
HETATM   33  H18 UNL     1      28.438   7.252  49.174  1.00  0.00     0.170 HD
ENDBRANCH   8  27
TORSDOF 7
ENDMDL
MODEL 5
REMARK VINA RESULT:      -8.0      1.935      2.579
REMARK  7 active torsions:
REMARK  status: ('A' for Active; 'I' for Inactive)
REMARK    1  A    between atoms: C2_2  and  N1_15 
REMARK    2  A    between atoms: C3_3  and  C4_4 
REMARK    3  A    between atoms: C4_4  and  C5_5 
REMARK    4  A    between atoms: C4_4  and  O1_7 
REMARK    5  A    between atoms: O1_7  and  C6_8 
REMARK    6  A    between atoms: N1_15  and  C12_16 
REMARK    7  A    between atoms: C17_23  and  N4_24 
REMARK       I    between atoms: N4_24  and  C18_25 
REMARK       I    between atoms: C18_25  and  N5_26 
ROOT
HETATM    1  C12 UNL     1      23.495   3.158  52.088  1.00  0.00     0.141 A 
HETATM    2  N2  UNL     1      22.254   3.665  51.992  1.00  0.00    -0.224 NA
HETATM    3  C13 UNL     1      21.166   2.951  52.387  1.00  0.00     0.236 A 
HETATM    4  N3  UNL     1      21.352   1.709  52.883  1.00  0.00    -0.241 NA
HETATM    5  C14 UNL     1      22.555   1.165  52.996  1.00  0.00     0.072 A 
HETATM    6  C15 UNL     1      22.794  -0.114  53.502  1.00  0.00     0.035 A 
HETATM    7  C16 UNL     1      24.085  -0.598  53.583  1.00  0.00     0.032 A 
HETATM    8  C17 UNL     1      25.168   0.173  53.165  1.00  0.00     0.037 A 
HETATM    9  C19 UNL     1      24.964   1.444  52.659  1.00  0.00     0.047 A 
HETATM   10  C20 UNL     1      23.674   1.870  52.603  1.00  0.00     0.041 A 
ENDROOT
BRANCH   1  11
HETATM   11  N1  UNL     1      24.478   4.051  51.628  1.00  0.00    -0.344 N 
HETATM   12  H14 UNL     1      25.173   4.334  52.338  1.00  0.00     0.167 HD
BRANCH  11  13
HETATM   13  C2  UNL     1      24.685   4.635  50.348  1.00  0.00     0.005 C 
HETATM   14  C1  UNL     1      24.812   3.599  49.285  1.00  0.00     0.068 C 
HETATM   15  C3  UNL     1      24.757   5.928  50.125  1.00  0.00     0.031 C 
BRANCH  15  16
HETATM   16  C4  UNL     1      24.983   6.333  48.692  1.00  0.00     0.167 C 
BRANCH  16  17
HETATM   17  C5  UNL     1      23.797   7.185  48.283  1.00  0.00     0.151 C 
HETATM   18 CL1  UNL     1      23.992   7.581  46.549  1.00  0.00    -0.128 Cl
ENDBRANCH  16  17
BRANCH  16  19
HETATM   19  O1  UNL     1      26.198   7.019  48.661  1.00  0.00    -0.342 OA
BRANCH  19  20
HETATM   20  C6  UNL     1      27.443   6.450  48.441  1.00  0.00     0.089 A 
HETATM   21  C7  UNL     1      28.323   7.370  48.071  1.00  0.00     0.151 A 
HETATM   22  F1  UNL     1      28.062   8.707  47.918  1.00  0.00    -0.203 F 
HETATM   23  C8  UNL     1      29.632   6.764  47.840  1.00  0.00    -0.024 A 
HETATM   24  C9  UNL     1      30.920   7.391  47.414  1.00  0.00     0.051 C 
HETATM   25  C10 UNL     1      29.505   5.469  48.083  1.00  0.00    -0.010 A 
HETATM   26  C11 UNL     1      28.113   5.122  48.489  1.00  0.00     0.095 A 
ENDBRANCH  19  20
ENDBRANCH  16  19
ENDBRANCH  15  16
ENDBRANCH  11  13
ENDBRANCH   1  11
BRANCH   8  27
HETATM   27  N4  UNL     1      26.530  -0.291  53.230  1.00  0.00    -0.309 N 
HETATM   28  C18 UNL     1      27.136   0.118  54.466  1.00  0.00     0.318 C 
HETATM   29  N5  UNL     1      28.486  -0.226  54.755  1.00  0.00    -0.352 N 
HETATM   30  O2  UNL     1      26.481   0.789  55.313  1.00  0.00    -0.247 OA
HETATM   31  H19 UNL     1      29.022   0.667  54.595  1.00  0.00     0.160 HD
HETATM   32  H20 UNL     1      29.417  -0.578  54.983  1.00  0.00     0.160 HD
HETATM   33  H18 UNL     1      27.089  -0.850  52.532  1.00  0.00     0.170 HD
ENDBRANCH   8  27
TORSDOF 7
ENDMDL
MODEL 6
REMARK VINA RESULT:      -7.9      2.419      5.063
REMARK  7 active torsions:
REMARK  status: ('A' for Active; 'I' for Inactive)
REMARK    1  A    between atoms: C2_2  and  N1_15 
REMARK    2  A    between atoms: C3_3  and  C4_4 
REMARK    3  A    between atoms: C4_4  and  C5_5 
REMARK    4  A    between atoms: C4_4  and  O1_7 
REMARK    5  A    between atoms: O1_7  and  C6_8 
REMARK    6  A    between atoms: N1_15  and  C12_16 
REMARK    7  A    between atoms: C17_23  and  N4_24 
REMARK       I    between atoms: N4_24  and  C18_25 
REMARK       I    between atoms: C18_25  and  N5_26 
ROOT
HETATM    1  C12 UNL     1      25.656   0.730  52.931  1.00  0.00     0.141 A 
HETATM    2  N2  UNL     1      26.903   1.021  53.340  1.00  0.00    -0.224 NA
HETATM    3  C13 UNL     1      27.382   0.561  54.528  1.00  0.00     0.236 A 
HETATM    4  N3  UNL     1      26.579  -0.202  55.298  1.00  0.00    -0.241 NA
HETATM    5  C14 UNL     1      25.343  -0.517  54.938  1.00  0.00     0.072 A 
HETATM    6  C15 UNL     1      24.477  -1.302  55.703  1.00  0.00     0.035 A 
HETATM    7  C16 UNL     1      23.204  -1.577  55.245  1.00  0.00     0.032 A 
HETATM    8  C17 UNL     1      22.758  -1.083  54.021  1.00  0.00     0.037 A 
HETATM    9  C19 UNL     1      23.592  -0.302  53.240  1.00  0.00     0.047 A 
HETATM   10  C20 UNL     1      24.834  -0.062  53.739  1.00  0.00     0.041 A 
ENDROOT
BRANCH   1  11
HETATM   11  N1  UNL     1      25.354   1.299  51.682  1.00  0.00    -0.344 N 
HETATM   12  H14 UNL     1      25.492   0.670  50.874  1.00  0.00     0.167 HD
BRANCH  11  13
HETATM   13  C2  UNL     1      24.887   2.596  51.334  1.00  0.00     0.005 C 
HETATM   14  C1  UNL     1      24.256   3.282  52.496  1.00  0.00     0.068 C 
HETATM   15  C3  UNL     1      24.996   3.128  50.138  1.00  0.00     0.031 C 
BRANCH  15  16
HETATM   16  C4  UNL     1      24.432   4.517  49.986  1.00  0.00     0.167 C 
BRANCH  16  17
HETATM   17  C5  UNL     1      25.517   5.366  49.352  1.00  0.00     0.151 C 
HETATM   18 CL1  UNL     1      26.931   4.308  49.068  1.00  0.00    -0.128 Cl
ENDBRANCH  16  17
BRANCH  16  19
HETATM   19  O1  UNL     1      23.288   4.396  49.197  1.00  0.00    -0.342 OA
BRANCH  19  20
HETATM   20  C6  UNL     1      22.609   3.216  48.931  1.00  0.00     0.089 A 
HETATM   21  C7  UNL     1      21.656   3.008  49.829  1.00  0.00     0.151 A 
HETATM   22  F1  UNL     1      21.363   3.831  50.885  1.00  0.00    -0.203 F 
HETATM   23  C8  UNL     1      20.946   1.763  49.544  1.00  0.00    -0.024 A 
HETATM   24  C9  UNL     1      19.809   1.118  50.268  1.00  0.00     0.051 C 
HETATM   25  C10 UNL     1      21.500   1.244  48.460  1.00  0.00    -0.010 A 
HETATM   26  C11 UNL     1      22.610   2.098  47.949  1.00  0.00     0.095 A 
ENDBRANCH  19  20
ENDBRANCH  16  19
ENDBRANCH  15  16
ENDBRANCH  11  13
ENDBRANCH   1  11
BRANCH   8  27
HETATM   27  N4  UNL     1      21.440  -1.344  53.505  1.00  0.00    -0.309 N 
HETATM   28  C18 UNL     1      20.495  -0.414  54.059  1.00  0.00     0.318 C 
HETATM   29  N5  UNL     1      19.122  -0.479  53.692  1.00  0.00    -0.352 N 
HETATM   30  O2  UNL     1      20.870   0.472  54.877  1.00  0.00    -0.247 OA
HETATM   31  H19 UNL     1      18.652  -0.923  54.525  1.00  0.00     0.160 HD
HETATM   32  H20 UNL     1      18.166  -0.479  53.332  1.00  0.00     0.160 HD
HETATM   33  H18 UNL     1      21.113  -2.079  52.823  1.00  0.00     0.170 HD
ENDBRANCH   8  27
TORSDOF 7
ENDMDL
MODEL 7
REMARK VINA RESULT:      -7.8      2.717      3.971
REMARK  7 active torsions:
REMARK  status: ('A' for Active; 'I' for Inactive)
REMARK    1  A    between atoms: C2_2  and  N1_15 
REMARK    2  A    between atoms: C3_3  and  C4_4 
REMARK    3  A    between atoms: C4_4  and  C5_5 
REMARK    4  A    between atoms: C4_4  and  O1_7 
REMARK    5  A    between atoms: O1_7  and  C6_8 
REMARK    6  A    between atoms: N1_15  and  C12_16 
REMARK    7  A    between atoms: C17_23  and  N4_24 
REMARK       I    between atoms: N4_24  and  C18_25 
REMARK       I    between atoms: C18_25  and  N5_26 
ROOT
HETATM    1  C12 UNL     1      20.395   2.909  51.644  1.00  0.00     0.141 A 
HETATM    2  N2  UNL     1      19.780   3.374  50.544  1.00  0.00    -0.224 NA
HETATM    3  C13 UNL     1      18.791   2.665  49.933  1.00  0.00     0.236 A 
HETATM    4  N3  UNL     1      18.432   1.474  50.456  1.00  0.00    -0.241 NA
HETATM    5  C14 UNL     1      19.009   0.973  51.538  1.00  0.00     0.072 A 
HETATM    6  C15 UNL     1      18.671  -0.255  52.112  1.00  0.00     0.035 A 
HETATM    7  C16 UNL     1      19.329  -0.697  53.244  1.00  0.00     0.032 A 
HETATM    8  C17 UNL     1      20.336   0.066  53.832  1.00  0.00     0.037 A 
HETATM    9  C19 UNL     1      20.694   1.286  53.288  1.00  0.00     0.047 A 
HETATM   10  C20 UNL     1      20.014   1.672  52.175  1.00  0.00     0.041 A 
ENDROOT
BRANCH   1  11
HETATM   11  N1  UNL     1      21.385   3.787  52.119  1.00  0.00    -0.344 N 
HETATM   12  H14 UNL     1      21.034   4.552  52.718  1.00  0.00     0.167 HD
BRANCH  11  13
HETATM   13  C2  UNL     1      22.792   3.805  51.918  1.00  0.00     0.005 C 
HETATM   14  C1  UNL     1      23.425   4.982  52.578  1.00  0.00     0.068 C 
HETATM   15  C3  UNL     1      23.457   2.900  51.236  1.00  0.00     0.031 C 
BRANCH  15  16
HETATM   16  C4  UNL     1      24.945   3.112  51.146  1.00  0.00     0.167 C 
BRANCH  16  17
HETATM   17  C5  UNL     1      25.603   1.878  51.734  1.00  0.00     0.151 C 
HETATM   18 CL1  UNL     1      25.892   2.199  53.470  1.00  0.00    -0.128 Cl
ENDBRANCH  16  17
BRANCH  16  19
HETATM   19  O1  UNL     1      25.237   3.307  49.795  1.00  0.00    -0.342 OA
BRANCH  19  20
HETATM   20  C6  UNL     1      26.055   4.301  49.279  1.00  0.00     0.089 A 
HETATM   21  C7  UNL     1      25.363   5.409  49.053  1.00  0.00     0.151 A 
HETATM   22  F1  UNL     1      24.023   5.575  49.288  1.00  0.00    -0.203 F 
HETATM   23  C8  UNL     1      26.229   6.452  48.508  1.00  0.00    -0.024 A 
HETATM   24  C9  UNL     1      25.908   7.853  48.101  1.00  0.00     0.051 C 
HETATM   25  C10 UNL     1      27.445   5.935  48.419  1.00  0.00    -0.010 A 
HETATM   26  C11 UNL     1      27.475   4.521  48.894  1.00  0.00     0.095 A 
ENDBRANCH  19  20
ENDBRANCH  16  19
ENDBRANCH  15  16
ENDBRANCH  11  13
ENDBRANCH   1  11
BRANCH   8  27
HETATM   27  N4  UNL     1      21.048  -0.355  55.011  1.00  0.00    -0.309 N 
HETATM   28  C18 UNL     1      22.252  -1.047  54.643  1.00  0.00     0.318 C 
HETATM   29  N5  UNL     1      23.122  -1.558  55.646  1.00  0.00    -0.352 N 
HETATM   30  O2  UNL     1      22.554  -1.212  53.428  1.00  0.00    -0.247 OA
HETATM   31  H19 UNL     1      22.936  -2.595  55.648  1.00  0.00     0.160 HD
HETATM   32  H20 UNL     1      23.781  -1.818  56.382  1.00  0.00     0.160 HD
HETATM   33  H18 UNL     1      20.808  -0.225  56.029  1.00  0.00     0.170 HD
ENDBRANCH   8  27
TORSDOF 7
ENDMDL
MODEL 8
REMARK VINA RESULT:      -7.6      2.492      5.027
REMARK  7 active torsions:
REMARK  status: ('A' for Active; 'I' for Inactive)
REMARK    1  A    between atoms: C2_2  and  N1_15 
REMARK    2  A    between atoms: C3_3  and  C4_4 
REMARK    3  A    between atoms: C4_4  and  C5_5 
REMARK    4  A    between atoms: C4_4  and  O1_7 
REMARK    5  A    between atoms: O1_7  and  C6_8 
REMARK    6  A    between atoms: N1_15  and  C12_16 
REMARK    7  A    between atoms: C17_23  and  N4_24 
REMARK       I    between atoms: N4_24  and  C18_25 
REMARK       I    between atoms: C18_25  and  N5_26 
ROOT
HETATM    1  C12 UNL     1      26.900   1.850  52.252  1.00  0.00     0.141 A 
HETATM    2  N2  UNL     1      28.084   2.397  52.572  1.00  0.00    -0.224 NA
HETATM    3  C13 UNL     1      28.703   2.105  53.749  1.00  0.00     0.236 A 
HETATM    4  N3  UNL     1      28.101   1.248  54.601  1.00  0.00    -0.241 NA
HETATM    5  C14 UNL     1      26.933   0.683  54.330  1.00  0.00     0.072 A 
HETATM    6  C15 UNL     1      26.275  -0.208  55.181  1.00  0.00     0.035 A 
HETATM    7  C16 UNL     1      25.058  -0.747  54.813  1.00  0.00     0.032 A 
HETATM    8  C17 UNL     1      24.465  -0.417  53.596  1.00  0.00     0.037 A 
HETATM    9  C19 UNL     1      25.092   0.462  52.731  1.00  0.00     0.047 A 
HETATM   10  C20 UNL     1      26.287   0.963  53.144  1.00  0.00     0.041 A 
ENDROOT
BRANCH   1  11
HETATM   11  N1  UNL     1      26.431   2.278  50.998  1.00  0.00    -0.344 N 
HETATM   12  H14 UNL     1      26.596   1.615  50.223  1.00  0.00     0.167 HD
BRANCH  11  13
HETATM   13  C2  UNL     1      25.764   3.472  50.607  1.00  0.00     0.005 C 
HETATM   14  C1  UNL     1      24.562   3.730  51.449  1.00  0.00     0.068 C 
HETATM   15  C3  UNL     1      26.155   4.253  49.626  1.00  0.00     0.031 C 
BRANCH  15  16
HETATM   16  C4  UNL     1      25.302   5.469  49.379  1.00  0.00     0.167 C 
BRANCH  16  17
HETATM   17  C5  UNL     1      26.245   6.612  49.056  1.00  0.00     0.151 C 
HETATM   18 CL1  UNL     1      27.759   5.897  48.424  1.00  0.00    -0.128 Cl
ENDBRANCH  16  17
BRANCH  16  19
HETATM   19  O1  UNL     1      24.443   5.144  48.328  1.00  0.00    -0.342 OA
BRANCH  19  20
HETATM   20  C6  UNL     1      23.058   5.099  48.399  1.00  0.00     0.089 A 
HETATM   21  C7  UNL     1      22.626   3.846  48.379  1.00  0.00     0.151 A 
HETATM   22  F1  UNL     1      23.418   2.730  48.300  1.00  0.00    -0.203 F 
HETATM   23  C8  UNL     1      21.167   3.806  48.454  1.00  0.00    -0.024 A 
HETATM   24  C9  UNL     1      20.237   2.637  48.462  1.00  0.00     0.051 C 
HETATM   25  C10 UNL     1      20.750   5.061  48.518  1.00  0.00    -0.010 A 
HETATM   26  C11 UNL     1      21.893   6.019  48.490  1.00  0.00     0.095 A 
ENDBRANCH  19  20
ENDBRANCH  16  19
ENDBRANCH  15  16
ENDBRANCH  11  13
ENDBRANCH   1  11
BRANCH   8  27
HETATM   27  N4  UNL     1      23.198  -0.954  53.172  1.00  0.00    -0.309 N 
HETATM   28  C18 UNL     1      22.212   0.089  53.108  1.00  0.00     0.318 C 
HETATM   29  N5  UNL     1      20.878  -0.206  52.712  1.00  0.00    -0.352 N 
HETATM   30  O2  UNL     1      22.515   1.278  53.403  1.00  0.00    -0.247 OA
HETATM   31  H19 UNL     1      20.331  -0.196  53.613  1.00  0.00     0.160 HD
HETATM   32  H20 UNL     1      19.960  -0.424  52.322  1.00  0.00     0.160 HD
HETATM   33  H18 UNL     1      22.931  -1.944  52.923  1.00  0.00     0.170 HD
ENDBRANCH   8  27
TORSDOF 7
ENDMDL
MODEL 9
REMARK VINA RESULT:      -7.6      3.495      6.643
REMARK  7 active torsions:
REMARK  status: ('A' for Active; 'I' for Inactive)
REMARK    1  A    between atoms: C2_2  and  N1_15 
REMARK    2  A    between atoms: C3_3  and  C4_4 
REMARK    3  A    between atoms: C4_4  and  C5_5 
REMARK    4  A    between atoms: C4_4  and  O1_7 
REMARK    5  A    between atoms: O1_7  and  C6_8 
REMARK    6  A    between atoms: N1_15  and  C12_16 
REMARK    7  A    between atoms: C17_23  and  N4_24 
REMARK       I    between atoms: N4_24  and  C18_25 
REMARK       I    between atoms: C18_25  and  N5_26 
ROOT
HETATM    1  C12 UNL     1      24.352   3.465  51.467  1.00  0.00     0.141 A 
HETATM    2  N2  UNL     1      24.908   4.358  50.631  1.00  0.00    -0.224 NA
HETATM    3  C13 UNL     1      26.139   4.149  50.088  1.00  0.00     0.236 A 
HETATM    4  N3  UNL     1      26.802   3.017  50.405  1.00  0.00    -0.241 NA
HETATM    5  C14 UNL     1      26.296   2.107  51.225  1.00  0.00     0.072 A 
HETATM    6  C15 UNL     1      26.946   0.923  51.581  1.00  0.00     0.035 A 
HETATM    7  C16 UNL     1      26.340   0.031  52.444  1.00  0.00     0.032 A 
HETATM    8  C17 UNL     1      25.077   0.290  52.973  1.00  0.00     0.037 A 
HETATM    9  C19 UNL     1      24.407   1.454  52.640  1.00  0.00     0.047 A 
HETATM   10  C20 UNL     1      25.051   2.296  51.787  1.00  0.00     0.041 A 
ENDROOT
BRANCH   1  11
HETATM   11  N1  UNL     1      23.083   3.866  51.916  1.00  0.00    -0.344 N 
HETATM   12  H14 UNL     1      23.078   4.343  52.833  1.00  0.00     0.167 HD
BRANCH  11  13
HETATM   13  C2  UNL     1      21.796   3.728  51.327  1.00  0.00     0.005 C 
HETATM   14  C1  UNL     1      21.123   5.047  51.164  1.00  0.00     0.068 C 
HETATM   15  C3  UNL     1      21.262   2.582  50.970  1.00  0.00     0.031 C 
BRANCH  15  16
HETATM   16  C4  UNL     1      19.885   2.664  50.365  1.00  0.00     0.167 C 
BRANCH  16  17
HETATM   17  C5  UNL     1      19.944   1.935  49.036  1.00  0.00     0.151 C 
HETATM   18 CL1  UNL     1      21.344   0.822  49.095  1.00  0.00    -0.128 Cl
ENDBRANCH  16  17
BRANCH  16  19
HETATM   19  O1  UNL     1      19.013   2.076  51.283  1.00  0.00    -0.342 OA
BRANCH  19  20
HETATM   20  C6  UNL     1      19.323   1.029  52.137  1.00  0.00     0.089 A 
HETATM   21  C7  UNL     1      18.341   0.138  52.165  1.00  0.00     0.151 A 
HETATM   22  F1  UNL     1      17.171   0.219  51.456  1.00  0.00    -0.203 F 
HETATM   23  C8  UNL     1      18.673  -0.963  53.067  1.00  0.00    -0.024 A 
HETATM   24  C9  UNL     1      17.889  -2.184  53.422  1.00  0.00     0.051 C 
HETATM   25  C10 UNL     1      19.869  -0.701  53.569  1.00  0.00    -0.010 A 
HETATM   26  C11 UNL     1      20.416   0.583  53.042  1.00  0.00     0.095 A 
ENDBRANCH  19  20
ENDBRANCH  16  19
ENDBRANCH  15  16
ENDBRANCH  11  13
ENDBRANCH   1  11
BRANCH   8  27
HETATM   27  N4  UNL     1      24.408  -0.610  53.876  1.00  0.00    -0.309 N 
HETATM   28  C18 UNL     1      25.173  -0.765  55.082  1.00  0.00     0.318 C 
HETATM   29  N5  UNL     1      24.706  -1.612  56.126  1.00  0.00    -0.352 N 
HETATM   30  O2  UNL     1      26.267  -0.154  55.232  1.00  0.00    -0.247 OA
HETATM   31  H19 UNL     1      25.303  -2.477  56.044  1.00  0.00     0.160 HD
HETATM   32  H20 UNL     1      24.298  -2.138  56.900  1.00  0.00     0.160 HD
HETATM   33  H18 UNL     1      23.495  -1.127  53.764  1.00  0.00     0.170 HD
ENDBRANCH   8  27
TORSDOF 7
ENDMDL
