MODEL 1
REMARK VINA RESULT:      -8.2      0.000      0.000
REMARK  5 active torsions:
REMARK  status: ('A' for Active; 'I' for Inactive)
REMARK    1  A    between atoms: C8_8  and  N1_9 
REMARK       I    between atoms: N1_9  and  C10_11 
REMARK    2  A    between atoms: C10_11  and  C11_13 
REMARK    3  A    between atoms: C12_14  and  C13_15 
REMARK    4  A    between atoms: C13_15  and  N2_16 
REMARK    5  A    between atoms: C19_23  and  N3_24 
ROOT
HETATM    1  C1  UNL     1      29.414   0.123  53.819  1.00  0.00     0.011 C 
HETATM    2  C2  UNL     1      28.193   0.773  53.360  1.00  0.00    -0.005 C 
HETATM    3  C3  UNL     1      27.066  -0.048  52.846  1.00  0.00     0.006 A 
HETATM    4  C4  UNL     1      27.541  -1.344  52.983  1.00  0.00     0.007 A 
HETATM    5  C5  UNL     1      26.612  -0.702  53.619  1.00  0.00    -0.011 A 
HETATM    6  C6  UNL     1      25.001  -0.884  53.617  1.00  0.00     0.015 A 
HETATM    7  C7  UNL     1      23.716  -0.357  53.430  1.00  0.00     0.019 C 
HETATM    8  C8  UNL     1      23.058   1.014  53.019  1.00  0.00     0.072 C 
HETATM    9  C16 UNL     1      23.710   2.206  52.974  1.00  0.00     0.142 C 
HETATM   10  F1  UNL     1      22.816   2.985  52.602  1.00  0.00    -0.204 F 
HETATM   11  C17 UNL     1      25.155   2.525  53.291  1.00  0.00     0.041 C 
HETATM   12  C18 UNL     1      26.305   1.938  53.763  1.00  0.00    -0.018 C 
HETATM   13  C19 UNL     1      27.145   0.773  54.298  1.00  0.00     0.023 C 
HETATM   14  N3  UNL     1      26.023  -0.313  54.018  1.00  0.00     0.000 N 
HETATM   15  H24 UNL     1      25.504  -0.342  55.106  1.00  0.00     0.000 HD
ENDROOT
BRANCH   8  16
HETATM   16  N1  UNL     1      21.812   0.577  52.921  1.00  0.00    -0.316 N 
HETATM   17  C9  UNL     1      21.430   0.205  54.236  1.00  0.00     0.159 C 
HETATM   18  C10 UNL     1      20.844   0.292  51.941  1.00  0.00     0.247 C 
HETATM   19  O1  UNL     1      21.152   0.458  50.710  1.00  0.00    -0.268 OA
BRANCH  18  20
HETATM   20  C11 UNL     1      19.527  -0.175  52.273  1.00  0.00     0.072 C 
HETATM   21  C12 UNL     1      18.226  -0.508  52.106  1.00  0.00    -0.002 C 
BRANCH  21  22
HETATM   22  C13 UNL     1      17.216  -1.044  53.047  1.00  0.00     0.143 C 
BRANCH  22  23
HETATM   23  N2  UNL     1      16.744  -2.332  52.724  1.00  0.00    -0.418 N 
HETATM   24  C14 UNL     1      15.384  -2.413  52.323  1.00  0.00     0.142 C 
HETATM   25  C15 UNL     1      17.199  -3.398  53.551  1.00  0.00     0.142 C 
ENDBRANCH  22  23
ENDBRANCH  21  22
ENDBRANCH  18  20
ENDBRANCH   8  16
TORSDOF 5
ENDMDL
MODEL 2
REMARK VINA RESULT:      -8.1      1.322      1.749
REMARK  5 active torsions:
REMARK  status: ('A' for Active; 'I' for Inactive)
REMARK    1  A    between atoms: C8_8  and  N1_9 
REMARK       I    between atoms: N1_9  and  C10_11 
REMARK    2  A    between atoms: C10_11  and  C11_13 
REMARK    3  A    between atoms: C12_14  and  C13_15 
REMARK    4  A    between atoms: C13_15  and  N2_16 
REMARK    5  A    between atoms: C19_23  and  N3_24 
ROOT
HETATM    1  C1  UNL     1      29.417   0.195  53.713  1.00  0.00     0.011 C 
HETATM    2  C2  UNL     1      28.176   0.822  53.278  1.00  0.00    -0.005 C 
HETATM    3  C3  UNL     1      27.059  -0.019  52.773  1.00  0.00     0.006 A 
HETATM    4  C4  UNL     1      27.564  -1.305  52.890  1.00  0.00     0.007 A 
HETATM    5  C5  UNL     1      26.631  -0.690  53.546  1.00  0.00    -0.011 A 
HETATM    6  C6  UNL     1      25.025  -0.908  53.567  1.00  0.00     0.015 A 
HETATM    7  C7  UNL     1      23.726  -0.407  53.405  1.00  0.00     0.019 C 
HETATM    8  C8  UNL     1      23.032   0.952  53.019  1.00  0.00     0.072 C 
HETATM    9  C16 UNL     1      23.657   2.159  52.976  1.00  0.00     0.142 C 
HETATM   10  F1  UNL     1      22.741   2.922  52.626  1.00  0.00    -0.204 F 
HETATM   11  C17 UNL     1      25.099   2.507  53.275  1.00  0.00     0.041 C 
HETATM   12  C18 UNL     1      26.269   1.941  53.722  1.00  0.00    -0.018 C 
HETATM   13  C19 UNL     1      27.143   0.789  54.232  1.00  0.00     0.023 C 
HETATM   14  N3  UNL     1      26.040  -0.319  53.959  1.00  0.00     0.000 N 
HETATM   15  H24 UNL     1      25.539  -0.370  55.054  1.00  0.00     0.000 HD
ENDROOT
BRANCH   8  16
HETATM   16  N1  UNL     1      21.794   0.489  52.935  1.00  0.00    -0.316 N 
HETATM   17  C9  UNL     1      21.554   0.282  51.553  1.00  0.00     0.159 C 
HETATM   18  C10 UNL     1      20.675   0.250  53.754  1.00  0.00     0.247 C 
HETATM   19  O1  UNL     1      20.751   0.548  54.997  1.00  0.00    -0.268 OA
BRANCH  18  20
HETATM   20  C11 UNL     1      19.457  -0.314  53.245  1.00  0.00     0.072 C 
HETATM   21  C12 UNL     1      18.394  -1.146  53.149  1.00  0.00    -0.002 C 
BRANCH  21  22
HETATM   22  C13 UNL     1      17.262  -1.197  52.196  1.00  0.00     0.143 C 
BRANCH  22  23
HETATM   23  N2  UNL     1      17.030   0.006  51.501  1.00  0.00    -0.418 N 
HETATM   24  C14 UNL     1      15.938   0.789  51.963  1.00  0.00     0.142 C 
HETATM   25  C15 UNL     1      17.192  -0.037  50.087  1.00  0.00     0.142 C 
ENDBRANCH  22  23
ENDBRANCH  21  22
ENDBRANCH  18  20
ENDBRANCH   8  16
TORSDOF 5
ENDMDL
MODEL 3
REMARK VINA RESULT:      -7.3      4.491      8.430
REMARK  5 active torsions:
REMARK  status: ('A' for Active; 'I' for Inactive)
REMARK    1  A    between atoms: C8_8  and  N1_9 
REMARK       I    between atoms: N1_9  and  C10_11 
REMARK    2  A    between atoms: C10_11  and  C11_13 
REMARK    3  A    between atoms: C12_14  and  C13_15 
REMARK    4  A    between atoms: C13_15  and  N2_16 
REMARK    5  A    between atoms: C19_23  and  N3_24 
ROOT
HETATM    1  C1  UNL     1      20.974  -1.668  54.231  1.00  0.00     0.011 C 
HETATM    2  C2  UNL     1      22.192  -1.261  53.543  1.00  0.00    -0.005 C 
HETATM    3  C3  UNL     1      22.123  -0.258  52.449  1.00  0.00     0.006 A 
HETATM    4  C4  UNL     1      20.774   0.056  52.402  1.00  0.00     0.007 A 
HETATM    5  C5  UNL     1      21.798   0.746  52.794  1.00  0.00    -0.011 A 
HETATM    6  C6  UNL     1      22.515   2.047  52.146  1.00  0.00     0.015 A 
HETATM    7  C7  UNL     1      23.658   2.685  51.644  1.00  0.00     0.019 C 
HETATM    8  C8  UNL     1      25.177   2.350  51.400  1.00  0.00     0.072 C 
HETATM    9  C16 UNL     1      25.829   1.276  51.919  1.00  0.00     0.142 C 
HETATM   10  F1  UNL     1      26.978   1.415  51.466  1.00  0.00    -0.204 F 
HETATM   11  C17 UNL     1      25.309   0.179  52.823  1.00  0.00     0.041 C 
HETATM   12  C18 UNL     1      24.181  -0.199  53.512  1.00  0.00    -0.018 C 
HETATM   13  C19 UNL     1      22.732  -0.042  53.988  1.00  0.00     0.023 C 
HETATM   14  N3  UNL     1      22.433   1.190  53.035  1.00  0.00     0.000 N 
HETATM   15  H24 UNL     1      22.659   2.092  53.802  1.00  0.00     0.000 HD
ENDROOT
BRANCH   8  16
HETATM   16  N1  UNL     1      25.485   3.452  50.734  1.00  0.00    -0.316 N 
HETATM   17  C9  UNL     1      24.620   4.459  51.234  1.00  0.00     0.159 C 
HETATM   18  C10 UNL     1      26.299   3.875  49.668  1.00  0.00     0.247 C 
HETATM   19  O1  UNL     1      27.009   3.002  49.056  1.00  0.00    -0.268 OA
BRANCH  18  20
HETATM   20  C11 UNL     1      26.363   5.245  49.244  1.00  0.00     0.072 C 
HETATM   21  C12 UNL     1      26.450   6.305  48.409  1.00  0.00    -0.002 C 
BRANCH  21  22
HETATM   22  C13 UNL     1      26.464   7.765  48.662  1.00  0.00     0.143 C 
BRANCH  22  23
HETATM   23  N2  UNL     1      27.614   8.230  49.330  1.00  0.00    -0.418 N 
HETATM   24  C14 UNL     1      27.430   9.364  50.166  1.00  0.00     0.142 C 
HETATM   25  C15 UNL     1      28.828   8.213  48.586  1.00  0.00     0.142 C 
ENDBRANCH  22  23
ENDBRANCH  21  22
ENDBRANCH  18  20
ENDBRANCH   8  16
TORSDOF 5
ENDMDL
MODEL 4
REMARK VINA RESULT:      -7.2      3.697      5.223
REMARK  5 active torsions:
REMARK  status: ('A' for Active; 'I' for Inactive)
REMARK    1  A    between atoms: C8_8  and  N1_9 
REMARK       I    between atoms: N1_9  and  C10_11 
REMARK    2  A    between atoms: C10_11  and  C11_13 
REMARK    3  A    between atoms: C12_14  and  C13_15 
REMARK    4  A    between atoms: C13_15  and  N2_16 
REMARK    5  A    between atoms: C19_23  and  N3_24 
ROOT
HETATM    1  C1  UNL     1      29.567  -0.309  54.117  1.00  0.00     0.011 C 
HETATM    2  C2  UNL     1      28.116  -0.176  54.126  1.00  0.00    -0.005 C 
HETATM    3  C3  UNL     1      27.490   1.127  53.782  1.00  0.00     0.006 A 
HETATM    4  C4  UNL     1      28.584   1.930  53.499  1.00  0.00     0.007 A 
HETATM    5  C5  UNL     1      27.667   1.434  52.730  1.00  0.00    -0.011 A 
HETATM    6  C6  UNL     1      26.453   2.148  51.927  1.00  0.00     0.015 A 
HETATM    7  C7  UNL     1      25.086   2.268  51.642  1.00  0.00     0.019 C 
HETATM    8  C8  UNL     1      23.730   1.603  52.089  1.00  0.00     0.072 C 
HETATM    9  C16 UNL     1      23.629   0.442  52.789  1.00  0.00     0.142 C 
HETATM   10  F1  UNL     1      22.399   0.312  52.916  1.00  0.00    -0.204 F 
HETATM   11  C17 UNL     1      24.721  -0.477  53.294  1.00  0.00     0.041 C 
HETATM   12  C18 UNL     1      26.086  -0.640  53.261  1.00  0.00    -0.018 C 
HETATM   13  C19 UNL     1      27.515  -0.263  52.857  1.00  0.00     0.023 C 
HETATM   14  N3  UNL     1      27.093   1.136  52.240  1.00  0.00     0.000 N 
HETATM   15  H24 UNL     1      26.978   0.813  51.084  1.00  0.00     0.000 HD
ENDROOT
BRANCH   8  16
HETATM   16  N1  UNL     1      22.920   2.438  51.459  1.00  0.00    -0.316 N 
HETATM   17  C9  UNL     1      22.888   3.615  52.251  1.00  0.00     0.159 C 
HETATM   18  C10 UNL     1      22.049   2.468  50.354  1.00  0.00     0.247 C 
HETATM   19  O1  UNL     1      21.900   1.401  49.663  1.00  0.00    -0.268 OA
BRANCH  18  20
HETATM   20  C11 UNL     1      21.327   3.650  49.975  1.00  0.00     0.072 C 
HETATM   21  C12 UNL     1      20.740   4.568  49.173  1.00  0.00    -0.002 C 
BRANCH  21  22
HETATM   22  C13 UNL     1      20.010   5.821  49.475  1.00  0.00     0.143 C 
BRANCH  22  23
HETATM   23  N2  UNL     1      20.818   6.974  49.509  1.00  0.00    -0.418 N 
HETATM   24  C14 UNL     1      21.615   7.208  48.356  1.00  0.00     0.142 C 
HETATM   25  C15 UNL     1      21.445   7.272  50.752  1.00  0.00     0.142 C 
ENDBRANCH  22  23
ENDBRANCH  21  22
ENDBRANCH  18  20
ENDBRANCH   8  16
TORSDOF 5
ENDMDL
MODEL 5
REMARK VINA RESULT:      -6.9      5.459      7.027
REMARK  5 active torsions:
REMARK  status: ('A' for Active; 'I' for Inactive)
REMARK    1  A    between atoms: C8_8  and  N1_9 
REMARK       I    between atoms: N1_9  and  C10_11 
REMARK    2  A    between atoms: C10_11  and  C11_13 
REMARK    3  A    between atoms: C12_14  and  C13_15 
REMARK    4  A    between atoms: C13_15  and  N2_16 
REMARK    5  A    between atoms: C19_23  and  N3_24 
ROOT
HETATM    1  C1  UNL     1      26.722  -0.598  53.282  1.00  0.00     0.011 C 
HETATM    2  C2  UNL     1      26.438   0.341  52.205  1.00  0.00    -0.005 C 
HETATM    3  C3  UNL     1      25.086   0.946  52.088  1.00  0.00     0.006 A 
HETATM    4  C4  UNL     1      24.409   0.401  53.168  1.00  0.00     0.007 A 
HETATM    5  C5  UNL     1      24.826   1.607  52.941  1.00  0.00    -0.011 A 
HETATM    6  C6  UNL     1      24.011   2.973  52.630  1.00  0.00     0.015 A 
HETATM    7  C7  UNL     1      23.755   4.079  51.807  1.00  0.00     0.019 C 
HETATM    8  C8  UNL     1      24.265   4.665  50.437  1.00  0.00     0.072 C 
HETATM    9  C16 UNL     1      25.391   4.262  49.790  1.00  0.00     0.142 C 
HETATM   10  F1  UNL     1      25.388   4.979  48.776  1.00  0.00    -0.204 F 
HETATM   11  C17 UNL     1      26.404   3.210  50.187  1.00  0.00     0.041 C 
HETATM   12  C18 UNL     1      26.710   2.347  51.212  1.00  0.00    -0.018 C 
HETATM   13  C19 UNL     1      26.494   1.694  52.582  1.00  0.00     0.023 C 
HETATM   14  N3  UNL     1      25.075   2.367  52.806  1.00  0.00     0.000 N 
HETATM   15  H24 UNL     1      25.414   3.329  53.449  1.00  0.00     0.000 HD
ENDROOT
BRANCH   8  16
HETATM   16  N1  UNL     1      23.366   5.630  50.325  1.00  0.00    -0.316 N 
HETATM   17  C9  UNL     1      22.220   5.024  49.748  1.00  0.00     0.159 C 
HETATM   18  C10 UNL     1      23.249   7.021  50.504  1.00  0.00     0.247 C 
HETATM   19  O1  UNL     1      24.281   7.678  50.883  1.00  0.00    -0.268 OA
BRANCH  18  20
HETATM   20  C11 UNL     1      22.019   7.725  50.278  1.00  0.00     0.072 C 
HETATM   21  C12 UNL     1      21.133   8.564  49.692  1.00  0.00    -0.002 C 
BRANCH  21  22
HETATM   22  C13 UNL     1      19.730   8.907  50.021  1.00  0.00     0.143 C 
BRANCH  22  23
HETATM   23  N2  UNL     1      18.924   9.200  48.904  1.00  0.00    -0.418 N 
HETATM   24  C14 UNL     1      19.543   9.052  47.635  1.00  0.00     0.142 C 
HETATM   25  C15 UNL     1      18.052  10.319  49.029  1.00  0.00     0.142 C 
ENDBRANCH  22  23
ENDBRANCH  21  22
ENDBRANCH  18  20
ENDBRANCH   8  16
TORSDOF 5
ENDMDL
MODEL 6
REMARK VINA RESULT:      -6.9      5.499      9.640
REMARK  5 active torsions:
REMARK  status: ('A' for Active; 'I' for Inactive)
REMARK    1  A    between atoms: C8_8  and  N1_9 
REMARK       I    between atoms: N1_9  and  C10_11 
REMARK    2  A    between atoms: C10_11  and  C11_13 
REMARK    3  A    between atoms: C12_14  and  C13_15 
REMARK    4  A    between atoms: C13_15  and  N2_16 
REMARK    5  A    between atoms: C19_23  and  N3_24 
ROOT
HETATM    1  C1  UNL     1      20.094   0.231  51.217  1.00  0.00     0.011 C 
HETATM    2  C2  UNL     1      21.515   0.546  51.164  1.00  0.00    -0.005 C 
HETATM    3  C3  UNL     1      22.051   1.364  50.045  1.00  0.00     0.006 A 
HETATM    4  C4  UNL     1      20.918   1.643  49.296  1.00  0.00     0.007 A 
HETATM    5  C5  UNL     1      21.662   2.403  50.036  1.00  0.00    -0.011 A 
HETATM    6  C6  UNL     1      22.683   3.599  49.642  1.00  0.00     0.015 A 
HETATM    7  C7  UNL     1      23.963   4.170  49.679  1.00  0.00     0.019 C 
HETATM    8  C8  UNL     1      25.384   3.827  50.263  1.00  0.00     0.072 C 
HETATM    9  C16 UNL     1      25.632   2.859  51.185  1.00  0.00     0.142 C 
HETATM   10  F1  UNL     1      26.863   2.945  51.339  1.00  0.00    -0.204 F 
HETATM   11  C17 UNL     1      24.671   1.909  51.866  1.00  0.00     0.041 C 
HETATM   12  C18 UNL     1      23.329   1.624  51.959  1.00  0.00    -0.018 C 
HETATM   13  C19 UNL     1      21.845   1.830  51.635  1.00  0.00     0.023 C 
HETATM   14  N3  UNL     1      22.125   2.891  50.489  1.00  0.00     0.000 N 
HETATM   15  H24 UNL     1      22.005   3.906  51.129  1.00  0.00     0.000 HD
ENDROOT
BRANCH   8  16
HETATM   16  N1  UNL     1      26.046   4.816  49.682  1.00  0.00    -0.316 N 
HETATM   17  C9  UNL     1      25.257   5.978  49.885  1.00  0.00     0.159 C 
HETATM   18  C10 UNL     1      27.183   5.028  48.882  1.00  0.00     0.247 C 
HETATM   19  O1  UNL     1      27.878   4.014  48.525  1.00  0.00    -0.268 OA
BRANCH  18  20
HETATM   20  C11 UNL     1      27.590   6.337  48.455  1.00  0.00     0.072 C 
HETATM   21  C12 UNL     1      27.707   7.427  47.662  1.00  0.00    -0.002 C 
BRANCH  21  22
HETATM   22  C13 UNL     1      28.416   8.715  47.851  1.00  0.00     0.143 C 
BRANCH  22  23
HETATM   23  N2  UNL     1      28.791   8.985  49.181  1.00  0.00    -0.418 N 
HETATM   24  C14 UNL     1      27.769   9.504  50.021  1.00  0.00     0.142 C 
HETATM   25  C15 UNL     1      30.082   9.554  49.372  1.00  0.00     0.142 C 
ENDBRANCH  22  23
ENDBRANCH  21  22
ENDBRANCH  18  20
ENDBRANCH   8  16
TORSDOF 5
ENDMDL
MODEL 7
REMARK VINA RESULT:      -6.8      3.074      4.251
REMARK  5 active torsions:
REMARK  status: ('A' for Active; 'I' for Inactive)
REMARK    1  A    between atoms: C8_8  and  N1_9 
REMARK       I    between atoms: N1_9  and  C10_11 
REMARK    2  A    between atoms: C10_11  and  C11_13 
REMARK    3  A    between atoms: C12_14  and  C13_15 
REMARK    4  A    between atoms: C13_15  and  N2_16 
REMARK    5  A    between atoms: C19_23  and  N3_24 
ROOT
HETATM    1  C1  UNL     1      28.365   0.140  54.478  1.00  0.00     0.011 C 
HETATM    2  C2  UNL     1      26.914   0.168  54.598  1.00  0.00    -0.005 C 
HETATM    3  C3  UNL     1      26.133   1.218  53.893  1.00  0.00     0.006 A 
HETATM    4  C4  UNL     1      27.114   1.941  53.232  1.00  0.00     0.007 A 
HETATM    5  C5  UNL     1      26.195   1.142  52.788  1.00  0.00    -0.011 A 
HETATM    6  C6  UNL     1      24.856   1.439  51.924  1.00  0.00     0.015 A 
HETATM    7  C7  UNL     1      23.465   1.357  51.765  1.00  0.00     0.019 C 
HETATM    8  C8  UNL     1      22.224   0.802  52.560  1.00  0.00     0.072 C 
HETATM    9  C16 UNL     1      22.297  -0.038  53.626  1.00  0.00     0.142 C 
HETATM   10  F1  UNL     1      21.100  -0.197  53.923  1.00  0.00    -0.204 F 
HETATM   11  C17 UNL     1      23.513  -0.640  54.296  1.00  0.00     0.041 C 
HETATM   12  C18 UNL     1      24.880  -0.711  54.174  1.00  0.00    -0.018 C 
HETATM   13  C19 UNL     1      26.228  -0.405  53.512  1.00  0.00     0.023 C 
HETATM   14  N3  UNL     1      25.619   0.651  52.497  1.00  0.00     0.000 N 
HETATM   15  H24 UNL     1      25.447  -0.068  51.545  1.00  0.00     0.000 HD
ENDROOT
BRANCH   8  16
HETATM   16  N1  UNL     1      21.286   1.302  51.771  1.00  0.00    -0.316 N 
HETATM   17  C9  UNL     1      21.495   0.708  50.500  1.00  0.00     0.159 C 
HETATM   18  C10 UNL     1      20.263   2.268  51.791  1.00  0.00     0.247 C 
HETATM   19  O1  UNL     1      20.096   2.961  52.854  1.00  0.00    -0.268 OA
BRANCH  18  20
HETATM   20  C11 UNL     1      19.404   2.502  50.665  1.00  0.00     0.072 C 
HETATM   21  C12 UNL     1      18.716   2.249  49.527  1.00  0.00    -0.002 C 
BRANCH  21  22
HETATM   22  C13 UNL     1      17.831   3.100  48.698  1.00  0.00     0.143 C 
BRANCH  22  23
HETATM   23  N2  UNL     1      18.506   3.889  47.745  1.00  0.00    -0.418 N 
HETATM   24  C14 UNL     1      19.494   3.221  46.974  1.00  0.00     0.142 C 
HETATM   25  C15 UNL     1      18.837   5.216  48.142  1.00  0.00     0.142 C 
ENDBRANCH  22  23
ENDBRANCH  21  22
ENDBRANCH  18  20
ENDBRANCH   8  16
TORSDOF 5
ENDMDL
MODEL 8
REMARK VINA RESULT:      -6.7      2.570      3.510
REMARK  5 active torsions:
REMARK  status: ('A' for Active; 'I' for Inactive)
REMARK    1  A    between atoms: C8_8  and  N1_9 
REMARK       I    between atoms: N1_9  and  C10_11 
REMARK    2  A    between atoms: C10_11  and  C11_13 
REMARK    3  A    between atoms: C12_14  and  C13_15 
REMARK    4  A    between atoms: C13_15  and  N2_16 
REMARK    5  A    between atoms: C19_23  and  N3_24 
ROOT
HETATM    1  C1  UNL     1      28.953   0.348  53.525  1.00  0.00     0.011 C 
HETATM    2  C2  UNL     1      27.586   0.257  54.021  1.00  0.00    -0.005 C 
HETATM    3  C3  UNL     1      26.551   1.195  53.513  1.00  0.00     0.006 A 
HETATM    4  C4  UNL     1      27.252   1.961  52.595  1.00  0.00     0.007 A 
HETATM    5  C5  UNL     1      26.332   1.063  52.433  1.00  0.00    -0.011 A 
HETATM    6  C6  UNL     1      24.793   1.195  51.941  1.00  0.00     0.015 A 
HETATM    7  C7  UNL     1      23.424   0.984  52.156  1.00  0.00     0.019 C 
HETATM    8  C8  UNL     1      22.490   0.370  53.266  1.00  0.00     0.072 C 
HETATM    9  C16 UNL     1      22.918  -0.400  54.301  1.00  0.00     0.142 C 
HETATM   10  F1  UNL     1      21.860  -0.645  54.907  1.00  0.00    -0.204 F 
HETATM   11  C17 UNL     1      24.318  -0.857  54.648  1.00  0.00     0.041 C 
HETATM   12  C18 UNL     1      25.608  -0.816  54.173  1.00  0.00    -0.018 C 
HETATM   13  C19 UNL     1      26.703  -0.432  53.171  1.00  0.00     0.023 C 
HETATM   14  N3  UNL     1      25.751   0.509  52.319  1.00  0.00     0.000 N 
HETATM   15  H24 UNL     1      25.411  -0.275  51.468  1.00  0.00     0.000 HD
ENDROOT
BRANCH   8  16
HETATM   16  N1  UNL     1      21.336   0.742  52.736  1.00  0.00    -0.316 N 
HETATM   17  C9  UNL     1      21.510   2.094  52.342  1.00  0.00     0.159 C 
HETATM   18  C10 UNL     1      20.029   0.256  52.549  1.00  0.00     0.247 C 
HETATM   19  O1  UNL     1      19.736  -0.904  53.006  1.00  0.00    -0.268 OA
BRANCH  18  20
HETATM   20  C11 UNL     1      19.017   1.011  51.866  1.00  0.00     0.072 C 
HETATM   21  C12 UNL     1      17.782   1.411  51.485  1.00  0.00    -0.002 C 
BRANCH  21  22
HETATM   22  C13 UNL     1      17.331   2.471  50.553  1.00  0.00     0.143 C 
BRANCH  22  23
HETATM   23  N2  UNL     1      17.477   3.783  51.046  1.00  0.00    -0.418 N 
HETATM   24  C14 UNL     1      16.335   4.336  51.684  1.00  0.00     0.142 C 
HETATM   25  C15 UNL     1      18.217   4.686  50.231  1.00  0.00     0.142 C 
ENDBRANCH  22  23
ENDBRANCH  21  22
ENDBRANCH  18  20
ENDBRANCH   8  16
TORSDOF 5
ENDMDL
MODEL 9
REMARK VINA RESULT:      -6.7      2.849      3.303
REMARK  5 active torsions:
REMARK  status: ('A' for Active; 'I' for Inactive)
REMARK    1  A    between atoms: C8_8  and  N1_9 
REMARK       I    between atoms: N1_9  and  C10_11 
REMARK    2  A    between atoms: C10_11  and  C11_13 
REMARK    3  A    between atoms: C12_14  and  C13_15 
REMARK    4  A    between atoms: C13_15  and  N2_16 
REMARK    5  A    between atoms: C19_23  and  N3_24 
ROOT
HETATM    1  C1  UNL     1      28.890  -0.544  53.604  1.00  0.00     0.011 C 
HETATM    2  C2  UNL     1      28.019   0.177  52.685  1.00  0.00    -0.005 C 
HETATM    3  C3  UNL     1      26.605  -0.248  52.518  1.00  0.00     0.006 A 
HETATM    4  C4  UNL     1      26.497  -1.316  53.395  1.00  0.00     0.007 A 
HETATM    5  C5  UNL     1      25.997  -0.122  53.438  1.00  0.00    -0.011 A 
HETATM    6  C6  UNL     1      24.470   0.398  53.281  1.00  0.00     0.015 A 
HETATM    7  C7  UNL     1      23.517   1.205  52.644  1.00  0.00     0.019 C 
HETATM    8  C8  UNL     1      23.463   2.254  51.471  1.00  0.00     0.072 C 
HETATM    9  C16 UNL     1      24.550   2.839  50.901  1.00  0.00     0.142 C 
HETATM   10  F1  UNL     1      24.038   3.572  50.038  1.00  0.00    -0.204 F 
HETATM   11  C17 UNL     1      26.018   2.660  51.221  1.00  0.00     0.041 C 
HETATM   12  C18 UNL     1      26.853   2.019  52.106  1.00  0.00    -0.018 C 
HETATM   13  C19 UNL     1      27.170   1.114  53.302  1.00  0.00     0.023 C 
HETATM   14  N3  UNL     1      25.672   0.621  53.471  1.00  0.00     0.000 N 
HETATM   15  H24 UNL     1      25.302   1.403  54.311  1.00  0.00     0.000 HD
ENDROOT
BRANCH   8  16
HETATM   16  N1  UNL     1      22.146   2.386  51.426  1.00  0.00    -0.316 N 
HETATM   17  C9  UNL     1      21.667   1.235  50.749  1.00  0.00     0.159 C 
HETATM   18  C10 UNL     1      21.145   3.322  51.743  1.00  0.00     0.247 C 
HETATM   19  O1  UNL     1      21.497   4.455  52.226  1.00  0.00    -0.268 OA
BRANCH  18  20
HETATM   20  C11 UNL     1      19.749   3.053  51.547  1.00  0.00     0.072 C 
HETATM   21  C12 UNL     1      18.422   3.288  51.431  1.00  0.00    -0.002 C 
BRANCH  21  22
HETATM   22  C13 UNL     1      17.277   2.384  51.170  1.00  0.00     0.143 C 
BRANCH  22  23
HETATM   23  N2  UNL     1      16.240   2.961  50.411  1.00  0.00    -0.418 N 
HETATM   24  C14 UNL     1      16.562   4.168  49.736  1.00  0.00     0.142 C 
HETATM   25  C15 UNL     1      14.936   2.911  50.981  1.00  0.00     0.142 C 
ENDBRANCH  22  23
ENDBRANCH  21  22
ENDBRANCH  18  20
ENDBRANCH   8  16
TORSDOF 5
ENDMDL
