MODEL 1
REMARK VINA RESULT:      -8.3      0.000      0.000
REMARK  7 active torsions:
REMARK  status: ('A' for Active; 'I' for Inactive)
REMARK    1  A    between atoms: C2_2  and  N1_4 
REMARK    2  A    between atoms: N1_4  and  C4_5 
REMARK    3  A    between atoms: N1_4  and  C20_29 
REMARK    4  A    between atoms: C4_5  and  C5_6 
REMARK    5  A    between atoms: C6_7  and  C7_8 
REMARK       I    between atoms: C7_8  and  N2_10 
REMARK    6  A    between atoms: N2_10  and  C8_11 
REMARK    7  A    between atoms: N5_18  and  C13_19 
ROOT
HETATM    1  C8  UNL     1      26.437   4.549  49.392  1.00  0.00     0.129 C 
HETATM    2  C9  UNL     1      26.359   3.528  50.265  1.00  0.00     0.057 C 
HETATM    3  C10 UNL     1      24.983   3.367  50.763  1.00  0.00     0.190 A 
HETATM    4  C11 UNL     1      24.017   3.826  49.768  1.00  0.00     0.082 A 
HETATM    5  N3  UNL     1      22.912   3.146  49.558  1.00  0.00    -0.241 NA
HETATM    6  C12 UNL     1      22.608   1.948  50.256  1.00  0.00     0.255 A 
HETATM    7  N4  UNL     1      23.462   1.535  51.108  1.00  0.00    -0.164 NA
HETATM    8  N5  UNL     1      24.671   2.145  51.412  1.00  0.00    -0.254 N 
HETATM    9  C19 UNL     1      24.169   4.959  48.871  1.00  0.00     0.148 C 
HETATM   10  N6  UNL     1      25.437   5.298  48.692  1.00  0.00    -0.241 NA
ENDROOT
BRANCH   1  11
HETATM   11  N2  UNL     1      27.656   4.983  48.737  1.00  0.00    -0.301 N 
HETATM   12  C7  UNL     1      28.166   6.296  48.497  1.00  0.00     0.302 C 
HETATM   13  O1  UNL     1      27.558   7.329  48.859  1.00  0.00    -0.258 OA
HETATM   14  H10 UNL     1      28.154   4.109  48.440  1.00  0.00     0.171 HD
BRANCH  12  15
HETATM   15  C6  UNL     1      29.424   6.362  47.811  1.00  0.00    -0.004 C 
HETATM   16  C5  UNL     1      30.489   6.400  47.238  1.00  0.00    -0.077 C 
BRANCH  16  17
HETATM   17  C4  UNL     1      31.802   6.430  46.555  1.00  0.00     0.212 C 
BRANCH  17  18
HETATM   18  N1  UNL     1      32.629   5.408  47.150  1.00  0.00    -0.395 N 
BRANCH  18  19
HETATM   19  C2  UNL     1      32.877   4.298  46.330  1.00  0.00     0.072 C 
HETATM   20  C1  UNL     1      32.020   3.081  46.530  1.00  0.00     0.031 C 
HETATM   21  C3  UNL     1      33.078   4.583  44.858  1.00  0.00     0.031 C 
ENDBRANCH  18  19
BRANCH  18  22
HETATM   22  C20 UNL     1      33.637   6.003  47.925  1.00  0.00     0.072 C 
HETATM   23  C21 UNL     1      34.732   5.126  48.441  1.00  0.00     0.031 C 
HETATM   24  C22 UNL     1      34.272   7.241  47.362  1.00  0.00     0.031 C 
ENDBRANCH  18  22
ENDBRANCH  17  18
ENDBRANCH  16  17
ENDBRANCH  12  15
ENDBRANCH   1  11
BRANCH   8  25
HETATM   25  C13 UNL     1      25.515   1.506  52.355  1.00  0.00     0.056 A 
HETATM   26  C14 UNL     1      25.959   2.067  53.522  1.00  0.00     0.034 A 
HETATM   27  C15 UNL     1      26.788   1.452  54.437  1.00  0.00     0.046 A 
HETATM   28  C16 UNL     1      27.203   0.151  54.142  1.00  0.00     0.138 A 
HETATM   29  F1  UNL     1      28.017  -0.536  54.977  1.00  0.00    -0.204 F 
HETATM   30  C17 UNL     1      26.803  -0.493  52.984  1.00  0.00     0.074 A 
HETATM   31 CL1  UNL     1      27.318  -2.122  52.605  1.00  0.00    -0.081 Cl
HETATM   32  C18 UNL     1      25.976   0.214  52.141  1.00  0.00     0.058 A 
ENDBRANCH   8  25
TORSDOF 7
ENDMDL
MODEL 2
REMARK VINA RESULT:      -8.2      2.978      4.219
REMARK  7 active torsions:
REMARK  status: ('A' for Active; 'I' for Inactive)
REMARK    1  A    between atoms: C2_2  and  N1_4 
REMARK    2  A    between atoms: N1_4  and  C4_5 
REMARK    3  A    between atoms: N1_4  and  C20_29 
REMARK    4  A    between atoms: C4_5  and  C5_6 
REMARK    5  A    between atoms: C6_7  and  C7_8 
REMARK       I    between atoms: C7_8  and  N2_10 
REMARK    6  A    between atoms: N2_10  and  C8_11 
REMARK    7  A    between atoms: N5_18  and  C13_19 
ROOT
HETATM    1  C8  UNL     1      24.449   3.680  51.584  1.00  0.00     0.129 C 
HETATM    2  C9  UNL     1      25.081   2.536  51.907  1.00  0.00     0.057 C 
HETATM    3  C10 UNL     1      24.291   1.756  52.873  1.00  0.00     0.190 A 
HETATM    4  C11 UNL     1      22.865   2.025  52.713  1.00  0.00     0.082 A 
HETATM    5  N3  UNL     1      21.995   1.044  52.787  1.00  0.00    -0.241 NA
HETATM    6  C12 UNL     1      22.380  -0.305  53.006  1.00  0.00     0.255 A 
HETATM    7  N4  UNL     1      23.627  -0.544  53.122  1.00  0.00    -0.164 NA
HETATM    8  N5  UNL     1      24.648   0.393  53.048  1.00  0.00    -0.254 N 
HETATM    9  C19 UNL     1      22.257   3.303  52.381  1.00  0.00     0.148 C 
HETATM   10  N6  UNL     1      23.104   4.129  51.788  1.00  0.00    -0.241 NA
ENDROOT
BRANCH   1  11
HETATM   11  N2  UNL     1      24.971   4.681  50.674  1.00  0.00    -0.301 N 
HETATM   12  C7  UNL     1      24.664   4.940  49.302  1.00  0.00     0.302 C 
HETATM   13  O1  UNL     1      23.825   4.265  48.663  1.00  0.00    -0.258 OA
HETATM   14  H10 UNL     1      25.670   5.237  51.222  1.00  0.00     0.171 HD
BRANCH  12  15
HETATM   15  C6  UNL     1      25.378   6.027  48.696  1.00  0.00    -0.004 C 
HETATM   16  C5  UNL     1      25.990   6.946  48.202  1.00  0.00    -0.077 C 
BRANCH  16  17
HETATM   17  C4  UNL     1      26.740   8.082  47.621  1.00  0.00     0.212 C 
BRANCH  17  18
HETATM   18  N1  UNL     1      28.031   8.131  48.266  1.00  0.00    -0.395 N 
BRANCH  18  19
HETATM   19  C2  UNL     1      29.094   7.641  47.495  1.00  0.00     0.072 C 
HETATM   20  C1  UNL     1      29.563   6.241  47.767  1.00  0.00     0.031 C 
HETATM   21  C3  UNL     1      29.024   7.909  46.008  1.00  0.00     0.031 C 
ENDBRANCH  18  19
BRANCH  18  22
HETATM   22  C20 UNL     1      28.139   9.307  49.025  1.00  0.00     0.072 C 
HETATM   23  C21 UNL     1      27.425   9.360  50.337  1.00  0.00     0.031 C 
HETATM   24  C22 UNL     1      29.525   9.841  49.240  1.00  0.00     0.031 C 
ENDBRANCH  18  22
ENDBRANCH  17  18
ENDBRANCH  16  17
ENDBRANCH  12  15
ENDBRANCH   1  11
BRANCH   8  25
HETATM   25  C13 UNL     1      25.983  -0.073  53.152  1.00  0.00     0.056 A 
HETATM   26  C14 UNL     1      26.426  -1.296  52.725  1.00  0.00     0.034 A 
HETATM   27  C15 UNL     1      27.722  -1.756  52.831  1.00  0.00     0.046 A 
HETATM   28  C16 UNL     1      28.651  -0.898  53.424  1.00  0.00     0.138 A 
HETATM   29  F1  UNL     1      29.947  -1.260  53.575  1.00  0.00    -0.204 F 
HETATM   30  C17 UNL     1      28.291   0.356  53.885  1.00  0.00     0.074 A 
HETATM   31 CL1  UNL     1      29.448   1.436  54.629  1.00  0.00    -0.081 Cl
HETATM   32  C18 UNL     1      26.972   0.713  53.728  1.00  0.00     0.058 A 
ENDBRANCH   8  25
TORSDOF 7
ENDMDL
MODEL 3
REMARK VINA RESULT:      -8.2      4.314      6.474
REMARK  7 active torsions:
REMARK  status: ('A' for Active; 'I' for Inactive)
REMARK    1  A    between atoms: C2_2  and  N1_4 
REMARK    2  A    between atoms: N1_4  and  C4_5 
REMARK    3  A    between atoms: N1_4  and  C20_29 
REMARK    4  A    between atoms: C4_5  and  C5_6 
REMARK    5  A    between atoms: C6_7  and  C7_8 
REMARK       I    between atoms: C7_8  and  N2_10 
REMARK    6  A    between atoms: N2_10  and  C8_11 
REMARK    7  A    between atoms: N5_18  and  C13_19 
ROOT
HETATM    1  C8  UNL     1      25.872   1.277  51.888  1.00  0.00     0.129 C 
HETATM    2  C9  UNL     1      24.605   0.975  52.226  1.00  0.00     0.057 C 
HETATM    3  C10 UNL     1      24.555  -0.266  53.016  1.00  0.00     0.190 A 
HETATM    4  C11 UNL     1      25.795  -0.453  53.765  1.00  0.00     0.082 A 
HETATM    5  N3  UNL     1      25.759  -0.893  55.002  1.00  0.00    -0.241 NA
HETATM    6  C12 UNL     1      24.544  -1.190  55.674  1.00  0.00     0.255 A 
HETATM    7  N4  UNL     1      23.460  -1.004  55.028  1.00  0.00    -0.164 NA
HETATM    8  N5  UNL     1      23.356  -0.530  53.728  1.00  0.00    -0.254 N 
HETATM    9  C19 UNL     1      27.135  -0.117  53.316  1.00  0.00     0.148 C 
HETATM   10  N6  UNL     1      27.136   0.790  52.352  1.00  0.00    -0.241 NA
ENDROOT
BRANCH   1  11
HETATM   11  N2  UNL     1      26.261   2.425  51.092  1.00  0.00    -0.301 N 
HETATM   12  C7  UNL     1      25.535   3.160  50.104  1.00  0.00     0.302 C 
HETATM   13  O1  UNL     1      24.362   2.869  49.778  1.00  0.00    -0.258 OA
HETATM   14  H10 UNL     1      27.244   2.657  51.375  1.00  0.00     0.171 HD
BRANCH  12  15
HETATM   15  C6  UNL     1      26.235   4.259  49.503  1.00  0.00    -0.004 C 
HETATM   16  C5  UNL     1      26.829   5.192  49.014  1.00  0.00    -0.077 C 
BRANCH  16  17
HETATM   17  C4  UNL     1      27.550   6.349  48.437  1.00  0.00     0.212 C 
BRANCH  17  18
HETATM   18  N1  UNL     1      26.653   7.480  48.459  1.00  0.00    -0.395 N 
BRANCH  18  19
HETATM   19  C2  UNL     1      26.426   8.028  49.729  1.00  0.00     0.072 C 
HETATM   20  C1  UNL     1      27.324   9.146  50.173  1.00  0.00     0.031 C 
HETATM   21  C3  UNL     1      24.985   8.315  50.089  1.00  0.00     0.031 C 
ENDBRANCH  18  19
BRANCH  18  22
HETATM   22  C20 UNL     1      26.872   8.282  47.328  1.00  0.00     0.072 C 
HETATM   23  C21 UNL     1      28.155   8.107  46.583  1.00  0.00     0.031 C 
HETATM   24  C22 UNL     1      25.762   8.333  46.317  1.00  0.00     0.031 C 
ENDBRANCH  18  22
ENDBRANCH  17  18
ENDBRANCH  16  17
ENDBRANCH  12  15
ENDBRANCH   1  11
BRANCH   8  25
HETATM   25  C13 UNL     1      22.055  -0.341  53.196  1.00  0.00     0.056 A 
HETATM   26  C14 UNL     1      20.887  -0.625  53.850  1.00  0.00     0.034 A 
HETATM   27  C15 UNL     1      19.621  -0.450  53.332  1.00  0.00     0.046 A 
HETATM   28  C16 UNL     1      19.532   0.058  52.034  1.00  0.00     0.138 A 
HETATM   29  F1  UNL     1      18.335   0.264  51.438  1.00  0.00    -0.204 F 
HETATM   30  C17 UNL     1      20.662   0.372  51.299  1.00  0.00     0.074 A 
HETATM   31 CL1  UNL     1      20.560   1.009  49.673  1.00  0.00    -0.081 Cl
HETATM   32  C18 UNL     1      21.874   0.159  51.913  1.00  0.00     0.058 A 
ENDBRANCH   8  25
TORSDOF 7
ENDMDL
MODEL 4
REMARK VINA RESULT:      -8.1      3.609      5.554
REMARK  7 active torsions:
REMARK  status: ('A' for Active; 'I' for Inactive)
REMARK    1  A    between atoms: C2_2  and  N1_4 
REMARK    2  A    between atoms: N1_4  and  C4_5 
REMARK    3  A    between atoms: N1_4  and  C20_29 
REMARK    4  A    between atoms: C4_5  and  C5_6 
REMARK    5  A    between atoms: C6_7  and  C7_8 
REMARK       I    between atoms: C7_8  and  N2_10 
REMARK    6  A    between atoms: N2_10  and  C8_11 
REMARK    7  A    between atoms: N5_18  and  C13_19 
ROOT
HETATM    1  C8  UNL     1      26.185   2.201  51.799  1.00  0.00     0.129 C 
HETATM    2  C9  UNL     1      25.009   1.694  52.212  1.00  0.00     0.057 C 
HETATM    3  C10 UNL     1      25.201   0.387  52.861  1.00  0.00     0.190 A 
HETATM    4  C11 UNL     1      26.525   0.302  53.472  1.00  0.00     0.082 A 
HETATM    5  N3  UNL     1      26.674  -0.257  54.652  1.00  0.00    -0.241 NA
HETATM    6  C12 UNL     1      25.582  -0.784  55.391  1.00  0.00     0.255 A 
HETATM    7  N4  UNL     1      24.423  -0.689  54.868  1.00  0.00    -0.164 NA
HETATM    8  N5  UNL     1      24.126  -0.109  53.643  1.00  0.00    -0.254 N 
HETATM    9  C19 UNL     1      27.758   0.864  52.947  1.00  0.00     0.148 C 
HETATM   10  N6  UNL     1      27.543   1.852  52.093  1.00  0.00    -0.241 NA
ENDROOT
BRANCH   1  11
HETATM   11  N2  UNL     1      26.339   3.464  51.103  1.00  0.00    -0.301 N 
HETATM   12  C7  UNL     1      25.724   3.948  49.908  1.00  0.00     0.302 C 
HETATM   13  O1  UNL     1      24.898   3.270  49.256  1.00  0.00    -0.258 OA
HETATM   14  H10 UNL     1      27.033   4.021  51.659  1.00  0.00     0.171 HD
BRANCH  12  15
HETATM   15  C6  UNL     1      26.111   5.267  49.494  1.00  0.00    -0.004 C 
HETATM   16  C5  UNL     1      26.422   6.385  49.156  1.00  0.00    -0.077 C 
BRANCH  16  17
HETATM   17  C4  UNL     1      26.778   7.762  48.744  1.00  0.00     0.212 C 
BRANCH  17  18
HETATM   18  N1  UNL     1      28.211   7.809  48.567  1.00  0.00    -0.395 N 
BRANCH  18  19
HETATM   19  C2  UNL     1      28.703   7.003  47.530  1.00  0.00     0.072 C 
HETATM   20  C1  UNL     1      29.133   7.686  46.264  1.00  0.00     0.031 C 
HETATM   21  C3  UNL     1      29.690   5.928  47.928  1.00  0.00     0.031 C 
ENDBRANCH  18  19
BRANCH  18  22
HETATM   22  C20 UNL     1      28.673   9.118  48.779  1.00  0.00     0.072 C 
HETATM   23  C21 UNL     1      27.728  10.104  49.384  1.00  0.00     0.031 C 
HETATM   24  C22 UNL     1      29.990   9.257  49.485  1.00  0.00     0.031 C 
ENDBRANCH  18  22
ENDBRANCH  17  18
ENDBRANCH  16  17
ENDBRANCH  12  15
ENDBRANCH   1  11
BRANCH   8  25
HETATM   25  C13 UNL     1      22.764  -0.052  53.251  1.00  0.00     0.056 A 
HETATM   26  C14 UNL     1      21.699  -0.340  54.061  1.00  0.00     0.034 A 
HETATM   27  C15 UNL     1      20.374  -0.293  53.681  1.00  0.00     0.046 A 
HETATM   28  C16 UNL     1      20.106   0.079  52.362  1.00  0.00     0.138 A 
HETATM   29  F1  UNL     1      18.838   0.153  51.894  1.00  0.00    -0.204 F 
HETATM   30  C17 UNL     1      21.122   0.387  51.474  1.00  0.00     0.074 A 
HETATM   31 CL1  UNL     1      20.796   0.854  49.820  1.00  0.00    -0.081 Cl
HETATM   32  C18 UNL     1      22.407   0.308  51.959  1.00  0.00     0.058 A 
ENDBRANCH   8  25
TORSDOF 7
ENDMDL
MODEL 5
REMARK VINA RESULT:      -8.0      4.109      5.298
REMARK  7 active torsions:
REMARK  status: ('A' for Active; 'I' for Inactive)
REMARK    1  A    between atoms: C2_2  and  N1_4 
REMARK    2  A    between atoms: N1_4  and  C4_5 
REMARK    3  A    between atoms: N1_4  and  C20_29 
REMARK    4  A    between atoms: C4_5  and  C5_6 
REMARK    5  A    between atoms: C6_7  and  C7_8 
REMARK       I    between atoms: C7_8  and  N2_10 
REMARK    6  A    between atoms: N2_10  and  C8_11 
REMARK    7  A    between atoms: N5_18  and  C13_19 
ROOT
HETATM    1  C8  UNL     1      24.605   3.529  51.541  1.00  0.00     0.129 C 
HETATM    2  C9  UNL     1      25.322   2.459  51.929  1.00  0.00     0.057 C 
HETATM    3  C10 UNL     1      24.581   1.664  52.922  1.00  0.00     0.190 A 
HETATM    4  C11 UNL     1      23.141   1.807  52.728  1.00  0.00     0.082 A 
HETATM    5  N3  UNL     1      22.352   0.763  52.839  1.00  0.00    -0.241 NA
HETATM    6  C12 UNL     1      22.842  -0.538  53.130  1.00  0.00     0.255 A 
HETATM    7  N4  UNL     1      24.102  -0.668  53.276  1.00  0.00    -0.164 NA
HETATM    8  N5  UNL     1      25.045   0.345  53.169  1.00  0.00    -0.254 N 
HETATM    9  C19 UNL     1      22.438   3.013  52.325  1.00  0.00     0.148 C 
HETATM   10  N6  UNL     1      23.226   3.877  51.703  1.00  0.00    -0.241 NA
ENDROOT
BRANCH   1  11
HETATM   11  N2  UNL     1      25.060   4.525  50.589  1.00  0.00    -0.301 N 
HETATM   12  C7  UNL     1      26.176   4.516  49.697  1.00  0.00     0.302 C 
HETATM   13  O1  UNL     1      26.972   3.551  49.625  1.00  0.00    -0.258 OA
HETATM   14  H10 UNL     1      24.386   5.325  50.659  1.00  0.00     0.171 HD
BRANCH  12  15
HETATM   15  C6  UNL     1      26.334   5.685  48.880  1.00  0.00    -0.004 C 
HETATM   16  C5  UNL     1      26.483   6.676  48.203  1.00  0.00    -0.077 C 
BRANCH  16  17
HETATM   17  C4  UNL     1      26.675   7.901  47.395  1.00  0.00     0.212 C 
BRANCH  17  18
HETATM   18  N1  UNL     1      26.186   9.018  48.168  1.00  0.00    -0.395 N 
BRANCH  18  19
HETATM   19  C2  UNL     1      27.182   9.815  48.749  1.00  0.00     0.072 C 
HETATM   20  C1  UNL     1      27.653   9.445  50.126  1.00  0.00     0.031 C 
HETATM   21  C3  UNL     1      28.348  10.185  47.859  1.00  0.00     0.031 C 
ENDBRANCH  18  19
BRANCH  18  22
HETATM   22  C20 UNL     1      25.058   9.572  47.541  1.00  0.00     0.072 C 
HETATM   23  C21 UNL     1      24.855   9.288  46.088  1.00  0.00     0.031 C 
HETATM   24  C22 UNL     1      23.741   9.371  48.233  1.00  0.00     0.031 C 
ENDBRANCH  18  22
ENDBRANCH  17  18
ENDBRANCH  16  17
ENDBRANCH  12  15
ENDBRANCH   1  11
BRANCH   8  25
HETATM   25  C13 UNL     1      26.411  -0.004  53.314  1.00  0.00     0.056 A 
HETATM   26  C14 UNL     1      26.966  -1.194  52.926  1.00  0.00     0.034 A 
HETATM   27  C15 UNL     1      28.292  -1.541  53.074  1.00  0.00     0.046 A 
HETATM   28  C16 UNL     1      29.131  -0.596  53.668  1.00  0.00     0.138 A 
HETATM   29  F1  UNL     1      30.449  -0.843  53.857  1.00  0.00    -0.204 F 
HETATM   30  C17 UNL     1      28.656   0.633  54.090  1.00  0.00     0.074 A 
HETATM   31 CL1  UNL     1      29.700   1.824  54.836  1.00  0.00    -0.081 Cl
HETATM   32  C18 UNL     1      27.316   0.875  53.895  1.00  0.00     0.058 A 
ENDBRANCH   8  25
TORSDOF 7
ENDMDL
MODEL 6
REMARK VINA RESULT:      -8.0      3.833      6.208
REMARK  7 active torsions:
REMARK  status: ('A' for Active; 'I' for Inactive)
REMARK    1  A    between atoms: C2_2  and  N1_4 
REMARK    2  A    between atoms: N1_4  and  C4_5 
REMARK    3  A    between atoms: N1_4  and  C20_29 
REMARK    4  A    between atoms: C4_5  and  C5_6 
REMARK    5  A    between atoms: C6_7  and  C7_8 
REMARK       I    between atoms: C7_8  and  N2_10 
REMARK    6  A    between atoms: N2_10  and  C8_11 
REMARK    7  A    between atoms: N5_18  and  C13_19 
ROOT
HETATM    1  C8  UNL     1      26.011   0.886  51.970  1.00  0.00     0.129 C 
HETATM    2  C9  UNL     1      24.712   0.692  52.261  1.00  0.00     0.057 C 
HETATM    3  C10 UNL     1      24.538  -0.490  53.121  1.00  0.00     0.190 A 
HETATM    4  C11 UNL     1      25.726  -0.711  53.941  1.00  0.00     0.082 A 
HETATM    5  N3  UNL     1      25.602  -1.068  55.200  1.00  0.00    -0.241 NA
HETATM    6  C12 UNL     1      24.339  -1.239  55.825  1.00  0.00     0.255 A 
HETATM    7  N4  UNL     1      23.302  -1.023  55.116  1.00  0.00    -0.164 NA
HETATM    8  N5  UNL     1      23.292  -0.627  53.786  1.00  0.00    -0.254 N 
HETATM    9  C19 UNL     1      27.106  -0.495  53.542  1.00  0.00     0.148 C 
HETATM   10  N6  UNL     1      27.215   0.346  52.526  1.00  0.00    -0.241 NA
ENDROOT
BRANCH   1  11
HETATM   11  N2  UNL     1      26.516   1.953  51.127  1.00  0.00    -0.301 N 
HETATM   12  C7  UNL     1      25.823   2.953  50.378  1.00  0.00     0.302 C 
HETATM   13  O1  UNL     1      24.574   3.034  50.361  1.00  0.00    -0.258 OA
HETATM   14  H10 UNL     1      27.562   1.873  51.150  1.00  0.00     0.171 HD
BRANCH  12  15
HETATM   15  C6  UNL     1      26.648   3.867  49.641  1.00  0.00    -0.004 C 
HETATM   16  C5  UNL     1      27.329   4.640  49.007  1.00  0.00    -0.077 C 
BRANCH  16  17
HETATM   17  C4  UNL     1      28.149   5.581  48.211  1.00  0.00     0.212 C 
BRANCH  17  18
HETATM   18  N1  UNL     1      27.855   6.917  48.672  1.00  0.00    -0.395 N 
BRANCH  18  19
HETATM   19  C2  UNL     1      28.665   7.922  48.124  1.00  0.00     0.072 C 
HETATM   20  C1  UNL     1      29.343   8.863  49.076  1.00  0.00     0.031 C 
HETATM   21  C3  UNL     1      29.608   7.495  47.020  1.00  0.00     0.031 C 
ENDBRANCH  18  19
BRANCH  18  22
HETATM   22  C20 UNL     1      26.468   7.074  48.819  1.00  0.00     0.072 C 
HETATM   23  C21 UNL     1      25.968   7.757  50.051  1.00  0.00     0.031 C 
HETATM   24  C22 UNL     1      25.731   7.655  47.646  1.00  0.00     0.031 C 
ENDBRANCH  18  22
ENDBRANCH  17  18
ENDBRANCH  16  17
ENDBRANCH  12  15
ENDBRANCH   1  11
BRANCH   8  25
HETATM   25  C13 UNL     1      22.034  -0.385  53.177  1.00  0.00     0.056 A 
HETATM   26  C14 UNL     1      20.819  -0.606  53.767  1.00  0.00     0.034 A 
HETATM   27  C15 UNL     1      19.593  -0.381  53.175  1.00  0.00     0.046 A 
HETATM   28  C16 UNL     1      19.602   0.113  51.869  1.00  0.00     0.138 A 
HETATM   29  F1  UNL     1      18.452   0.365  51.203  1.00  0.00    -0.204 F 
HETATM   30  C17 UNL     1      20.786   0.365  51.196  1.00  0.00     0.074 A 
HETATM   31 CL1  UNL     1      20.807   0.983  49.559  1.00  0.00    -0.081 Cl
HETATM   32  C18 UNL     1      21.950   0.104  51.881  1.00  0.00     0.058 A 
ENDBRANCH   8  25
TORSDOF 7
ENDMDL
MODEL 7
REMARK VINA RESULT:      -7.9      3.618      5.401
REMARK  7 active torsions:
REMARK  status: ('A' for Active; 'I' for Inactive)
REMARK    1  A    between atoms: C2_2  and  N1_4 
REMARK    2  A    between atoms: N1_4  and  C4_5 
REMARK    3  A    between atoms: N1_4  and  C20_29 
REMARK    4  A    between atoms: C4_5  and  C5_6 
REMARK    5  A    between atoms: C6_7  and  C7_8 
REMARK       I    between atoms: C7_8  and  N2_10 
REMARK    6  A    between atoms: N2_10  and  C8_11 
REMARK    7  A    between atoms: N5_18  and  C13_19 
ROOT
HETATM    1  C8  UNL     1      26.194   2.489  51.470  1.00  0.00     0.129 C 
HETATM    2  C9  UNL     1      24.982   1.969  51.735  1.00  0.00     0.057 C 
HETATM    3  C10 UNL     1      25.106   0.671  52.418  1.00  0.00     0.190 A 
HETATM    4  C11 UNL     1      26.342   0.611  53.194  1.00  0.00     0.082 A 
HETATM    5  N3  UNL     1      26.346   0.065  54.389  1.00  0.00    -0.241 NA
HETATM    6  C12 UNL     1      25.175  -0.471  54.989  1.00  0.00     0.255 A 
HETATM    7  N4  UNL     1      24.091  -0.397  54.321  1.00  0.00    -0.164 NA
HETATM    8  N5  UNL     1      23.946   0.166  53.062  1.00  0.00    -0.254 N 
HETATM    9  C19 UNL     1      27.624   1.184  52.825  1.00  0.00     0.148 C 
HETATM   10  N6  UNL     1      27.508   2.161  51.939  1.00  0.00    -0.241 NA
ENDROOT
BRANCH   1  11
HETATM   11  N2  UNL     1      26.420   3.747  50.786  1.00  0.00    -0.301 N 
HETATM   12  C7  UNL     1      25.705   4.362  49.712  1.00  0.00     0.302 C 
HETATM   13  O1  UNL     1      24.700   3.834  49.184  1.00  0.00    -0.258 OA
HETATM   14  H10 UNL     1      27.262   4.178  51.238  1.00  0.00     0.171 HD
BRANCH  12  15
HETATM   15  C6  UNL     1      26.209   5.631  49.271  1.00  0.00    -0.004 C 
HETATM   16  C5  UNL     1      26.652   6.693  48.896  1.00  0.00    -0.077 C 
BRANCH  16  17
HETATM   17  C4  UNL     1      27.217   7.985  48.445  1.00  0.00     0.212 C 
BRANCH  17  18
HETATM   18  N1  UNL     1      28.625   7.982  48.764  1.00  0.00    -0.395 N 
BRANCH  18  19
HETATM   19  C2  UNL     1      29.452   7.423  47.778  1.00  0.00     0.072 C 
HETATM   20  C1  UNL     1      29.847   5.983  47.937  1.00  0.00     0.031 C 
HETATM   21  C3  UNL     1      29.084   7.729  46.343  1.00  0.00     0.031 C 
ENDBRANCH  18  19
BRANCH  18  22
HETATM   22  C20 UNL     1      28.963   9.166  49.438  1.00  0.00     0.072 C 
HETATM   23  C21 UNL     1      30.400   9.576  49.453  1.00  0.00     0.031 C 
HETATM   24  C22 UNL     1      28.146  10.381  49.107  1.00  0.00     0.031 C 
ENDBRANCH  18  22
ENDBRANCH  17  18
ENDBRANCH  16  17
ENDBRANCH  12  15
ENDBRANCH   1  11
BRANCH   8  25
HETATM   25  C13 UNL     1      22.645   0.201  52.498  1.00  0.00     0.056 A 
HETATM   26  C14 UNL     1      22.312   0.816  51.321  1.00  0.00     0.034 A 
HETATM   27  C15 UNL     1      21.047   0.859  50.775  1.00  0.00     0.046 A 
HETATM   28  C16 UNL     1      20.028   0.221  51.486  1.00  0.00     0.138 A 
HETATM   29  F1  UNL     1      18.753   0.209  51.032  1.00  0.00    -0.204 F 
HETATM   30  C17 UNL     1      20.274  -0.425  52.685  1.00  0.00     0.074 A 
HETATM   31 CL1  UNL     1      19.004  -1.227  53.583  1.00  0.00    -0.081 Cl
HETATM   32  C18 UNL     1      21.573  -0.407  53.138  1.00  0.00     0.058 A 
ENDBRANCH   8  25
TORSDOF 7
ENDMDL
MODEL 8
REMARK VINA RESULT:      -7.8      3.434      9.349
REMARK  7 active torsions:
REMARK  status: ('A' for Active; 'I' for Inactive)
REMARK    1  A    between atoms: C2_2  and  N1_4 
REMARK    2  A    between atoms: N1_4  and  C4_5 
REMARK    3  A    between atoms: N1_4  and  C20_29 
REMARK    4  A    between atoms: C4_5  and  C5_6 
REMARK    5  A    between atoms: C6_7  and  C7_8 
REMARK       I    between atoms: C7_8  and  N2_10 
REMARK    6  A    between atoms: N2_10  and  C8_11 
REMARK    7  A    between atoms: N5_18  and  C13_19 
ROOT
HETATM    1  C8  UNL     1      27.426   5.751  48.621  1.00  0.00     0.129 C 
HETATM    2  C9  UNL     1      28.754   5.613  48.455  1.00  0.00     0.057 C 
HETATM    3  C10 UNL     1      29.244   6.502  47.389  1.00  0.00     0.190 A 
HETATM    4  C11 UNL     1      28.404   7.692  47.281  1.00  0.00     0.082 A 
HETATM    5  N3  UNL     1      28.950   8.870  47.084  1.00  0.00    -0.241 NA
HETATM    6  C12 UNL     1      30.354   9.054  46.982  1.00  0.00     0.255 A 
HETATM    7  N4  UNL     1      31.089   8.019  47.100  1.00  0.00    -0.164 NA
HETATM    8  N5  UNL     1      30.644   6.724  47.326  1.00  0.00    -0.254 N 
HETATM    9  C19 UNL     1      26.962   7.753  47.456  1.00  0.00     0.148 C 
HETATM   10  N6  UNL     1      26.493   6.737  48.164  1.00  0.00    -0.241 NA
ENDROOT
BRANCH   1  11
HETATM   11  N2  UNL     1      26.633   5.002  49.578  1.00  0.00    -0.301 N 
HETATM   12  C7  UNL     1      26.487   3.593  49.763  1.00  0.00     0.302 C 
HETATM   13  O1  UNL     1      27.087   2.756  49.051  1.00  0.00    -0.258 OA
HETATM   14  H10 UNL     1      26.137   5.714  50.167  1.00  0.00     0.171 HD
BRANCH  12  15
HETATM   15  C6  UNL     1      25.607   3.189  50.822  1.00  0.00    -0.004 C 
HETATM   16  C5  UNL     1      24.872   2.830  51.713  1.00  0.00    -0.077 C 
BRANCH  16  17
HETATM   17  C4  UNL     1      23.973   2.367  52.794  1.00  0.00     0.212 C 
BRANCH  17  18
HETATM   18  N1  UNL     1      23.379   1.122  52.367  1.00  0.00    -0.395 N 
BRANCH  18  19
HETATM   19  C2  UNL     1      23.751   0.001  53.123  1.00  0.00     0.072 C 
HETATM   20  C1  UNL     1      25.109   0.016  53.764  1.00  0.00     0.031 C 
HETATM   21  C3  UNL     1      22.708  -0.544  54.073  1.00  0.00     0.031 C 
ENDBRANCH  18  19
BRANCH  18  22
HETATM   22  C20 UNL     1      22.053   1.343  51.963  1.00  0.00     0.072 C 
HETATM   23  C21 UNL     1      21.513   2.733  52.063  1.00  0.00     0.031 C 
HETATM   24  C22 UNL     1      21.663   0.799  50.619  1.00  0.00     0.031 C 
ENDBRANCH  18  22
ENDBRANCH  17  18
ENDBRANCH  16  17
ENDBRANCH  12  15
ENDBRANCH   1  11
BRANCH   8  25
HETATM   25  C13 UNL     1      31.619   5.707  47.480  1.00  0.00     0.056 A 
HETATM   26  C14 UNL     1      31.486   4.416  47.044  1.00  0.00     0.034 A 
HETATM   27  C15 UNL     1      32.429   3.421  47.199  1.00  0.00     0.046 A 
HETATM   28  C16 UNL     1      33.612   3.767  47.855  1.00  0.00     0.138 A 
HETATM   29  F1  UNL     1      34.597   2.861  48.057  1.00  0.00    -0.204 F 
HETATM   30  C17 UNL     1      33.831   5.049  48.329  1.00  0.00     0.074 A 
HETATM   31 CL1  UNL     1      35.310   5.491  49.153  1.00  0.00    -0.081 Cl
HETATM   32  C18 UNL     1      32.824   5.962  48.121  1.00  0.00     0.058 A 
ENDBRANCH   8  25
TORSDOF 7
ENDMDL
MODEL 9
REMARK VINA RESULT:      -7.7      5.606     11.985
REMARK  7 active torsions:
REMARK  status: ('A' for Active; 'I' for Inactive)
REMARK    1  A    between atoms: C2_2  and  N1_4 
REMARK    2  A    between atoms: N1_4  and  C4_5 
REMARK    3  A    between atoms: N1_4  and  C20_29 
REMARK    4  A    between atoms: C4_5  and  C5_6 
REMARK    5  A    between atoms: C6_7  and  C7_8 
REMARK       I    between atoms: C7_8  and  N2_10 
REMARK    6  A    between atoms: N2_10  and  C8_11 
REMARK    7  A    between atoms: N5_18  and  C13_19 
ROOT
HETATM    1  C8  UNL     1      22.834  -0.203  53.688  1.00  0.00     0.129 C 
HETATM    2  C9  UNL     1      23.586   0.554  52.869  1.00  0.00     0.057 C 
HETATM    3  C10 UNL     1      24.945   0.721  53.410  1.00  0.00     0.190 A 
HETATM    4  C11 UNL     1      25.319  -0.427  54.232  1.00  0.00     0.082 A 
HETATM    5  N3  UNL     1      26.532  -0.925  54.158  1.00  0.00    -0.241 NA
HETATM    6  C12 UNL     1      27.522  -0.401  53.285  1.00  0.00     0.255 A 
HETATM    7  N4  UNL     1      27.188   0.587  52.550  1.00  0.00    -0.164 NA
HETATM    8  N5  UNL     1      25.942   1.195  52.518  1.00  0.00    -0.254 N 
HETATM    9  C19 UNL     1      24.444  -1.183  55.112  1.00  0.00     0.148 C 
HETATM   10  N6  UNL     1      23.166  -1.052  54.793  1.00  0.00    -0.241 NA
ENDROOT
BRANCH   1  11
HETATM   11  N2  UNL     1      21.442  -0.538  53.453  1.00  0.00    -0.301 N 
HETATM   12  C7  UNL     1      20.316   0.300  53.188  1.00  0.00     0.302 C 
HETATM   13  O1  UNL     1      20.409   1.547  53.120  1.00  0.00    -0.258 OA
HETATM   14  H10 UNL     1      21.380  -1.584  53.513  1.00  0.00     0.171 HD
BRANCH  12  15
HETATM   15  C6  UNL     1      19.064  -0.374  53.002  1.00  0.00    -0.004 C 
HETATM   16  C5  UNL     1      18.010  -0.941  52.825  1.00  0.00    -0.077 C 
BRANCH  16  17
HETATM   17  C4  UNL     1      16.717  -1.622  52.588  1.00  0.00     0.212 C 
BRANCH  17  18
HETATM   18  N1  UNL     1      15.904  -0.747  51.776  1.00  0.00    -0.395 N 
BRANCH  18  19
HETATM   19  C2  UNL     1      15.064  -1.401  50.863  1.00  0.00     0.072 C 
HETATM   20  C1  UNL     1      15.376  -1.250  49.402  1.00  0.00     0.031 C 
HETATM   21  C3  UNL     1      14.698  -2.831  51.194  1.00  0.00     0.031 C 
ENDBRANCH  18  19
BRANCH  18  22
HETATM   22  C20 UNL     1      15.466   0.343  52.544  1.00  0.00     0.072 C 
HETATM   23  C21 UNL     1      15.531   1.704  51.929  1.00  0.00     0.031 C 
HETATM   24  C22 UNL     1      14.122   0.204  53.200  1.00  0.00     0.031 C 
ENDBRANCH  18  22
ENDBRANCH  17  18
ENDBRANCH  16  17
ENDBRANCH  12  15
ENDBRANCH   1  11
BRANCH   8  25
HETATM   25  C13 UNL     1      25.745   2.253  51.594  1.00  0.00     0.056 A 
HETATM   26  C14 UNL     1      26.473   2.446  50.451  1.00  0.00     0.034 A 
HETATM   27  C15 UNL     1      26.291   3.477  49.555  1.00  0.00     0.046 A 
HETATM   28  C16 UNL     1      25.279   4.396  49.844  1.00  0.00     0.138 A 
HETATM   29  F1  UNL     1      25.024   5.444  49.026  1.00  0.00    -0.204 F 
HETATM   30  C17 UNL     1      24.495   4.278  50.978  1.00  0.00     0.074 A 
HETATM   31 CL1  UNL     1      23.225   5.424  51.348  1.00  0.00    -0.081 Cl
HETATM   32  C18 UNL     1      24.763   3.211  51.803  1.00  0.00     0.058 A 
ENDBRANCH   8  25
TORSDOF 7
ENDMDL
