MODEL 1
REMARK VINA RESULT:      -7.6      0.000      0.000
REMARK  3 active torsions:
REMARK  status: ('A' for Active; 'I' for Inactive)
REMARK    1  A    between atoms: C11_13  and  N2_14 
REMARK    2  A    between atoms: N2_14  and  C12_15 
REMARK    3  A    between atoms: C12_15  and  C13_16 
ROOT
HETATM    1  C1  UNL     1      18.872   1.049  51.773  1.00  0.00     0.034 C 
HETATM    2  C2  UNL     1      20.187   0.243  51.562  1.00  0.00     0.107 C 
HETATM    3  C3  UNL     1      20.881   0.325  52.877  1.00  0.00     0.054 C 
HETATM    4  C4  UNL     1      22.005  -0.573  53.101  1.00  0.00    -0.025 C 
HETATM    5  C5  UNL     1      23.294  -0.482  53.323  1.00  0.00    -0.005 C 
HETATM    6  C6  UNL     1      24.608  -0.093  53.539  1.00  0.00     0.072 C 
HETATM    7  C7  UNL     1      25.722   0.391  53.711  1.00  0.00     0.089 C 
HETATM    8 BR1  UNL     1      27.450   0.914  53.991  1.00  0.00    -0.072 Br
HETATM    9  C8  UNL     1      25.192   1.594  53.324  1.00  0.00    -0.048 C 
HETATM   10  C9  UNL     1      24.740   2.582  52.987  1.00  0.00     0.097 C 
HETATM   11  N1  UNL     1      24.262   3.645  52.606  1.00  0.00    -0.368 NA
HETATM   12  C10 UNL     1      23.756   4.624  52.125  1.00  0.00     0.192 C 
HETATM   13  C11 UNL     1      23.130   4.348  50.780  1.00  0.00     0.133 C 
HETATM   14  C15 UNL     1      23.227   2.868  50.464  1.00  0.00     0.058 C 
HETATM   15  C16 UNL     1      22.658   2.535  49.157  1.00  0.00    -0.023 C 
HETATM   16  C17 UNL     1      21.702   1.787  48.647  1.00  0.00     0.015 C 
HETATM   17  C18 UNL     1      20.726   0.908  49.287  1.00  0.00     0.110 C 
HETATM   18  N3  UNL     1      20.942   0.971  50.531  1.00  0.00    -0.297 NA
ENDROOT
BRANCH  13  19
HETATM   19  N2  UNL     1      23.863   5.159  49.848  1.00  0.00    -0.411 N 
HETATM   20  H12 UNL     1      23.663   4.937  48.861  1.00  0.00     0.154 HD
BRANCH  19  21
HETATM   21  C12 UNL     1      25.227   5.361  50.162  1.00  0.00     0.122 C 
BRANCH  21  22
HETATM   22  C13 UNL     1      26.192   4.627  49.252  1.00  0.00     0.047 C 
HETATM   23  C14 UNL     1      26.675   3.408  49.550  1.00  0.00     0.420 C 
HETATM   24  F1  UNL     1      26.751   2.333  50.370  1.00  0.00    -0.455 F 
ENDBRANCH  21  22
ENDBRANCH  19  21
ENDBRANCH  13  19
TORSDOF 3
ENDMDL
MODEL 2
REMARK VINA RESULT:      -7.2      2.614      4.796
REMARK  3 active torsions:
REMARK  status: ('A' for Active; 'I' for Inactive)
REMARK    1  A    between atoms: C11_13  and  N2_14 
REMARK    2  A    between atoms: N2_14  and  C12_15 
REMARK    3  A    between atoms: C12_15  and  C13_16 
ROOT
HETATM    1  C1  UNL     1      25.945   0.153  52.745  1.00  0.00     0.034 C 
HETATM    2  C2  UNL     1      24.646   0.471  53.542  1.00  0.00     0.107 C 
HETATM    3  C3  UNL     1      23.719  -0.639  53.189  1.00  0.00     0.054 C 
HETATM    4  C4  UNL     1      22.518  -0.794  53.997  1.00  0.00    -0.025 C 
HETATM    5  C5  UNL     1      21.219  -0.732  53.830  1.00  0.00    -0.005 C 
HETATM    6  C6  UNL     1      19.916  -0.604  53.372  1.00  0.00     0.072 C 
HETATM    7  C7  UNL     1      18.822  -0.457  52.834  1.00  0.00     0.089 C 
HETATM    8 BR1  UNL     1      17.111  -0.283  52.221  1.00  0.00    -0.072 Br
HETATM    9  C8  UNL     1      19.494   0.030  51.743  1.00  0.00    -0.048 C 
HETATM   10  C9  UNL     1      20.065   0.445  50.851  1.00  0.00     0.097 C 
HETATM   11  N1  UNL     1      20.674   0.911  49.894  1.00  0.00    -0.368 NA
HETATM   12  C10 UNL     1      21.325   1.452  49.041  1.00  0.00     0.192 C 
HETATM   13  C11 UNL     1      22.178   2.570  49.588  1.00  0.00     0.133 C 
HETATM   14  C15 UNL     1      22.049   2.621  51.097  1.00  0.00     0.058 C 
HETATM   15  C16 UNL     1      22.836   3.704  51.691  1.00  0.00    -0.023 C 
HETATM   16  C17 UNL     1      23.821   3.865  52.549  1.00  0.00     0.015 C 
HETATM   17  C18 UNL     1      24.598   2.892  53.314  1.00  0.00     0.110 C 
HETATM   18  N3  UNL     1      24.151   1.749  53.007  1.00  0.00    -0.297 NA
ENDROOT
BRANCH  13  19
HETATM   19  N2  UNL     1      21.692   3.763  48.952  1.00  0.00    -0.411 N 
HETATM   20  H12 UNL     1      20.689   3.725  48.716  1.00  0.00     0.154 HD
BRANCH  19  21
HETATM   21  C12 UNL     1      22.534   4.302  47.952  1.00  0.00     0.122 C 
BRANCH  21  22
HETATM   22  C13 UNL     1      23.466   5.392  48.441  1.00  0.00     0.047 C 
HETATM   23  C14 UNL     1      24.691   5.125  48.928  1.00  0.00     0.420 C 
HETATM   24  F1  UNL     1      25.670   4.247  49.254  1.00  0.00    -0.455 F 
ENDBRANCH  21  22
ENDBRANCH  19  21
ENDBRANCH  13  19
TORSDOF 3
ENDMDL
MODEL 3
REMARK VINA RESULT:      -7.0      2.823      5.746
REMARK  3 active torsions:
REMARK  status: ('A' for Active; 'I' for Inactive)
REMARK    1  A    between atoms: C11_13  and  N2_14 
REMARK    2  A    between atoms: N2_14  and  C12_15 
REMARK    3  A    between atoms: C12_15  and  C13_16 
ROOT
HETATM    1  C1  UNL     1      25.329   7.610  50.807  1.00  0.00     0.034 C 
HETATM    2  C2  UNL     1      24.472   6.558  50.044  1.00  0.00     0.107 C 
HETATM    3  C3  UNL     1      23.355   6.249  50.978  1.00  0.00     0.054 C 
HETATM    4  C4  UNL     1      22.216   5.515  50.445  1.00  0.00    -0.025 C 
HETATM    5  C5  UNL     1      21.627   4.360  50.637  1.00  0.00    -0.005 C 
HETATM    6  C6  UNL     1      21.216   3.099  51.043  1.00  0.00     0.072 C 
HETATM    7  C7  UNL     1      20.971   1.984  51.494  1.00  0.00     0.089 C 
HETATM    8 BR1  UNL     1      20.441   0.322  52.035  1.00  0.00    -0.072 Br
HETATM    9  C8  UNL     1      22.183   2.043  52.131  1.00  0.00    -0.048 C 
HETATM   10  C9  UNL     1      23.199   2.101  52.641  1.00  0.00     0.097 C 
HETATM   11  N1  UNL     1      24.300   2.150  53.178  1.00  0.00    -0.368 NA
HETATM   12  C10 UNL     1      25.429   2.222  53.585  1.00  0.00     0.192 C 
HETATM   13  C11 UNL     1      26.421   2.512  52.486  1.00  0.00     0.133 C 
HETATM   14  C15 UNL     1      25.686   2.739  51.179  1.00  0.00     0.058 C 
HETATM   15  C16 UNL     1      26.596   3.002  50.062  1.00  0.00    -0.023 C 
HETATM   16  C17 UNL     1      26.849   3.951  49.186  1.00  0.00     0.015 C 
HETATM   17  C18 UNL     1      26.240   5.264  48.988  1.00  0.00     0.110 C 
HETATM   18  N3  UNL     1      25.341   5.383  49.870  1.00  0.00    -0.297 NA
ENDROOT
BRANCH  13  19
HETATM   19  N2  UNL     1      27.282   1.362  52.440  1.00  0.00    -0.411 N 
HETATM   20  H12 UNL     1      27.066   0.715  51.668  1.00  0.00     0.154 HD
BRANCH  19  21
HETATM   21  C12 UNL     1      27.547   0.755  53.689  1.00  0.00     0.122 C 
BRANCH  21  22
HETATM   22  C13 UNL     1      29.020   0.559  53.989  1.00  0.00     0.047 C 
HETATM   23  C14 UNL     1      29.691  -0.542  53.608  1.00  0.00     0.420 C 
HETATM   24  F1  UNL     1      29.733  -1.751  52.999  1.00  0.00    -0.455 F 
ENDBRANCH  21  22
ENDBRANCH  19  21
ENDBRANCH  13  19
TORSDOF 3
ENDMDL
MODEL 4
REMARK VINA RESULT:      -6.8      3.054      5.515
REMARK  3 active torsions:
REMARK  status: ('A' for Active; 'I' for Inactive)
REMARK    1  A    between atoms: C11_13  and  N2_14 
REMARK    2  A    between atoms: N2_14  and  C12_15 
REMARK    3  A    between atoms: C12_15  and  C13_16 
ROOT
HETATM    1  C1  UNL     1      21.184   1.344  48.594  1.00  0.00     0.034 C 
HETATM    2  C2  UNL     1      21.297   2.867  48.893  1.00  0.00     0.107 C 
HETATM    3  C3  UNL     1      22.279   3.365  47.891  1.00  0.00     0.054 C 
HETATM    4  C4  UNL     1      22.386   4.806  47.714  1.00  0.00    -0.025 C 
HETATM    5  C5  UNL     1      23.292   5.741  47.874  1.00  0.00    -0.005 C 
HETATM    6  C6  UNL     1      24.420   6.505  48.134  1.00  0.00     0.072 C 
HETATM    7  C7  UNL     1      25.483   7.053  48.410  1.00  0.00     0.089 C 
HETATM    8 BR1  UNL     1      26.974   8.049  48.758  1.00  0.00    -0.072 Br
HETATM    9  C8  UNL     1      25.874   5.871  48.981  1.00  0.00    -0.048 C 
HETATM   10  C9  UNL     1      26.179   4.886  49.464  1.00  0.00     0.097 C 
HETATM   11  N1  UNL     1      26.504   3.834  50.003  1.00  0.00    -0.368 NA
HETATM   12  C10 UNL     1      26.713   2.813  50.601  1.00  0.00     0.192 C 
HETATM   13  C11 UNL     1      25.622   2.491  51.592  1.00  0.00     0.133 C 
HETATM   14  C15 UNL     1      24.504   3.509  51.472  1.00  0.00     0.058 C 
HETATM   15  C16 UNL     1      23.420   3.267  52.426  1.00  0.00    -0.023 C 
HETATM   16  C17 UNL     1      22.131   3.005  52.424  1.00  0.00     0.015 C 
HETATM   17  C18 UNL     1      21.188   2.826  51.322  1.00  0.00     0.110 C 
HETATM   18  N3  UNL     1      21.849   2.968  50.253  1.00  0.00    -0.297 NA
ENDROOT
BRANCH  13  19
HETATM   19  N2  UNL     1      26.259   2.522  52.880  1.00  0.00    -0.411 N 
HETATM   20  H12 UNL     1      26.079   3.389  53.408  1.00  0.00     0.154 HD
BRANCH  19  21
HETATM   21  C12 UNL     1      27.594   2.059  52.906  1.00  0.00     0.122 C 
BRANCH  21  22
HETATM   22  C13 UNL     1      27.839   0.913  53.867  1.00  0.00     0.047 C 
HETATM   23  C14 UNL     1      28.984   0.209  53.869  1.00  0.00     0.420 C 
HETATM   24  F1  UNL     1      30.223  -0.039  53.379  1.00  0.00    -0.455 F 
ENDBRANCH  21  22
ENDBRANCH  19  21
ENDBRANCH  13  19
TORSDOF 3
ENDMDL
MODEL 5
REMARK VINA RESULT:      -6.7      3.200      6.119
REMARK  3 active torsions:
REMARK  status: ('A' for Active; 'I' for Inactive)
REMARK    1  A    between atoms: C11_13  and  N2_14 
REMARK    2  A    between atoms: N2_14  and  C12_15 
REMARK    3  A    between atoms: C12_15  and  C13_16 
ROOT
HETATM    1  C1  UNL     1      20.854   3.646  47.943  1.00  0.00     0.034 C 
HETATM    2  C2  UNL     1      21.456   5.020  48.359  1.00  0.00     0.107 C 
HETATM    3  C3  UNL     1      22.520   5.274  47.348  1.00  0.00     0.054 C 
HETATM    4  C4  UNL     1      23.078   6.617  47.284  1.00  0.00    -0.025 C 
HETATM    5  C5  UNL     1      24.239   7.198  47.469  1.00  0.00    -0.005 C 
HETATM    6  C6  UNL     1      25.559   7.537  47.729  1.00  0.00     0.072 C 
HETATM    7  C7  UNL     1      26.748   7.692  47.990  1.00  0.00     0.089 C 
HETATM    8 BR1  UNL     1      28.488   8.128  48.336  1.00  0.00    -0.072 Br
HETATM    9  C8  UNL     1      26.755   6.398  48.441  1.00  0.00    -0.048 C 
HETATM   10  C9  UNL     1      26.741   5.327  48.825  1.00  0.00     0.097 C 
HETATM   11  N1  UNL     1      26.726   4.180  49.257  1.00  0.00    -0.368 NA
HETATM   12  C10 UNL     1      26.613   3.093  49.757  1.00  0.00     0.192 C 
HETATM   13  C11 UNL     1      25.502   3.040  50.777  1.00  0.00     0.133 C 
HETATM   14  C15 UNL     1      24.766   4.366  50.801  1.00  0.00     0.058 C 
HETATM   15  C16 UNL     1      23.687   4.390  51.791  1.00  0.00    -0.023 C 
HETATM   16  C17 UNL     1      22.382   4.551  51.838  1.00  0.00     0.015 C 
HETATM   17  C18 UNL     1      21.403   4.785  50.779  1.00  0.00     0.110 C 
HETATM   18  N3  UNL     1      22.047   4.811  49.690  1.00  0.00    -0.297 NA
ENDROOT
BRANCH  13  19
HETATM   19  N2  UNL     1      26.148   2.746  52.026  1.00  0.00    -0.411 N 
HETATM   20  H12 UNL     1      26.675   3.542  52.415  1.00  0.00     0.154 HD
BRANCH  19  21
HETATM   21  C12 UNL     1      26.802   1.494  52.090  1.00  0.00     0.122 C 
BRANCH  21  22
HETATM   22  C13 UNL     1      25.891   0.332  52.434  1.00  0.00     0.047 C 
HETATM   23  C14 UNL     1      24.669   0.510  52.965  1.00  0.00     0.420 C 
HETATM   24  F1  UNL     1      23.680   1.318  53.417  1.00  0.00    -0.455 F 
ENDBRANCH  21  22
ENDBRANCH  19  21
ENDBRANCH  13  19
TORSDOF 3
ENDMDL
MODEL 6
REMARK VINA RESULT:      -6.6      3.846      7.427
REMARK  3 active torsions:
REMARK  status: ('A' for Active; 'I' for Inactive)
REMARK    1  A    between atoms: C11_13  and  N2_14 
REMARK    2  A    between atoms: N2_14  and  C12_15 
REMARK    3  A    between atoms: C12_15  and  C13_16 
ROOT
HETATM    1  C1  UNL     1      26.872   9.148  50.139  1.00  0.00     0.034 C 
HETATM    2  C2  UNL     1      26.363   8.529  48.805  1.00  0.00     0.107 C 
HETATM    3  C3  UNL     1      24.890   8.418  48.992  1.00  0.00     0.054 C 
HETATM    4  C4  UNL     1      24.081   8.146  47.812  1.00  0.00    -0.025 C 
HETATM    5  C5  UNL     1      23.286   7.199  47.376  1.00  0.00    -0.005 C 
HETATM    6  C6  UNL     1      22.511   6.067  47.171  1.00  0.00     0.072 C 
HETATM    7  C7  UNL     1      21.878   5.016  47.123  1.00  0.00     0.089 C 
HETATM    8 BR1  UNL     1      20.863   3.520  46.864  1.00  0.00    -0.072 Br
HETATM    9  C8  UNL     1      22.576   4.615  48.231  1.00  0.00    -0.048 C 
HETATM   10  C9  UNL     1      23.175   4.291  49.143  1.00  0.00     0.097 C 
HETATM   11  N1  UNL     1      23.830   3.929  50.114  1.00  0.00    -0.368 NA
HETATM   12  C10 UNL     1      24.580   3.601  50.995  1.00  0.00     0.192 C 
HETATM   13  C11 UNL     1      26.030   3.756  50.606  1.00  0.00     0.133 C 
HETATM   14  C15 UNL     1      26.127   4.393  49.233  1.00  0.00     0.058 C 
HETATM   15  C16 UNL     1      27.512   4.550  48.785  1.00  0.00    -0.023 C 
HETATM   16  C17 UNL     1      28.342   5.508  48.432  1.00  0.00     0.015 C 
HETATM   17  C18 UNL     1      28.163   6.956  48.358  1.00  0.00     0.110 C 
HETATM   18  N3  UNL     1      26.976   7.193  48.723  1.00  0.00    -0.297 NA
ENDROOT
BRANCH  13  19
HETATM   19  N2  UNL     1      26.574   2.427  50.637  1.00  0.00    -0.411 N 
HETATM   20  H12 UNL     1      26.045   1.751  50.066  1.00  0.00     0.154 HD
BRANCH  19  21
HETATM   21  C12 UNL     1      26.975   1.966  51.912  1.00  0.00     0.122 C 
BRANCH  21  22
HETATM   22  C13 UNL     1      26.720   0.491  52.151  1.00  0.00     0.047 C 
HETATM   23  C14 UNL     1      26.841  -0.071  53.366  1.00  0.00     0.420 C 
HETATM   24  F1  UNL     1      27.113   0.018  54.690  1.00  0.00    -0.455 F 
ENDBRANCH  21  22
ENDBRANCH  19  21
ENDBRANCH  13  19
TORSDOF 3
ENDMDL
MODEL 7
REMARK VINA RESULT:      -6.5      2.673      5.612
REMARK  3 active torsions:
REMARK  status: ('A' for Active; 'I' for Inactive)
REMARK    1  A    between atoms: C11_13  and  N2_14 
REMARK    2  A    between atoms: N2_14  and  C12_15 
REMARK    3  A    between atoms: C12_15  and  C13_16 
ROOT
HETATM    1  C1  UNL     1      22.262   3.445  47.820  1.00  0.00     0.034 C 
HETATM    2  C2  UNL     1      23.092   3.936  49.042  1.00  0.00     0.107 C 
HETATM    3  C3  UNL     1      24.197   2.945  49.156  1.00  0.00     0.054 C 
HETATM    4  C4  UNL     1      25.317   3.284  50.022  1.00  0.00    -0.025 C 
HETATM    5  C5  UNL     1      25.873   2.825  51.117  1.00  0.00    -0.005 C 
HETATM    6  C6  UNL     1      26.247   2.135  52.261  1.00  0.00     0.072 C 
HETATM    7  C7  UNL     1      26.460   1.436  53.247  1.00  0.00     0.089 C 
HETATM    8 BR1  UNL     1      26.942   0.521  54.753  1.00  0.00    -0.072 Br
HETATM    9  C8  UNL     1      25.248   0.842  53.012  1.00  0.00    -0.048 C 
HETATM   10  C9  UNL     1      24.232   0.369  52.811  1.00  0.00     0.097 C 
HETATM   11  N1  UNL     1      23.131  -0.131  52.611  1.00  0.00    -0.368 NA
HETATM   12  C10 UNL     1      22.003  -0.500  52.417  1.00  0.00     0.192 C 
HETATM   13  C11 UNL     1      21.023   0.647  52.363  1.00  0.00     0.133 C 
HETATM   14  C15 UNL     1      21.769   1.963  52.463  1.00  0.00     0.058 C 
HETATM   15  C16 UNL     1      20.871   3.119  52.440  1.00  0.00    -0.023 C 
HETATM   16  C17 UNL     1      20.647   4.193  51.714  1.00  0.00     0.015 C 
HETATM   17  C18 UNL     1      21.293   4.683  50.498  1.00  0.00     0.110 C 
HETATM   18  N3  UNL     1      22.191   3.843  50.202  1.00  0.00    -0.297 NA
ENDROOT
BRANCH  13  19
HETATM   19  N2  UNL     1      20.131   0.434  53.469  1.00  0.00    -0.411 N 
HETATM   20  H12 UNL     1      20.428   0.907  54.335  1.00  0.00     0.154 HD
BRANCH  19  21
HETATM   21  C12 UNL     1      19.667  -0.892  53.626  1.00  0.00     0.122 C 
BRANCH  21  22
HETATM   22  C13 UNL     1      18.247  -1.118  53.147  1.00  0.00     0.047 C 
HETATM   23  C14 UNL     1      17.763  -0.540  52.034  1.00  0.00     0.420 C 
HETATM   24  F1  UNL     1      17.917   0.263  50.954  1.00  0.00    -0.455 F 
ENDBRANCH  21  22
ENDBRANCH  19  21
ENDBRANCH  13  19
TORSDOF 3
ENDMDL
MODEL 8
REMARK VINA RESULT:      -6.4      3.195      5.930
REMARK  3 active torsions:
REMARK  status: ('A' for Active; 'I' for Inactive)
REMARK    1  A    between atoms: C11_13  and  N2_14 
REMARK    2  A    between atoms: N2_14  and  C12_15 
REMARK    3  A    between atoms: C12_15  and  C13_16 
ROOT
HETATM    1  C1  UNL     1      25.713   4.245  49.308  1.00  0.00     0.034 C 
HETATM    2  C2  UNL     1      25.424   3.874  50.792  1.00  0.00     0.107 C 
HETATM    3  C3  UNL     1      25.444   2.385  50.807  1.00  0.00     0.054 C 
HETATM    4  C4  UNL     1      25.497   1.727  52.105  1.00  0.00    -0.025 C 
HETATM    5  C5  UNL     1      24.748   0.921  52.818  1.00  0.00    -0.005 C 
HETATM    6  C6  UNL     1      23.770   0.088  53.341  1.00  0.00     0.072 C 
HETATM    7  C7  UNL     1      22.826  -0.620  53.679  1.00  0.00     0.089 C 
HETATM    8 BR1  UNL     1      21.531  -1.714  54.359  1.00  0.00    -0.072 Br
HETATM    9  C8  UNL     1      22.143  -0.118  52.603  1.00  0.00    -0.048 C 
HETATM   10  C9  UNL     1      21.584   0.319  51.713  1.00  0.00     0.097 C 
HETATM   11  N1  UNL     1      20.970   0.800  50.768  1.00  0.00    -0.368 NA
HETATM   12  C10 UNL     1      20.397   1.390  49.891  1.00  0.00     0.192 C 
HETATM   13  C11 UNL     1      20.461   2.888  50.066  1.00  0.00     0.133 C 
HETATM   14  C15 UNL     1      21.336   3.227  51.256  1.00  0.00     0.058 C 
HETATM   15  C16 UNL     1      21.421   4.669  51.496  1.00  0.00    -0.023 C 
HETATM   16  C17 UNL     1      22.330   5.620  51.544  1.00  0.00     0.015 C 
HETATM   17  C18 UNL     1      23.776   5.577  51.338  1.00  0.00     0.110 C 
HETATM   18  N3  UNL     1      24.070   4.375  51.074  1.00  0.00    -0.297 NA
ENDROOT
BRANCH  13  19
HETATM   19  N2  UNL     1      19.098   3.307  50.246  1.00  0.00    -0.411 N 
HETATM   20  H12 UNL     1      18.941   4.302  50.028  1.00  0.00     0.154 HD
BRANCH  19  21
HETATM   21  C12 UNL     1      18.470   2.834  51.420  1.00  0.00     0.122 C 
BRANCH  21  22
HETATM   22  C13 UNL     1      16.956   2.801  51.348  1.00  0.00     0.047 C 
HETATM   23  C14 UNL     1      16.186   3.687  52.003  1.00  0.00     0.420 C 
HETATM   24  F1  UNL     1      16.047   4.761  52.818  1.00  0.00    -0.455 F 
ENDBRANCH  21  22
ENDBRANCH  19  21
ENDBRANCH  13  19
TORSDOF 3
ENDMDL
MODEL 9
REMARK VINA RESULT:      -6.4      3.545      7.000
REMARK  3 active torsions:
REMARK  status: ('A' for Active; 'I' for Inactive)
REMARK    1  A    between atoms: C11_13  and  N2_14 
REMARK    2  A    between atoms: N2_14  and  C12_15 
REMARK    3  A    between atoms: C12_15  and  C13_16 
ROOT
HETATM    1  C1  UNL     1      21.597   6.753  46.864  1.00  0.00     0.034 C 
HETATM    2  C2  UNL     1      22.759   7.682  47.321  1.00  0.00     0.107 C 
HETATM    3  C3  UNL     1      23.917   7.256  46.487  1.00  0.00     0.054 C 
HETATM    4  C4  UNL     1      25.085   8.126  46.465  1.00  0.00    -0.025 C 
HETATM    5  C5  UNL     1      26.347   8.069  46.815  1.00  0.00    -0.005 C 
HETATM    6  C6  UNL     1      27.613   7.733  47.272  1.00  0.00     0.072 C 
HETATM    7  C7  UNL     1      28.674   7.304  47.717  1.00  0.00     0.089 C 
HETATM    8 BR1  UNL     1      30.336   6.852  48.324  1.00  0.00    -0.072 Br
HETATM    9  C8  UNL     1      27.966   6.240  48.210  1.00  0.00    -0.048 C 
HETATM   10  C9  UNL     1      27.362   5.369  48.625  1.00  0.00     0.097 C 
HETATM   11  N1  UNL     1      26.713   4.439  49.091  1.00  0.00    -0.368 NA
HETATM   12  C10 UNL     1      26.002   3.618  49.606  1.00  0.00     0.192 C 
HETATM   13  C11 UNL     1      24.906   4.242  50.434  1.00  0.00     0.133 C 
HETATM   14  C15 UNL     1      24.951   5.750  50.290  1.00  0.00     0.058 C 
HETATM   15  C16 UNL     1      23.924   6.421  51.090  1.00  0.00    -0.023 C 
HETATM   16  C17 UNL     1      22.888   7.214  50.919  1.00  0.00     0.015 C 
HETATM   17  C18 UNL     1      22.301   7.782  49.707  1.00  0.00     0.110 C 
HETATM   18  N3  UNL     1      22.995   7.360  48.737  1.00  0.00    -0.297 NA
ENDROOT
BRANCH  13  19
HETATM   19  N2  UNL     1      25.156   3.809  51.781  1.00  0.00    -0.411 N 
HETATM   20  H12 UNL     1      26.158   3.752  52.016  1.00  0.00     0.154 HD
BRANCH  19  21
HETATM   21  C12 UNL     1      24.362   2.727  52.226  1.00  0.00     0.122 C 
BRANCH  21  22
HETATM   22  C13 UNL     1      25.122   1.679  53.016  1.00  0.00     0.047 C 
HETATM   23  C14 UNL     1      25.984   0.827  52.434  1.00  0.00     0.420 C 
HETATM   24  F1  UNL     1      26.621   0.352  51.337  1.00  0.00    -0.455 F 
ENDBRANCH  21  22
ENDBRANCH  19  21
ENDBRANCH  13  19
TORSDOF 3
ENDMDL
