MODEL 1
REMARK VINA RESULT:      -8.5      0.000      0.000
REMARK  4 active torsions:
REMARK  status: ('A' for Active; 'I' for Inactive)
REMARK    1  A    between atoms: N1_4  and  C4_5 
REMARK    2  A    between atoms: C8_12  and  N5_13 
REMARK    3  A    between atoms: N5_13  and  C9_14 
REMARK    4  A    between atoms: C17_24  and  N6_25 
ROOT
HETATM    1  C4  UNL     1      22.074   0.959  51.288  1.00  0.00     0.064 A 
HETATM    2  C5  UNL     1      20.999   0.737  50.419  1.00  0.00     0.051 A 
HETATM    3  C6  UNL     1      21.227   1.458  49.241  1.00  0.00     0.121 A 
HETATM    4  N2  UNL     1      22.401   2.081  49.423  1.00  0.00    -0.238 N 
HETATM    5  N3  UNL     1      23.061   2.888  48.605  1.00  0.00    -0.161 NA
HETATM    6  C7  UNL     1      24.235   3.438  48.940  1.00  0.00     0.258 A 
HETATM    7  N4  UNL     1      24.713   3.130  50.153  1.00  0.00    -0.220 NA
HETATM    8  C8  UNL     1      24.124   2.329  51.050  1.00  0.00     0.160 A 
HETATM    9  C15 UNL     1      22.927   1.808  50.623  1.00  0.00     0.130 A 
ENDROOT
BRANCH   8  10
HETATM   10  N5  UNL     1      24.604   2.013  52.336  1.00  0.00    -0.339 N 
HETATM   11  H10 UNL     1      24.083   2.307  53.173  1.00  0.00     0.167 HD
BRANCH  10  12
HETATM   12  C9  UNL     1      25.779   1.324  52.702  1.00  0.00     0.036 A 
HETATM   13  C10 UNL     1      26.820   1.975  53.294  1.00  0.00     0.053 A 
HETATM   14  C11 UNL     1      27.979   1.341  53.655  1.00  0.00     0.037 A 
HETATM   15 CL1  UNL     1      29.332   2.158  54.419  1.00  0.00    -0.084 Cl
HETATM   16  C12 UNL     1      28.179  -0.003  53.447  1.00  0.00     0.048 A 
HETATM   17  C13 UNL     1      27.132  -0.702  52.841  1.00  0.00     0.037 A 
HETATM   18 CL2  UNL     1      27.228  -2.416  52.509  1.00  0.00    -0.084 Cl
HETATM   19  C14 UNL     1      25.993  -0.014  52.501  1.00  0.00     0.053 A 
ENDBRANCH  10  12
ENDBRANCH   8  10
BRANCH   1  20
HETATM   20  N1  UNL     1      22.016   0.261  52.500  1.00  0.00    -0.376 N 
HETATM   21  C3  UNL     1      22.724  -0.891  53.097  1.00  0.00     0.129 C 
HETATM   22  C2  UNL     1      22.541  -0.599  54.550  1.00  0.00     0.034 C 
HETATM   23  C1  UNL     1      22.900  -1.737  55.464  1.00  0.00     0.014 C 
HETATM   24  C17 UNL     1      21.074  -0.243  54.611  1.00  0.00     0.240 C 
HETATM   25  C16 UNL     1      21.011   0.767  53.457  1.00  0.00     0.159 C 
BRANCH  24  26
HETATM   26  N6  UNL     1      20.203  -1.327  54.262  1.00  0.00     0.085 N 
HETATM   27  H17 UNL     1      20.580  -2.267  54.489  1.00  0.00     0.313 HD
HETATM   28  H18 UNL     1      19.244  -1.261  54.607  1.00  0.00     0.313 HD
ENDBRANCH  24  26
ENDBRANCH   1  20
TORSDOF 4
ENDMDL
MODEL 2
REMARK VINA RESULT:      -8.4      0.258      1.803
REMARK  4 active torsions:
REMARK  status: ('A' for Active; 'I' for Inactive)
REMARK    1  A    between atoms: N1_4  and  C4_5 
REMARK    2  A    between atoms: C8_12  and  N5_13 
REMARK    3  A    between atoms: N5_13  and  C9_14 
REMARK    4  A    between atoms: C17_24  and  N6_25 
ROOT
HETATM    1  C4  UNL     1      22.176   1.129  51.328  1.00  0.00     0.064 A 
HETATM    2  C5  UNL     1      21.094   1.050  50.444  1.00  0.00     0.051 A 
HETATM    3  C6  UNL     1      21.398   1.806  49.305  1.00  0.00     0.121 A 
HETATM    4  N2  UNL     1      22.622   2.308  49.524  1.00  0.00    -0.238 N 
HETATM    5  N3  UNL     1      23.361   3.092  48.752  1.00  0.00    -0.161 NA
HETATM    6  C7  UNL     1      24.577   3.514  49.121  1.00  0.00     0.258 A 
HETATM    7  N4  UNL     1      25.013   3.103  50.318  1.00  0.00    -0.220 NA
HETATM    8  C8  UNL     1      24.345   2.314  51.170  1.00  0.00     0.160 A 
HETATM    9  C15 UNL     1      23.109   1.928  50.712  1.00  0.00     0.130 A 
ENDROOT
BRANCH   8  10
HETATM   10  N5  UNL     1      24.782   1.892  52.441  1.00  0.00    -0.339 N 
HETATM   11  H10 UNL     1      24.214   2.082  53.277  1.00  0.00     0.167 HD
BRANCH  10  12
HETATM   12  C9  UNL     1      25.968   1.213  52.793  1.00  0.00     0.036 A 
HETATM   13  C10 UNL     1      26.114  -0.119  52.548  1.00  0.00     0.053 A 
HETATM   14  C11 UNL     1      27.247  -0.812  52.885  1.00  0.00     0.037 A 
HETATM   15 CL1  UNL     1      27.459  -2.528  52.579  1.00  0.00    -0.084 Cl
HETATM   16  C12 UNL     1      28.323  -0.213  53.495  1.00  0.00     0.048 A 
HETATM   17  C13 UNL     1      28.207   1.153  53.762  1.00  0.00     0.037 A 
HETATM   18 CL2  UNL     1      29.486   2.063  54.531  1.00  0.00    -0.084 Cl
HETATM   19  C14 UNL     1      27.047   1.796  53.402  1.00  0.00     0.053 A 
ENDBRANCH  10  12
ENDBRANCH   8  10
BRANCH   1  20
HETATM   20  N1  UNL     1      22.043   0.378  52.502  1.00  0.00    -0.376 N 
HETATM   21  C3  UNL     1      22.663  -0.844  53.058  1.00  0.00     0.129 C 
HETATM   22  C2  UNL     1      22.459  -0.611  54.519  1.00  0.00     0.034 C 
HETATM   23  C1  UNL     1      22.724  -1.810  55.384  1.00  0.00     0.014 C 
HETATM   24  C17 UNL     1      21.016  -0.166  54.563  1.00  0.00     0.240 C 
HETATM   25  C16 UNL     1      21.046   0.899  53.459  1.00  0.00     0.159 C 
BRANCH  24  26
HETATM   26  N6  UNL     1      20.090  -1.176  54.140  1.00  0.00     0.085 N 
HETATM   27  H17 UNL     1      19.244  -1.254  54.736  1.00  0.00     0.313 HD
HETATM   28  H18 UNL     1      19.805  -1.141  53.159  1.00  0.00     0.313 HD
ENDBRANCH  24  26
ENDBRANCH   1  20
TORSDOF 4
ENDMDL
MODEL 3
REMARK VINA RESULT:      -8.3      1.344      4.525
REMARK  4 active torsions:
REMARK  status: ('A' for Active; 'I' for Inactive)
REMARK    1  A    between atoms: N1_4  and  C4_5 
REMARK    2  A    between atoms: C8_12  and  N5_13 
REMARK    3  A    between atoms: N5_13  and  C9_14 
REMARK    4  A    between atoms: C17_24  and  N6_25 
ROOT
HETATM    1  C4  UNL     1      22.350   1.652  52.166  1.00  0.00     0.064 A 
HETATM    2  C5  UNL     1      20.995   1.973  52.309  1.00  0.00     0.051 A 
HETATM    3  C6  UNL     1      20.458   1.180  53.331  1.00  0.00     0.121 A 
HETATM    4  N2  UNL     1      21.474   0.421  53.766  1.00  0.00    -0.238 N 
HETATM    5  N3  UNL     1      21.490  -0.497  54.722  1.00  0.00    -0.161 NA
HETATM    6  C7  UNL     1      22.599  -1.177  55.040  1.00  0.00     0.258 A 
HETATM    7  N4  UNL     1      23.700  -0.882  54.338  1.00  0.00    -0.220 NA
HETATM    8  C8  UNL     1      23.788   0.025  53.357  1.00  0.00     0.160 A 
HETATM    9  C15 UNL     1      22.606   0.675  53.098  1.00  0.00     0.130 A 
ENDROOT
BRANCH   8  10
HETATM   10  N5  UNL     1      24.934   0.330  52.596  1.00  0.00    -0.339 N 
HETATM   11  H10 UNL     1      24.842   0.722  51.650  1.00  0.00     0.167 HD
BRANCH  10  12
HETATM   12  C9  UNL     1      26.294   0.160  52.930  1.00  0.00     0.036 A 
HETATM   13  C10 UNL     1      27.064   1.222  53.300  1.00  0.00     0.053 A 
HETATM   14  C11 UNL     1      28.390   1.096  53.622  1.00  0.00     0.037 A 
HETATM   15 CL1  UNL     1      29.401   2.448  54.101  1.00  0.00    -0.084 Cl
HETATM   16  C12 UNL     1      29.043  -0.113  53.597  1.00  0.00     0.048 A 
HETATM   17  C13 UNL     1      28.283  -1.224  53.222  1.00  0.00     0.037 A 
HETATM   18 CL2  UNL     1      28.963  -2.832  53.142  1.00  0.00    -0.084 Cl
HETATM   19  C14 UNL     1      26.958  -1.038  52.909  1.00  0.00     0.053 A 
ENDBRANCH  10  12
ENDBRANCH   8  10
BRANCH   1  20
HETATM   20  N1  UNL     1      23.043   2.402  51.209  1.00  0.00    -0.376 N 
HETATM   21  C3  UNL     1      24.098   3.438  51.231  1.00  0.00     0.129 C 
HETATM   22  C2  UNL     1      24.694   3.247  49.875  1.00  0.00     0.034 C 
HETATM   23  C1  UNL     1      25.629   4.342  49.445  1.00  0.00     0.014 C 
HETATM   24  C17 UNL     1      23.462   3.156  49.006  1.00  0.00     0.240 C 
HETATM   25  C16 UNL     1      22.661   2.124  49.810  1.00  0.00     0.159 C 
BRANCH  24  26
HETATM   26  N6  UNL     1      22.683   4.360  48.984  1.00  0.00     0.085 N 
HETATM   27  H17 UNL     1      22.407   4.706  49.922  1.00  0.00     0.313 HD
HETATM   28  H18 UNL     1      23.072   5.136  48.444  1.00  0.00     0.313 HD
ENDBRANCH  24  26
ENDBRANCH   1  20
TORSDOF 4
ENDMDL
MODEL 4
REMARK VINA RESULT:      -8.3      1.345      4.841
REMARK  4 active torsions:
REMARK  status: ('A' for Active; 'I' for Inactive)
REMARK    1  A    between atoms: N1_4  and  C4_5 
REMARK    2  A    between atoms: C8_12  and  N5_13 
REMARK    3  A    between atoms: N5_13  and  C9_14 
REMARK    4  A    between atoms: C17_24  and  N6_25 
ROOT
HETATM    1  C4  UNL     1      22.353   1.648  52.139  1.00  0.00     0.064 A 
HETATM    2  C5  UNL     1      20.991   1.949  52.273  1.00  0.00     0.051 A 
HETATM    3  C6  UNL     1      20.461   1.152  53.295  1.00  0.00     0.121 A 
HETATM    4  N2  UNL     1      21.486   0.411  53.740  1.00  0.00    -0.238 N 
HETATM    5  N3  UNL     1      21.510  -0.503  54.700  1.00  0.00    -0.161 NA
HETATM    6  C7  UNL     1      22.627  -1.165  55.027  1.00  0.00     0.258 A 
HETATM    7  N4  UNL     1      23.728  -0.856  54.330  1.00  0.00    -0.220 NA
HETATM    8  C8  UNL     1      23.808   0.047  53.345  1.00  0.00     0.160 A 
HETATM    9  C15 UNL     1      22.618   0.678  53.077  1.00  0.00     0.130 A 
ENDROOT
BRANCH   8  10
HETATM   10  N5  UNL     1      24.953   0.367  52.590  1.00  0.00    -0.339 N 
HETATM   11  H10 UNL     1      24.860   0.773  51.649  1.00  0.00     0.167 HD
BRANCH  10  12
HETATM   12  C9  UNL     1      26.314   0.194  52.921  1.00  0.00     0.036 A 
HETATM   13  C10 UNL     1      26.897  -1.036  52.875  1.00  0.00     0.053 A 
HETATM   14  C11 UNL     1      28.212  -1.242  53.199  1.00  0.00     0.037 A 
HETATM   15 CL1  UNL     1      28.986  -2.817  53.147  1.00  0.00    -0.084 Cl
HETATM   16  C12 UNL     1      29.043  -0.221  53.595  1.00  0.00     0.048 A 
HETATM   17  C13 UNL     1      28.477   1.055  53.653  1.00  0.00     0.037 A 
HETATM   18 CL2  UNL     1      29.398   2.460  54.135  1.00  0.00    -0.084 Cl
HETATM   19  C14 UNL     1      27.153   1.202  53.317  1.00  0.00     0.053 A 
ENDBRANCH  10  12
ENDBRANCH   8  10
BRANCH   1  20
HETATM   20  N1  UNL     1      23.039   2.404  51.183  1.00  0.00    -0.376 N 
HETATM   21  C3  UNL     1      24.073   3.461  51.206  1.00  0.00     0.129 C 
HETATM   22  C2  UNL     1      24.686   3.271  49.858  1.00  0.00     0.034 C 
HETATM   23  C1  UNL     1      25.602   4.382  49.428  1.00  0.00     0.014 C 
HETATM   24  C17 UNL     1      23.465   3.148  48.977  1.00  0.00     0.240 C 
HETATM   25  C16 UNL     1      22.677   2.106  49.783  1.00  0.00     0.159 C 
BRANCH  24  26
HETATM   26  N6  UNL     1      22.662   4.335  48.937  1.00  0.00     0.085 N 
HETATM   27  H17 UNL     1      22.369   4.683  49.870  1.00  0.00     0.313 HD
HETATM   28  H18 UNL     1      23.040   5.115  48.395  1.00  0.00     0.313 HD
ENDBRANCH  24  26
ENDBRANCH   1  20
TORSDOF 4
ENDMDL
MODEL 5
REMARK VINA RESULT:      -7.8      2.736      5.103
REMARK  4 active torsions:
REMARK  status: ('A' for Active; 'I' for Inactive)
REMARK    1  A    between atoms: N1_4  and  C4_5 
REMARK    2  A    between atoms: C8_12  and  N5_13 
REMARK    3  A    between atoms: N5_13  and  C9_14 
REMARK    4  A    between atoms: C17_24  and  N6_25 
ROOT
HETATM    1  C4  UNL     1      23.663  -0.014  53.125  1.00  0.00     0.064 A 
HETATM    2  C5  UNL     1      22.899  -0.850  53.949  1.00  0.00     0.051 A 
HETATM    3  C6  UNL     1      21.556  -0.737  53.568  1.00  0.00     0.121 A 
HETATM    4  N2  UNL     1      21.543   0.139  52.552  1.00  0.00    -0.238 N 
HETATM    5  N3  UNL     1      20.519   0.588  51.842  1.00  0.00    -0.161 NA
HETATM    6  C7  UNL     1      20.673   1.474  50.849  1.00  0.00     0.258 A 
HETATM    7  N4  UNL     1      21.925   1.886  50.608  1.00  0.00    -0.220 NA
HETATM    8  C8  UNL     1      23.022   1.494  51.268  1.00  0.00     0.160 A 
HETATM    9  C15 UNL     1      22.772   0.586  52.266  1.00  0.00     0.130 A 
ENDROOT
BRANCH   8  10
HETATM   10  N5  UNL     1      24.341   1.935  51.040  1.00  0.00    -0.339 N 
HETATM   11  H10 UNL     1      25.136   1.302  51.194  1.00  0.00     0.167 HD
BRANCH  10  12
HETATM   12  C9  UNL     1      24.794   3.204  50.619  1.00  0.00     0.036 A 
HETATM   13  C10 UNL     1      25.928   3.333  49.875  1.00  0.00     0.053 A 
HETATM   14  C11 UNL     1      26.403   4.549  49.458  1.00  0.00     0.037 A 
HETATM   15 CL1  UNL     1      27.860   4.741  48.499  1.00  0.00    -0.084 Cl
HETATM   16  C12 UNL     1      25.768   5.731  49.759  1.00  0.00     0.048 A 
HETATM   17  C13 UNL     1      24.601   5.635  50.521  1.00  0.00     0.037 A 
HETATM   18 CL2  UNL     1      23.675   7.043  50.986  1.00  0.00    -0.084 Cl
HETATM   19  C14 UNL     1      24.173   4.389  50.912  1.00  0.00     0.053 A 
ENDBRANCH  10  12
ENDBRANCH   8  10
BRANCH   1  20
HETATM   20  N1  UNL     1      25.043  -0.053  53.351  1.00  0.00    -0.376 N 
HETATM   21  C3  UNL     1      26.131  -1.026  53.116  1.00  0.00     0.129 C 
HETATM   22  C2  UNL     1      27.306  -0.107  53.038  1.00  0.00     0.034 C 
HETATM   23  C1  UNL     1      28.640  -0.795  53.086  1.00  0.00     0.014 C 
HETATM   24  C17 UNL     1      27.071   0.795  54.227  1.00  0.00     0.240 C 
HETATM   25  C16 UNL     1      25.601   1.160  53.981  1.00  0.00     0.159 C 
BRANCH  24  26
HETATM   26  N6  UNL     1      27.123   0.112  55.487  1.00  0.00     0.085 N 
HETATM   27  H17 UNL     1      26.336  -0.546  55.648  1.00  0.00     0.313 HD
HETATM   28  H18 UNL     1      28.002  -0.362  55.705  1.00  0.00     0.313 HD
ENDBRANCH  24  26
ENDBRANCH   1  20
TORSDOF 4
ENDMDL
MODEL 6
REMARK VINA RESULT:      -7.7      2.703      5.002
REMARK  4 active torsions:
REMARK  status: ('A' for Active; 'I' for Inactive)
REMARK    1  A    between atoms: N1_4  and  C4_5 
REMARK    2  A    between atoms: C8_12  and  N5_13 
REMARK    3  A    between atoms: N5_13  and  C9_14 
REMARK    4  A    between atoms: C17_24  and  N6_25 
ROOT
HETATM    1  C4  UNL     1      23.532   0.142  53.027  1.00  0.00     0.064 A 
HETATM    2  C5  UNL     1      22.751  -0.628  53.899  1.00  0.00     0.051 A 
HETATM    3  C6  UNL     1      21.412  -0.519  53.505  1.00  0.00     0.121 A 
HETATM    4  N2  UNL     1      21.417   0.291  52.437  1.00  0.00    -0.238 N 
HETATM    5  N3  UNL     1      20.403   0.711  51.694  1.00  0.00    -0.161 NA
HETATM    6  C7  UNL     1      20.574   1.529  50.648  1.00  0.00     0.258 A 
HETATM    7  N4  UNL     1      21.833   1.906  50.388  1.00  0.00    -0.220 NA
HETATM    8  C8  UNL     1      22.922   1.540  51.076  1.00  0.00     0.160 A 
HETATM    9  C15 UNL     1      22.653   0.700  52.129  1.00  0.00     0.130 A 
ENDROOT
BRANCH   8  10
HETATM   10  N5  UNL     1      24.248   1.945  50.826  1.00  0.00    -0.339 N 
HETATM   11  H10 UNL     1      25.020   1.269  50.891  1.00  0.00     0.167 HD
BRANCH  10  12
HETATM   12  C9  UNL     1      24.739   3.226  50.494  1.00  0.00     0.036 A 
HETATM   13  C10 UNL     1      24.074   4.353  50.873  1.00  0.00     0.053 A 
HETATM   14  C11 UNL     1      24.516   5.611  50.561  1.00  0.00     0.037 A 
HETATM   15 CL1  UNL     1      23.677   7.078  51.038  1.00  0.00    -0.084 Cl
HETATM   16  C12 UNL     1      25.666   5.831  49.841  1.00  0.00     0.048 A 
HETATM   17  C13 UNL     1      26.373   4.696  49.436  1.00  0.00     0.037 A 
HETATM   18 CL2  UNL     1      27.856   4.804  48.516  1.00  0.00    -0.084 Cl
HETATM   19  C14 UNL     1      25.882   3.460  49.778  1.00  0.00     0.053 A 
ENDBRANCH  10  12
ENDBRANCH   8  10
BRANCH   1  20
HETATM   20  N1  UNL     1      24.910   0.096  53.262  1.00  0.00    -0.376 N 
HETATM   21  C3  UNL     1      25.966  -0.937  53.189  1.00  0.00     0.129 C 
HETATM   22  C2  UNL     1      27.170  -0.079  52.970  1.00  0.00     0.034 C 
HETATM   23  C1  UNL     1      28.482  -0.793  53.133  1.00  0.00     0.014 C 
HETATM   24  C17 UNL     1      26.965   1.008  53.999  1.00  0.00     0.240 C 
HETATM   25  C16 UNL     1      25.507   1.376  53.692  1.00  0.00     0.159 C 
BRANCH  24  26
HETATM   26  N6  UNL     1      26.998   0.534  55.352  1.00  0.00     0.085 N 
HETATM   27  H17 UNL     1      27.369   1.221  56.035  1.00  0.00     0.313 HD
HETATM   28  H18 UNL     1      26.124   0.145  55.712  1.00  0.00     0.313 HD
ENDBRANCH  24  26
ENDBRANCH   1  20
TORSDOF 4
ENDMDL
MODEL 7
REMARK VINA RESULT:      -7.7      2.866      5.339
REMARK  4 active torsions:
REMARK  status: ('A' for Active; 'I' for Inactive)
REMARK    1  A    between atoms: N1_4  and  C4_5 
REMARK    2  A    between atoms: C8_12  and  N5_13 
REMARK    3  A    between atoms: N5_13  and  C9_14 
REMARK    4  A    between atoms: C17_24  and  N6_25 
ROOT
HETATM    1  C4  UNL     1      25.837   2.969  51.004  1.00  0.00     0.064 A 
HETATM    2  C5  UNL     1      26.733   3.415  50.024  1.00  0.00     0.051 A 
HETATM    3  C6  UNL     1      26.170   4.527  49.385  1.00  0.00     0.121 A 
HETATM    4  N2  UNL     1      24.983   4.719  49.978  1.00  0.00    -0.238 N 
HETATM    5  N3  UNL     1      24.062   5.642  49.740  1.00  0.00    -0.161 NA
HETATM    6  C7  UNL     1      22.914   5.699  50.426  1.00  0.00     0.258 A 
HETATM    7  N4  UNL     1      22.740   4.769  51.374  1.00  0.00    -0.220 NA
HETATM    8  C8  UNL     1      23.606   3.798  51.690  1.00  0.00     0.160 A 
HETATM    9  C15 UNL     1      24.755   3.815  50.938  1.00  0.00     0.130 A 
ENDROOT
BRANCH   8  10
HETATM   10  N5  UNL     1      23.427   2.801  52.669  1.00  0.00    -0.339 N 
HETATM   11  H10 UNL     1      24.029   2.775  53.503  1.00  0.00     0.167 HD
BRANCH  10  12
HETATM   12  C9  UNL     1      22.503   1.735  52.695  1.00  0.00     0.036 A 
HETATM   13  C10 UNL     1      22.655   0.694  53.561  1.00  0.00     0.053 A 
HETATM   14  C11 UNL     1      21.782  -0.361  53.608  1.00  0.00     0.037 A 
HETATM   15 CL1  UNL     1      21.956  -1.712  54.715  1.00  0.00    -0.084 Cl
HETATM   16  C12 UNL     1      20.685  -0.448  52.784  1.00  0.00     0.048 A 
HETATM   17  C13 UNL     1      20.499   0.603  51.883  1.00  0.00     0.037 A 
HETATM   18 CL2  UNL     1      19.153   0.645  50.768  1.00  0.00    -0.084 Cl
HETATM   19  C14 UNL     1      21.406   1.635  51.880  1.00  0.00     0.053 A 
ENDBRANCH  10  12
ENDBRANCH   8  10
BRANCH   1  20
HETATM   20  N1  UNL     1      26.281   1.885  51.769  1.00  0.00    -0.376 N 
HETATM   21  C3  UNL     1      25.910   0.461  51.909  1.00  0.00     0.129 C 
HETATM   22  C2  UNL     1      27.200  -0.109  52.401  1.00  0.00     0.034 C 
HETATM   23  C1  UNL     1      27.101  -1.514  52.926  1.00  0.00     0.014 C 
HETATM   24  C17 UNL     1      27.589   0.886  53.469  1.00  0.00     0.240 C 
HETATM   25  C16 UNL     1      27.403   2.190  52.680  1.00  0.00     0.159 C 
BRANCH  24  26
HETATM   26  N6  UNL     1      26.674   0.935  54.572  1.00  0.00     0.085 N 
HETATM   27  H17 UNL     1      25.989   1.713  54.523  1.00  0.00     0.313 HD
HETATM   28  H18 UNL     1      26.178   0.067  54.782  1.00  0.00     0.313 HD
ENDBRANCH  24  26
ENDBRANCH   1  20
TORSDOF 4
ENDMDL
MODEL 8
REMARK VINA RESULT:      -7.6      3.065      5.457
REMARK  4 active torsions:
REMARK  status: ('A' for Active; 'I' for Inactive)
REMARK    1  A    between atoms: N1_4  and  C4_5 
REMARK    2  A    between atoms: C8_12  and  N5_13 
REMARK    3  A    between atoms: N5_13  and  C9_14 
REMARK    4  A    between atoms: C17_24  and  N6_25 
ROOT
HETATM    1  C4  UNL     1      24.978   0.454  53.690  1.00  0.00     0.064 A 
HETATM    2  C5  UNL     1      25.090  -0.282  54.876  1.00  0.00     0.051 A 
HETATM    3  C6  UNL     1      26.399  -0.149  55.356  1.00  0.00     0.121 A 
HETATM    4  N2  UNL     1      27.026   0.640  54.472  1.00  0.00    -0.238 N 
HETATM    5  N3  UNL     1      28.281   1.068  54.469  1.00  0.00    -0.161 NA
HETATM    6  C7  UNL     1      28.762   1.859  53.501  1.00  0.00     0.258 A 
HETATM    7  N4  UNL     1      27.905   2.199  52.529  1.00  0.00    -0.220 NA
HETATM    8  C8  UNL     1      26.624   1.820  52.442  1.00  0.00     0.160 A 
HETATM    9  C15 UNL     1      26.215   1.012  53.475  1.00  0.00     0.130 A 
ENDROOT
BRANCH   8  10
HETATM   10  N5  UNL     1      25.718   2.152  51.415  1.00  0.00    -0.339 N 
HETATM   11  H10 UNL     1      24.949   1.514  51.172  1.00  0.00     0.167 HD
BRANCH  10  12
HETATM   12  C9  UNL     1      25.695   3.293  50.585  1.00  0.00     0.036 A 
HETATM   13  C10 UNL     1      24.550   4.011  50.411  1.00  0.00     0.053 A 
HETATM   14  C11 UNL     1      24.487   5.118  49.606  1.00  0.00     0.037 A 
HETATM   15 CL1  UNL     1      23.025   6.059  49.367  1.00  0.00    -0.084 Cl
HETATM   16  C12 UNL     1      25.578   5.588  48.914  1.00  0.00     0.048 A 
HETATM   17  C13 UNL     1      26.769   4.875  49.070  1.00  0.00     0.037 A 
HETATM   18 CL2  UNL     1      28.246   5.344  48.260  1.00  0.00    -0.084 Cl
HETATM   19  C14 UNL     1      26.772   3.773  49.889  1.00  0.00     0.053 A 
ENDBRANCH  10  12
ENDBRANCH   8  10
BRANCH   1  20
HETATM   20  N1  UNL     1      23.704   0.460  53.110  1.00  0.00    -0.376 N 
HETATM   21  C3  UNL     1      22.842   1.464  52.450  1.00  0.00     0.129 C 
HETATM   22  C2  UNL     1      21.995   0.577  51.599  1.00  0.00     0.034 C 
HETATM   23  C1  UNL     1      20.798   1.253  50.992  1.00  0.00     0.014 C 
HETATM   24  C17 UNL     1      21.617  -0.515  52.572  1.00  0.00     0.240 C 
HETATM   25  C16 UNL     1      23.006  -0.840  53.139  1.00  0.00     0.159 C 
BRANCH  24  26
HETATM   26  N6  UNL     1      20.817  -0.057  53.670  1.00  0.00     0.085 N 
HETATM   27  H17 UNL     1      19.880   0.295  53.397  1.00  0.00     0.313 HD
HETATM   28  H18 UNL     1      20.715  -0.706  54.452  1.00  0.00     0.313 HD
ENDBRANCH  24  26
ENDBRANCH   1  20
TORSDOF 4
ENDMDL
MODEL 9
REMARK VINA RESULT:      -7.5      2.662      5.223
REMARK  4 active torsions:
REMARK  status: ('A' for Active; 'I' for Inactive)
REMARK    1  A    between atoms: N1_4  and  C4_5 
REMARK    2  A    between atoms: C8_12  and  N5_13 
REMARK    3  A    between atoms: N5_13  and  C9_14 
REMARK    4  A    between atoms: C17_24  and  N6_25 
ROOT
HETATM    1  C4  UNL     1      24.161   3.553  51.271  1.00  0.00     0.064 A 
HETATM    2  C5  UNL     1      24.524   4.885  51.034  1.00  0.00     0.051 A 
HETATM    3  C6  UNL     1      23.493   5.501  50.313  1.00  0.00     0.121 A 
HETATM    4  N2  UNL     1      22.562   4.553  50.137  1.00  0.00    -0.238 N 
HETATM    5  N3  UNL     1      21.393   4.626  49.516  1.00  0.00    -0.161 NA
HETATM    6  C7  UNL     1      20.567   3.576  49.424  1.00  0.00     0.258 A 
HETATM    7  N4  UNL     1      20.984   2.439  49.995  1.00  0.00    -0.220 NA
HETATM    8  C8  UNL     1      22.143   2.263  50.642  1.00  0.00     0.160 A 
HETATM    9  C15 UNL     1      22.926   3.390  50.690  1.00  0.00     0.130 A 
ENDROOT
BRANCH   8  10
HETATM   10  N5  UNL     1      22.604   1.068  51.229  1.00  0.00    -0.339 N 
HETATM   11  H10 UNL     1      23.458   0.613  50.882  1.00  0.00     0.167 HD
BRANCH  10  12
HETATM   12  C9  UNL     1      22.038   0.319  52.283  1.00  0.00     0.036 A 
HETATM   13  C10 UNL     1      22.810  -0.151  53.303  1.00  0.00     0.053 A 
HETATM   14  C11 UNL     1      22.297  -0.888  54.338  1.00  0.00     0.037 A 
HETATM   15 CL1  UNL     1      23.270  -1.503  55.663  1.00  0.00    -0.084 Cl
HETATM   16  C12 UNL     1      20.963  -1.209  54.424  1.00  0.00     0.048 A 
HETATM   17  C13 UNL     1      20.143  -0.744  53.394  1.00  0.00     0.037 A 
HETATM   18 CL2  UNL     1      18.425  -1.064  53.356  1.00  0.00    -0.084 Cl
HETATM   19  C14 UNL     1      20.712  -0.009  52.382  1.00  0.00     0.053 A 
ENDBRANCH  10  12
ENDBRANCH   8  10
BRANCH   1  20
HETATM   20  N1  UNL     1      25.075   2.813  52.030  1.00  0.00    -0.376 N 
HETATM   21  C3  UNL     1      25.171   2.365  53.435  1.00  0.00     0.129 C 
HETATM   22  C2  UNL     1      26.044   1.163  53.278  1.00  0.00     0.034 C 
HETATM   23  C1  UNL     1      26.585   0.613  54.567  1.00  0.00     0.014 C 
HETATM   24  C17 UNL     1      27.128   1.686  52.366  1.00  0.00     0.240 C 
HETATM   25  C16 UNL     1      26.255   2.335  51.282  1.00  0.00     0.159 C 
BRANCH  24  26
HETATM   26  N6  UNL     1      27.914   2.734  52.948  1.00  0.00     0.085 N 
HETATM   27  H17 UNL     1      28.739   2.401  53.484  1.00  0.00     0.313 HD
HETATM   28  H18 UNL     1      28.208   3.480  52.314  1.00  0.00     0.313 HD
ENDBRANCH  24  26
ENDBRANCH   1  20
TORSDOF 4
ENDMDL
