MODEL 1
REMARK VINA RESULT:      -7.9      0.000      0.000
REMARK  6 active torsions:
REMARK  status: ('A' for Active; 'I' for Inactive)
REMARK    1  A    between atoms: O1_2  and  C2_3 
REMARK    2  A    between atoms: C4_5  and  C5_6 
REMARK    3  A    between atoms: C6_7  and  C7_8 
REMARK    4  A    between atoms: C8_9  and  N1_10 
REMARK    5  A    between atoms: C17_21  and  P1_22 
REMARK    6  A    between atoms: C19_24  and  O3_25 
ROOT
HETATM    1  C5  UNL     1      22.631   0.409  53.225  1.00  0.00     0.050 A 
HETATM    2  C6  UNL     1      23.262  -0.565  53.823  1.00  0.00    -0.023 A 
HETATM    3  C14 UNL     1      22.539  -1.202  54.949  1.00  0.00     0.162 A 
HETATM    4  N2  UNL     1      21.275  -0.506  54.931  1.00  0.00    -0.353 N 
HETATM    5  C15 UNL     1      21.324   0.488  53.916  1.00  0.00     0.253 A 
HETATM    6  O2  UNL     1      20.398   1.307  53.647  1.00  0.00    -0.268 OA
HETATM    7  H13 UNL     1      20.440  -0.660  55.529  1.00  0.00     0.163 HD
ENDROOT
BRANCH   1   8
HETATM    8  C4  UNL     1      22.971   1.292  52.122  1.00  0.00    -0.016 A 
HETATM    9  C3  UNL     1      24.025   2.172  52.068  1.00  0.00     0.052 A 
HETATM   10  C2  UNL     1      24.224   2.928  50.949  1.00  0.00     0.103 A 
HETATM   11  C19 UNL     1      23.402   2.852  49.846  1.00  0.00     0.112 A 
HETATM   12  C17 UNL     1      22.331   1.986  49.852  1.00  0.00     0.003 A 
HETATM   13  C16 UNL     1      22.142   1.223  50.998  1.00  0.00     0.027 A 
BRANCH  10  14
HETATM   14  O1  UNL     1      25.263   3.837  50.817  1.00  0.00    -0.353 OA
HETATM   15  C1  UNL     1      26.512   3.574  50.245  1.00  0.00     0.210 C 
ENDBRANCH  10  14
BRANCH  11  16
HETATM   16  O3  UNL     1      23.531   3.588  48.662  1.00  0.00    -0.352 OA
HETATM   17  C20 UNL     1      23.188   4.959  48.630  1.00  0.00     0.210 C 
ENDBRANCH  11  16
BRANCH  12  18
HETATM   18  P1  UNL     1      21.151   1.776  48.440  1.00  0.00    -0.096 P 
HETATM   19  C18 UNL     1      19.890   3.147  48.455  1.00  0.00     0.046 C 
HETATM   20  H15 UNL     1      21.903   1.890  47.183  1.00  0.00     0.062 HD
ENDBRANCH  12  18
ENDBRANCH   1   8
BRANCH   2  21
HETATM   21  C7  UNL     1      24.585  -0.958  53.401  1.00  0.00     0.027 C 
HETATM   22  C8  UNL     1      25.676  -0.400  53.888  1.00  0.00     0.096 C 
BRANCH  22  23
HETATM   23  N1  UNL     1      27.085  -0.473  53.767  1.00  0.00    -0.342 N 
HETATM   24  C9  UNL     1      27.740   0.701  54.299  1.00  0.00     0.108 C 
HETATM   25  C10 UNL     1      29.048   0.653  54.487  1.00  0.00    -0.009 C 
HETATM   26  C11 UNL     1      29.783  -0.134  53.754  1.00  0.00     0.015 C 
HETATM   27  C12 UNL     1      29.196  -1.353  53.197  1.00  0.00     0.019 C 
HETATM   28  C13 UNL     1      27.861  -1.520  53.202  1.00  0.00     0.096 C 
ENDBRANCH  22  23
ENDBRANCH   2  21
TORSDOF 6
ENDMDL
MODEL 2
REMARK VINA RESULT:      -7.8      1.253      2.596
REMARK  6 active torsions:
REMARK  status: ('A' for Active; 'I' for Inactive)
REMARK    1  A    between atoms: O1_2  and  C2_3 
REMARK    2  A    between atoms: C4_5  and  C5_6 
REMARK    3  A    between atoms: C6_7  and  C7_8 
REMARK    4  A    between atoms: C8_9  and  N1_10 
REMARK    5  A    between atoms: C17_21  and  P1_22 
REMARK    6  A    between atoms: C19_24  and  O3_25 
ROOT
HETATM    1  C5  UNL     1      22.354   0.261  53.049  1.00  0.00     0.050 A 
HETATM    2  C6  UNL     1      23.164  -0.519  53.712  1.00  0.00    -0.023 A 
HETATM    3  C14 UNL     1      22.629  -1.071  54.979  1.00  0.00     0.162 A 
HETATM    4  N2  UNL     1      21.280  -0.561  54.987  1.00  0.00    -0.353 N 
HETATM    5  C15 UNL     1      21.106   0.267  53.845  1.00  0.00     0.253 A 
HETATM    6  O2  UNL     1      20.052   0.905  53.556  1.00  0.00    -0.268 OA
HETATM    7  H13 UNL     1      20.524  -0.732  55.679  1.00  0.00     0.163 HD
ENDROOT
BRANCH   1   8
HETATM    8  C4  UNL     1      22.476   1.005  51.807  1.00  0.00    -0.016 A 
HETATM    9  C3  UNL     1      21.659   0.908  50.706  1.00  0.00     0.052 A 
HETATM   10  C2  UNL     1      21.893   1.690  49.612  1.00  0.00     0.103 A 
HETATM   11  C19 UNL     1      22.933   2.593  49.556  1.00  0.00     0.112 A 
HETATM   12  C17 UNL     1      23.780   2.728  50.633  1.00  0.00     0.003 A 
HETATM   13  C16 UNL     1      23.528   1.925  51.738  1.00  0.00     0.027 A 
BRANCH  10  14
HETATM   14  O1  UNL     1      21.116   1.650  48.465  1.00  0.00    -0.353 OA
HETATM   15  C1  UNL     1      19.874   2.271  48.297  1.00  0.00     0.210 C 
ENDBRANCH  10  14
BRANCH  11  16
HETATM   16  O3  UNL     1      23.246   3.431  48.478  1.00  0.00    -0.352 OA
HETATM   17  C20 UNL     1      22.589   4.673  48.322  1.00  0.00     0.210 C 
ENDBRANCH  11  16
BRANCH  12  18
HETATM   18  P1  UNL     1      25.209   3.904  50.695  1.00  0.00    -0.096 P 
HETATM   19  C18 UNL     1      26.564   3.321  49.557  1.00  0.00     0.046 C 
HETATM   20  H15 UNL     1      24.759   5.212  50.202  1.00  0.00     0.062 HD
ENDBRANCH  12  18
ENDBRANCH   1   8
BRANCH   2  21
HETATM   21  C7  UNL     1      24.495  -0.791  53.222  1.00  0.00     0.027 C 
HETATM   22  C8  UNL     1      25.577  -0.422  53.880  1.00  0.00     0.096 C 
BRANCH  22  23
HETATM   23  N1  UNL     1      26.988  -0.480  53.776  1.00  0.00    -0.342 N 
HETATM   24  C9  UNL     1      27.627   0.671  54.372  1.00  0.00     0.108 C 
HETATM   25  C10 UNL     1      28.932   0.623  54.576  1.00  0.00    -0.009 C 
HETATM   26  C11 UNL     1      29.683  -0.123  53.817  1.00  0.00     0.015 C 
HETATM   27  C12 UNL     1      29.113  -1.318  53.195  1.00  0.00     0.019 C 
HETATM   28  C13 UNL     1      27.780  -1.495  53.173  1.00  0.00     0.096 C 
ENDBRANCH  22  23
ENDBRANCH   2  21
TORSDOF 6
ENDMDL
MODEL 3
REMARK VINA RESULT:      -7.8      2.558      5.218
REMARK  6 active torsions:
REMARK  status: ('A' for Active; 'I' for Inactive)
REMARK    1  A    between atoms: O1_2  and  C2_3 
REMARK    2  A    between atoms: C4_5  and  C5_6 
REMARK    3  A    between atoms: C6_7  and  C7_8 
REMARK    4  A    between atoms: C8_9  and  N1_10 
REMARK    5  A    between atoms: C17_21  and  P1_22 
REMARK    6  A    between atoms: C19_24  and  O3_25 
ROOT
HETATM    1  C5  UNL     1      25.678   1.433  53.222  1.00  0.00     0.050 A 
HETATM    2  C6  UNL     1      25.086   0.333  53.601  1.00  0.00    -0.023 A 
HETATM    3  C14 UNL     1      25.742  -0.399  54.710  1.00  0.00     0.162 A 
HETATM    4  N2  UNL     1      26.843   0.472  55.039  1.00  0.00    -0.353 N 
HETATM    5  C15 UNL     1      26.836   1.568  54.134  1.00  0.00     0.253 A 
HETATM    6  O2  UNL     1      27.684   2.506  54.112  1.00  0.00    -0.268 OA
HETATM    7  H13 UNL     1      27.551   0.369  55.794  1.00  0.00     0.163 HD
ENDROOT
BRANCH   1   8
HETATM    8  C4  UNL     1      25.393   2.417  52.192  1.00  0.00    -0.016 A 
HETATM    9  C3  UNL     1      26.112   2.633  51.040  1.00  0.00     0.052 A 
HETATM   10  C2  UNL     1      25.709   3.591  50.155  1.00  0.00     0.103 A 
HETATM   11  C19 UNL     1      24.591   4.370  50.363  1.00  0.00     0.112 A 
HETATM   12  C17 UNL     1      23.838   4.193  51.502  1.00  0.00     0.003 A 
HETATM   13  C16 UNL     1      24.261   3.215  52.394  1.00  0.00     0.027 A 
BRANCH  10  14
HETATM   14  O1  UNL     1      26.378   3.868  48.973  1.00  0.00    -0.353 OA
HETATM   15  C1  UNL     1      27.486   4.711  48.839  1.00  0.00     0.210 C 
ENDBRANCH  10  14
BRANCH  11  16
HETATM   16  O3  UNL     1      24.107   5.372  49.512  1.00  0.00    -0.352 OA
HETATM   17  C20 UNL     1      23.360   5.033  48.361  1.00  0.00     0.210 C 
ENDBRANCH  11  16
BRANCH  12  18
HETATM   18  P1  UNL     1      22.313   5.163  51.906  1.00  0.00    -0.096 P 
HETATM   19  C18 UNL     1      20.827   4.380  51.099  1.00  0.00     0.046 C 
HETATM   20  H15 UNL     1      22.097   5.110  53.358  1.00  0.00     0.062 HD
ENDBRANCH  12  18
ENDBRANCH   1   8
BRANCH   2  21
HETATM   21  C7  UNL     1      23.882  -0.122  52.947  1.00  0.00     0.027 C 
HETATM   22  C8  UNL     1      22.679   0.190  53.388  1.00  0.00     0.096 C 
BRANCH  22  23
HETATM   23  N1  UNL     1      21.314  -0.025  53.076  1.00  0.00    -0.342 N 
HETATM   24  C9  UNL     1      20.909   0.684  51.883  1.00  0.00     0.108 C 
HETATM   25  C10 UNL     1      19.748   0.369  51.336  1.00  0.00    -0.009 C 
HETATM   26  C11 UNL     1      18.788  -0.110  52.075  1.00  0.00     0.015 C 
HETATM   27  C12 UNL     1      19.119  -0.857  53.288  1.00  0.00     0.019 C 
HETATM   28  C13 UNL     1      20.369  -0.815  53.784  1.00  0.00     0.096 C 
ENDBRANCH  22  23
ENDBRANCH   2  21
TORSDOF 6
ENDMDL
MODEL 4
REMARK VINA RESULT:      -7.5      3.984      5.945
REMARK  6 active torsions:
REMARK  status: ('A' for Active; 'I' for Inactive)
REMARK    1  A    between atoms: O1_2  and  C2_3 
REMARK    2  A    between atoms: C4_5  and  C5_6 
REMARK    3  A    between atoms: C6_7  and  C7_8 
REMARK    4  A    between atoms: C8_9  and  N1_10 
REMARK    5  A    between atoms: C17_21  and  P1_22 
REMARK    6  A    between atoms: C19_24  and  O3_25 
ROOT
HETATM    1  C5  UNL     1      25.340   4.333  49.520  1.00  0.00     0.050 A 
HETATM    2  C6  UNL     1      25.376   3.270  50.275  1.00  0.00    -0.023 A 
HETATM    3  C14 UNL     1      24.101   2.524  50.394  1.00  0.00     0.162 A 
HETATM    4  N2  UNL     1      23.233   3.264  49.511  1.00  0.00    -0.353 N 
HETATM    5  C15 UNL     1      23.956   4.374  48.996  1.00  0.00     0.253 A 
HETATM    6  O2  UNL     1      23.490   5.254  48.216  1.00  0.00    -0.268 OA
HETATM    7  H13 UNL     1      22.245   3.068  49.256  1.00  0.00     0.163 HD
ENDROOT
BRANCH   1   8
HETATM    8  C4  UNL     1      26.329   5.334  49.155  1.00  0.00    -0.016 A 
HETATM    9  C3  UNL     1      27.517   5.115  48.499  1.00  0.00     0.052 A 
HETATM   10  C2  UNL     1      28.339   6.166  48.210  1.00  0.00     0.103 A 
HETATM   11  C19 UNL     1      28.030   7.465  48.552  1.00  0.00     0.112 A 
HETATM   12  C17 UNL     1      26.852   7.736  49.211  1.00  0.00     0.003 A 
HETATM   13  C16 UNL     1      26.026   6.656  49.498  1.00  0.00     0.027 A 
BRANCH  10  14
HETATM   14  O1  UNL     1      29.551   6.028  47.553  1.00  0.00    -0.353 OA
HETATM   15  C1  UNL     1      30.732   5.526  48.110  1.00  0.00     0.210 C 
ENDBRANCH  10  14
BRANCH  11  16
HETATM   16  O3  UNL     1      28.812   8.599  48.297  1.00  0.00    -0.352 OA
HETATM   17  C20 UNL     1      29.854   8.962  49.179  1.00  0.00     0.210 C 
ENDBRANCH  11  16
BRANCH  12  18
HETATM   18  P1  UNL     1      26.309   9.430  49.723  1.00  0.00    -0.096 P 
HETATM   19  C18 UNL     1      25.760  10.402  48.230  1.00  0.00     0.046 C 
HETATM   20  H15 UNL     1      25.145   9.300  50.609  1.00  0.00     0.062 HD
ENDBRANCH  12  18
ENDBRANCH   1   8
BRANCH   2  21
HETATM   21  C7  UNL     1      26.592   2.883  50.951  1.00  0.00     0.027 C 
HETATM   22  C8  UNL     1      26.616   1.941  51.874  1.00  0.00     0.096 C 
BRANCH  22  23
HETATM   23  N1  UNL     1      27.527   1.285  52.738  1.00  0.00    -0.342 N 
HETATM   24  C9  UNL     1      27.367  -0.152  52.709  1.00  0.00     0.108 C 
HETATM   25  C10 UNL     1      28.312  -0.895  53.259  1.00  0.00    -0.009 C 
HETATM   26  C11 UNL     1      29.034  -0.415  54.232  1.00  0.00     0.015 C 
HETATM   27  C12 UNL     1      29.258   1.028  54.316  1.00  0.00     0.019 C 
HETATM   28  C13 UNL     1      28.512   1.870  53.578  1.00  0.00     0.096 C 
ENDBRANCH  22  23
ENDBRANCH   2  21
TORSDOF 6
ENDMDL
MODEL 5
REMARK VINA RESULT:      -7.3      1.958      3.018
REMARK  6 active torsions:
REMARK  status: ('A' for Active; 'I' for Inactive)
REMARK    1  A    between atoms: O1_2  and  C2_3 
REMARK    2  A    between atoms: C4_5  and  C5_6 
REMARK    3  A    between atoms: C6_7  and  C7_8 
REMARK    4  A    between atoms: C8_9  and  N1_10 
REMARK    5  A    between atoms: C17_21  and  P1_22 
REMARK    6  A    between atoms: C19_24  and  O3_25 
ROOT
HETATM    1  C5  UNL     1      21.355   0.082  52.789  1.00  0.00     0.050 A 
HETATM    2  C6  UNL     1      22.308  -0.562  53.404  1.00  0.00    -0.023 A 
HETATM    3  C14 UNL     1      21.867  -1.535  54.432  1.00  0.00     0.162 A 
HETATM    4  N2  UNL     1      20.431  -1.461  54.323  1.00  0.00    -0.353 N 
HETATM    5  C15 UNL     1      20.104  -0.471  53.357  1.00  0.00     0.253 A 
HETATM    6  O2  UNL     1      18.932  -0.119  53.035  1.00  0.00    -0.268 OA
HETATM    7  H13 UNL     1      19.711  -2.008  54.834  1.00  0.00     0.163 HD
ENDROOT
BRANCH   1   8
HETATM    8  C4  UNL     1      21.342   1.106  51.758  1.00  0.00    -0.016 A 
HETATM    9  C3  UNL     1      20.952   0.951  50.449  1.00  0.00     0.052 A 
HETATM   10  C2  UNL     1      20.982   2.018  49.599  1.00  0.00     0.103 A 
HETATM   11  C19 UNL     1      21.394   3.272  49.996  1.00  0.00     0.112 A 
HETATM   12  C17 UNL     1      21.796   3.478  51.297  1.00  0.00     0.003 A 
HETATM   13  C16 UNL     1      21.760   2.383  52.150  1.00  0.00     0.027 A 
BRANCH  10  14
HETATM   14  O1  UNL     1      20.604   1.943  48.267  1.00  0.00    -0.353 OA
HETATM   15  C1  UNL     1      19.497   2.577  47.694  1.00  0.00     0.210 C 
ENDBRANCH  10  14
BRANCH  11  16
HETATM   16  O3  UNL     1      21.457   4.418  49.193  1.00  0.00    -0.352 OA
HETATM   17  C20 UNL     1      22.510   4.584  48.265  1.00  0.00     0.210 C 
ENDBRANCH  11  16
BRANCH  12  18
HETATM   18  P1  UNL     1      22.366   5.108  51.966  1.00  0.00    -0.096 P 
HETATM   19  C18 UNL     1      24.085   5.483  51.351  1.00  0.00     0.046 C 
HETATM   20  H15 UNL     1      21.480   6.160  51.451  1.00  0.00     0.062 HD
ENDBRANCH  12  18
ENDBRANCH   1   8
BRANCH   2  21
HETATM   21  C7  UNL     1      23.694  -0.305  53.093  1.00  0.00     0.027 C 
HETATM   22  C8  UNL     1      24.669  -0.568  53.942  1.00  0.00     0.096 C 
BRANCH  22  23
HETATM   23  N1  UNL     1      26.079  -0.481  54.044  1.00  0.00    -0.342 N 
HETATM   24  C9  UNL     1      26.748  -1.291  53.052  1.00  0.00     0.108 C 
HETATM   25  C10 UNL     1      28.044  -1.103  52.865  1.00  0.00    -0.009 C 
HETATM   26  C11 UNL     1      28.784  -0.658  53.840  1.00  0.00     0.015 C 
HETATM   27  C12 UNL     1      28.182   0.186  54.873  1.00  0.00     0.019 C 
HETATM   28  C13 UNL     1      26.844   0.273  54.975  1.00  0.00     0.096 C 
ENDBRANCH  22  23
ENDBRANCH   2  21
TORSDOF 6
ENDMDL
MODEL 6
REMARK VINA RESULT:      -7.2      2.942      5.189
REMARK  6 active torsions:
REMARK  status: ('A' for Active; 'I' for Inactive)
REMARK    1  A    between atoms: O1_2  and  C2_3 
REMARK    2  A    between atoms: C4_5  and  C5_6 
REMARK    3  A    between atoms: C6_7  and  C7_8 
REMARK    4  A    between atoms: C8_9  and  N1_10 
REMARK    5  A    between atoms: C17_21  and  P1_22 
REMARK    6  A    between atoms: C19_24  and  O3_25 
ROOT
HETATM    1  C5  UNL     1      23.354  -0.161  53.684  1.00  0.00     0.050 A 
HETATM    2  C6  UNL     1      24.569   0.070  53.269  1.00  0.00    -0.023 A 
HETATM    3  C14 UNL     1      25.652  -0.467  54.126  1.00  0.00     0.162 A 
HETATM    4  N2  UNL     1      24.913  -1.162  55.151  1.00  0.00    -0.353 N 
HETATM    5  C15 UNL     1      23.525  -0.965  54.915  1.00  0.00     0.253 A 
HETATM    6  O2  UNL     1      22.588  -1.406  55.642  1.00  0.00    -0.268 OA
HETATM    7  H13 UNL     1      25.275  -1.724  55.946  1.00  0.00     0.163 HD
ENDROOT
BRANCH   1   8
HETATM    8  C4  UNL     1      22.039   0.191  53.174  1.00  0.00    -0.016 A 
HETATM    9  C3  UNL     1      20.954  -0.644  53.052  1.00  0.00     0.052 A 
HETATM   10  C2  UNL     1      19.774  -0.160  52.566  1.00  0.00     0.103 A 
HETATM   11  C19 UNL     1      19.612   1.155  52.184  1.00  0.00     0.112 A 
HETATM   12  C17 UNL     1      20.670   2.031  52.287  1.00  0.00     0.003 A 
HETATM   13  C16 UNL     1      21.864   1.523  52.782  1.00  0.00     0.027 A 
BRANCH  10  14
HETATM   14  O1  UNL     1      18.636  -0.936  52.413  1.00  0.00    -0.353 OA
HETATM   15  C1  UNL     1      17.850  -1.450  53.451  1.00  0.00     0.210 C 
ENDBRANCH  10  14
BRANCH  11  16
HETATM   16  O3  UNL     1      18.442   1.734  51.677  1.00  0.00    -0.352 OA
HETATM   17  C20 UNL     1      18.067   1.527  50.330  1.00  0.00     0.210 C 
ENDBRANCH  11  16
BRANCH  12  18
HETATM   18  P1  UNL     1      20.592   3.820  51.817  1.00  0.00    -0.096 P 
HETATM   19  C18 UNL     1      20.970   4.019  50.003  1.00  0.00     0.046 C 
HETATM   20  H15 UNL     1      19.220   4.299  52.030  1.00  0.00     0.062 HD
ENDBRANCH  12  18
ENDBRANCH   1   8
BRANCH   2  21
HETATM   21  C7  UNL     1      24.807   0.821  52.059  1.00  0.00     0.027 C 
HETATM   22  C8  UNL     1      25.037   2.119  52.068  1.00  0.00     0.096 C 
BRANCH  22  23
HETATM   23  N1  UNL     1      25.305   3.185  51.175  1.00  0.00    -0.342 N 
HETATM   24  C9  UNL     1      26.517   2.971  50.418  1.00  0.00     0.108 C 
HETATM   25  C10 UNL     1      26.746   3.750  49.374  1.00  0.00    -0.009 C 
HETATM   26  C11 UNL     1      26.250   4.953  49.339  1.00  0.00     0.015 C 
HETATM   27  C12 UNL     1      25.013   5.243  50.064  1.00  0.00     0.019 C 
HETATM   28  C13 UNL     1      24.545   4.369  50.973  1.00  0.00     0.096 C 
ENDBRANCH  22  23
ENDBRANCH   2  21
TORSDOF 6
ENDMDL
MODEL 7
REMARK VINA RESULT:      -7.2      2.685      5.879
REMARK  6 active torsions:
REMARK  status: ('A' for Active; 'I' for Inactive)
REMARK    1  A    between atoms: O1_2  and  C2_3 
REMARK    2  A    between atoms: C4_5  and  C5_6 
REMARK    3  A    between atoms: C6_7  and  C7_8 
REMARK    4  A    between atoms: C8_9  and  N1_10 
REMARK    5  A    between atoms: C17_21  and  P1_22 
REMARK    6  A    between atoms: C19_24  and  O3_25 
ROOT
HETATM    1  C5  UNL     1      23.910  -0.246  54.085  1.00  0.00     0.050 A 
HETATM    2  C6  UNL     1      22.698  -0.728  54.098  1.00  0.00    -0.023 A 
HETATM    3  C14 UNL     1      22.430  -1.763  55.125  1.00  0.00     0.162 A 
HETATM    4  N2  UNL     1      23.684  -1.817  55.836  1.00  0.00    -0.353 N 
HETATM    5  C15 UNL     1      24.597  -0.929  55.205  1.00  0.00     0.253 A 
HETATM    6  O2  UNL     1      25.802  -0.752  55.547  1.00  0.00    -0.268 OA
HETATM    7  H13 UNL     1      23.935  -2.385  56.669  1.00  0.00     0.163 HD
ENDROOT
BRANCH   1   8
HETATM    8  C4  UNL     1      24.585   0.740  53.258  1.00  0.00    -0.016 A 
HETATM    9  C3  UNL     1      25.922   1.061  53.285  1.00  0.00     0.052 A 
HETATM   10  C2  UNL     1      26.414   2.004  52.431  1.00  0.00     0.103 A 
HETATM   11  C19 UNL     1      25.619   2.666  51.520  1.00  0.00     0.112 A 
HETATM   12  C17 UNL     1      24.273   2.381  51.453  1.00  0.00     0.003 A 
HETATM   13  C16 UNL     1      23.788   1.419  52.330  1.00  0.00     0.027 A 
BRANCH  10  14
HETATM   14  O1  UNL     1      27.746   2.382  52.397  1.00  0.00    -0.353 OA
HETATM   15  C1  UNL     1      28.615   2.419  53.493  1.00  0.00     0.210 C 
ENDBRANCH  10  14
BRANCH  11  16
HETATM   16  O3  UNL     1      26.038   3.645  50.609  1.00  0.00    -0.352 OA
HETATM   17  C20 UNL     1      26.650   3.273  49.391  1.00  0.00     0.210 C 
ENDBRANCH  11  16
BRANCH  12  18
HETATM   18  P1  UNL     1      23.093   3.188  50.277  1.00  0.00    -0.096 P 
HETATM   19  C18 UNL     1      22.167   1.890  49.312  1.00  0.00     0.046 C 
HETATM   20  H15 UNL     1      22.101   3.942  51.055  1.00  0.00     0.062 HD
ENDBRANCH  12  18
ENDBRANCH   1   8
BRANCH   2  21
HETATM   21  C7  UNL     1      21.711  -0.275  53.147  1.00  0.00     0.027 C 
HETATM   22  C8  UNL     1      20.441  -0.620  53.230  1.00  0.00     0.096 C 
BRANCH  22  23
HETATM   23  N1  UNL     1      19.211  -0.418  52.558  1.00  0.00    -0.342 N 
HETATM   24  C9  UNL     1      19.357   0.424  51.393  1.00  0.00     0.108 C 
HETATM   25  C10 UNL     1      18.353   0.481  50.535  1.00  0.00    -0.009 C 
HETATM   26  C11 UNL     1      17.134   0.272  50.944  1.00  0.00     0.015 C 
HETATM   27  C12 UNL     1      16.904  -0.588  52.106  1.00  0.00     0.019 C 
HETATM   28  C13 UNL     1      17.930  -0.928  52.905  1.00  0.00     0.096 C 
ENDBRANCH  22  23
ENDBRANCH   2  21
TORSDOF 6
ENDMDL
MODEL 8
REMARK VINA RESULT:      -7.1      2.466      5.468
REMARK  6 active torsions:
REMARK  status: ('A' for Active; 'I' for Inactive)
REMARK    1  A    between atoms: O1_2  and  C2_3 
REMARK    2  A    between atoms: C4_5  and  C5_6 
REMARK    3  A    between atoms: C6_7  and  C7_8 
REMARK    4  A    between atoms: C8_9  and  N1_10 
REMARK    5  A    between atoms: C17_21  and  P1_22 
REMARK    6  A    between atoms: C19_24  and  O3_25 
ROOT
HETATM    1  C5  UNL     1      24.575   1.412  52.209  1.00  0.00     0.050 A 
HETATM    2  C6  UNL     1      24.056   0.534  53.023  1.00  0.00    -0.023 A 
HETATM    3  C14 UNL     1      24.993  -0.489  53.544  1.00  0.00     0.162 A 
HETATM    4  N2  UNL     1      26.249  -0.071  52.972  1.00  0.00    -0.353 N 
HETATM    5  C15 UNL     1      26.011   1.058  52.142  1.00  0.00     0.253 A 
HETATM    6  O2  UNL     1      26.887   1.661  51.456  1.00  0.00    -0.268 OA
HETATM    7  H13 UNL     1      27.194  -0.483  53.106  1.00  0.00     0.163 HD
ENDROOT
BRANCH   1   8
HETATM    8  C4  UNL     1      24.029   2.542  51.476  1.00  0.00    -0.016 A 
HETATM    9  C3  UNL     1      24.106   3.868  51.830  1.00  0.00     0.052 A 
HETATM   10  C2  UNL     1      23.553   4.821  51.025  1.00  0.00     0.103 A 
HETATM   11  C19 UNL     1      22.906   4.513  49.847  1.00  0.00     0.112 A 
HETATM   12  C17 UNL     1      22.801   3.199  49.449  1.00  0.00     0.003 A 
HETATM   13  C16 UNL     1      23.369   2.241  50.279  1.00  0.00     0.027 A 
BRANCH  10  14
HETATM   14  O1  UNL     1      23.589   6.176  51.312  1.00  0.00    -0.353 OA
HETATM   15  C1  UNL     1      24.614   7.061  50.958  1.00  0.00     0.210 C 
ENDBRANCH  10  14
BRANCH  11  16
HETATM   16  O3  UNL     1      22.312   5.424  48.965  1.00  0.00    -0.352 OA
HETATM   17  C20 UNL     1      21.072   6.025  49.283  1.00  0.00     0.210 C 
ENDBRANCH  11  16
BRANCH  12  18
HETATM   18  P1  UNL     1      21.967   2.645  47.892  1.00  0.00    -0.096 P 
HETATM   19  C18 UNL     1      20.121   2.597  48.140  1.00  0.00     0.046 C 
HETATM   20  H15 UNL     1      22.240   3.633  46.839  1.00  0.00     0.062 HD
ENDBRANCH  12  18
ENDBRANCH   1   8
BRANCH   2  21
HETATM   21  C7  UNL     1      22.653   0.575  53.358  1.00  0.00     0.027 C 
HETATM   22  C8  UNL     1      21.744  -0.090  52.672  1.00  0.00     0.096 C 
BRANCH  22  23
HETATM   23  N1  UNL     1      20.347  -0.321  52.651  1.00  0.00    -0.342 N 
HETATM   24  C9  UNL     1      19.698   0.352  51.548  1.00  0.00     0.108 C 
HETATM   25  C10 UNL     1      18.453   0.015  51.259  1.00  0.00    -0.009 C 
HETATM   26  C11 UNL     1      17.670  -0.447  52.192  1.00  0.00     0.015 C 
HETATM   27  C12 UNL     1      18.251  -1.158  53.331  1.00  0.00     0.019 C 
HETATM   28  C13 UNL     1      19.575  -1.095  53.560  1.00  0.00     0.096 C 
ENDBRANCH  22  23
ENDBRANCH   2  21
TORSDOF 6
ENDMDL
MODEL 9
REMARK VINA RESULT:      -7.1      2.445      3.351
REMARK  6 active torsions:
REMARK  status: ('A' for Active; 'I' for Inactive)
REMARK    1  A    between atoms: O1_2  and  C2_3 
REMARK    2  A    between atoms: C4_5  and  C5_6 
REMARK    3  A    between atoms: C6_7  and  C7_8 
REMARK    4  A    between atoms: C8_9  and  N1_10 
REMARK    5  A    between atoms: C17_21  and  P1_22 
REMARK    6  A    between atoms: C19_24  and  O3_25 
ROOT
HETATM    1  C5  UNL     1      20.526  -0.099  52.704  1.00  0.00     0.050 A 
HETATM    2  C6  UNL     1      21.557  -0.356  53.460  1.00  0.00    -0.023 A 
HETATM    3  C14 UNL     1      21.325  -1.330  54.554  1.00  0.00     0.162 A 
HETATM    4  N2  UNL     1      19.955  -1.720  54.326  1.00  0.00    -0.353 N 
HETATM    5  C15 UNL     1      19.449  -0.968  53.231  1.00  0.00     0.253 A 
HETATM    6  O2  UNL     1      18.268  -1.031  52.782  1.00  0.00    -0.268 OA
HETATM    7  H13 UNL     1      19.386  -2.422  54.838  1.00  0.00     0.163 HD
ENDROOT
BRANCH   1   8
HETATM    8  C4  UNL     1      20.314   0.780  51.566  1.00  0.00    -0.016 A 
HETATM    9  C3  UNL     1      20.941   0.709  50.345  1.00  0.00     0.052 A 
HETATM   10  C2  UNL     1      20.623   1.602  49.363  1.00  0.00     0.103 A 
HETATM   11  C19 UNL     1      19.682   2.594  49.540  1.00  0.00     0.112 A 
HETATM   12  C17 UNL     1      19.027   2.707  50.745  1.00  0.00     0.003 A 
HETATM   13  C16 UNL     1      19.362   1.791  51.734  1.00  0.00     0.027 A 
BRANCH  10  14
HETATM   14  O1  UNL     1      21.209   1.597  48.107  1.00  0.00    -0.353 OA
HETATM   15  C1  UNL     1      22.461   2.134  47.786  1.00  0.00     0.210 C 
ENDBRANCH  10  14
BRANCH  11  16
HETATM   16  O3  UNL     1      19.296   3.550  48.591  1.00  0.00    -0.352 OA
HETATM   17  C20 UNL     1      18.431   3.196  47.531  1.00  0.00     0.210 C 
ENDBRANCH  11  16
BRANCH  12  18
HETATM   18  P1  UNL     1      17.739   3.985  51.117  1.00  0.00    -0.096 P 
HETATM   19  C18 UNL     1      16.087   3.438  50.450  1.00  0.00     0.046 C 
HETATM   20  H15 UNL     1      17.603   4.100  52.575  1.00  0.00     0.062 HD
ENDBRANCH  12  18
ENDBRANCH   1   8
BRANCH   2  21
HETATM   21  C7  UNL     1      22.824   0.297  53.230  1.00  0.00     0.027 C 
HETATM   22  C8  UNL     1      23.964  -0.203  53.665  1.00  0.00     0.096 C 
BRANCH  22  23
HETATM   23  N1  UNL     1      25.351   0.085  53.665  1.00  0.00    -0.342 N 
HETATM   24  C9  UNL     1      25.835   0.441  52.350  1.00  0.00     0.108 C 
HETATM   25  C10 UNL     1      27.037   0.981  52.254  1.00  0.00    -0.009 C 
HETATM   26  C11 UNL     1      27.946   0.711  53.147  1.00  0.00     0.015 C 
HETATM   27  C12 UNL     1      27.535   0.361  54.507  1.00  0.00     0.019 C 
HETATM   28  C13 UNL     1      26.252   0.050  54.763  1.00  0.00     0.096 C 
ENDBRANCH  22  23
ENDBRANCH   2  21
TORSDOF 6
ENDMDL
