MODEL 1
REMARK VINA RESULT:      -8.2      0.000      0.000
REMARK  8 active torsions:
REMARK  status: ('A' for Active; 'I' for Inactive)
REMARK    1  A    between atoms: C2_2  and  C3_3 
REMARK    2  A    between atoms: C2_2  and  N1_10 
REMARK    3  A    between atoms: C4_4  and  C5_5 
REMARK    4  A    between atoms: C5_5  and  C6_6 
REMARK       I    between atoms: N1_10  and  C7_11 
REMARK    5  A    between atoms: C7_11  and  C8_13 
REMARK    6  A    between atoms: C13_18  and  N2_19 
REMARK    7  A    between atoms: N2_19  and  C14_20 
REMARK    8  A    between atoms: C14_20  and  C15_21 
ROOT
HETATM    1  C8  UNL     1      25.216   1.422  52.151  1.00  0.00     0.058 A 
HETATM    2  C9  UNL     1      25.338   0.299  52.930  1.00  0.00     0.019 A 
HETATM    3  C10 UNL     1      26.549  -0.028  53.497  1.00  0.00     0.001 A 
HETATM    4  C11 UNL     1      27.657   0.779  53.285  1.00  0.00     0.002 A 
HETATM    5  C12 UNL     1      27.484   1.896  52.497  1.00  0.00     0.030 A 
HETATM    6  C13 UNL     1      26.287   2.253  51.912  1.00  0.00     0.044 A 
ENDROOT
BRANCH   1   7
HETATM    7  C7  UNL     1      23.920   1.721  51.574  1.00  0.00     0.254 C 
HETATM    8  N1  UNL     1      22.799   1.949  52.381  1.00  0.00    -0.349 N 
HETATM    9  H9  UNL     1      22.772   1.930  53.446  1.00  0.00     0.163 HD
HETATM   10  O1  UNL     1      23.459   1.850  50.417  1.00  0.00    -0.268 OA
BRANCH   8  11
HETATM   11  C2  UNL     1      21.425   2.261  52.011  1.00  0.00     0.103 C 
HETATM   12  C1  UNL     1      21.227   3.726  52.371  1.00  0.00     0.036 C 
BRANCH  11  13
HETATM   13  C3  UNL     1      20.426   1.362  52.587  1.00  0.00    -0.006 C 
HETATM   14  C4  UNL     1      20.334   0.542  53.598  1.00  0.00    -0.020 C 
BRANCH  14  15
HETATM   15  C5  UNL     1      21.209   0.104  54.684  1.00  0.00     0.144 C 
BRANCH  15  16
HETATM   16  C6  UNL     1      21.897  -1.214  54.394  1.00  0.00     0.390 C 
HETATM   17  F1  UNL     1      20.975  -2.230  54.578  1.00  0.00    -0.171 F 
HETATM   18  F2  UNL     1      22.457  -1.263  53.134  1.00  0.00    -0.171 F 
HETATM   19  F3  UNL     1      22.902  -1.405  55.323  1.00  0.00    -0.171 F 
ENDBRANCH  15  16
ENDBRANCH  14  15
ENDBRANCH  11  13
ENDBRANCH   8  11
ENDBRANCH   1   7
BRANCH   6  20
HETATM   20  N2  UNL     1      26.233   3.439  51.143  1.00  0.00    -0.386 N 
HETATM   21  H14 UNL     1      25.995   4.372  51.537  1.00  0.00     0.160 HD
BRANCH  20  22
HETATM   22  C14 UNL     1      26.499   3.508  49.706  1.00  0.00     0.148 C 
BRANCH  22  23
HETATM   23  C15 UNL     1      26.206   4.856  49.185  1.00  0.00     0.005 C 
HETATM   24  C16 UNL     1      27.070   5.663  48.617  1.00  0.00    -0.021 A 
HETATM   25  C17 UNL     1      28.484   5.347  48.407  1.00  0.00     0.010 A 
HETATM   26  C20 UNL     1      26.750   6.992  48.108  1.00  0.00     0.121 A 
HETATM   27  C18 UNL     1      29.341   6.178  47.829  1.00  0.00    -0.004 A 
HETATM   28  C19 UNL     1      28.916   7.498  47.351  1.00  0.00     0.175 A 
HETATM   29  N3  UNL     1      27.539   7.815  47.551  1.00  0.00    -0.297 NA
ENDBRANCH  22  23
ENDBRANCH  20  22
ENDBRANCH   6  20
TORSDOF 8
ENDMDL
MODEL 2
REMARK VINA RESULT:      -8.1      2.645      6.742
REMARK  8 active torsions:
REMARK  status: ('A' for Active; 'I' for Inactive)
REMARK    1  A    between atoms: C2_2  and  C3_3 
REMARK    2  A    between atoms: C2_2  and  N1_10 
REMARK    3  A    between atoms: C4_4  and  C5_5 
REMARK    4  A    between atoms: C5_5  and  C6_6 
REMARK       I    between atoms: N1_10  and  C7_11 
REMARK    5  A    between atoms: C7_11  and  C8_13 
REMARK    6  A    between atoms: C13_18  and  N2_19 
REMARK    7  A    between atoms: N2_19  and  C14_20 
REMARK    8  A    between atoms: C14_20  and  C15_21 
ROOT
HETATM    1  C8  UNL     1      26.878   1.499  52.791  1.00  0.00     0.058 A 
HETATM    2  C9  UNL     1      28.239   1.671  52.824  1.00  0.00     0.019 A 
HETATM    3  C10 UNL     1      28.982   1.159  53.863  1.00  0.00     0.001 A 
HETATM    4  C11 UNL     1      28.357   0.461  54.887  1.00  0.00     0.002 A 
HETATM    5  C12 UNL     1      26.990   0.314  54.809  1.00  0.00     0.030 A 
HETATM    6  C13 UNL     1      26.214   0.814  53.785  1.00  0.00     0.044 A 
ENDROOT
BRANCH   1   7
HETATM    7  C7  UNL     1      26.140   2.060  51.677  1.00  0.00     0.254 C 
HETATM    8  N1  UNL     1      26.549   3.249  51.058  1.00  0.00    -0.349 N 
HETATM    9  H9  UNL     1      27.396   3.838  51.320  1.00  0.00     0.163 HD
HETATM   10  O1  UNL     1      25.116   1.748  51.028  1.00  0.00    -0.268 OA
BRANCH   8  11
HETATM   11  C2  UNL     1      25.961   3.973  49.939  1.00  0.00     0.103 C 
HETATM   12  C1  UNL     1      27.136   4.466  49.109  1.00  0.00     0.036 C 
BRANCH  11  13
HETATM   13  C3  UNL     1      25.020   5.023  50.329  1.00  0.00    -0.006 C 
HETATM   14  C4  UNL     1      23.761   5.117  50.658  1.00  0.00    -0.020 C 
BRANCH  14  15
HETATM   15  C5  UNL     1      22.636   4.194  50.805  1.00  0.00     0.144 C 
BRANCH  15  16
HETATM   16  C6  UNL     1      22.238   3.972  52.249  1.00  0.00     0.390 C 
HETATM   17  F1  UNL     1      22.410   5.165  52.930  1.00  0.00    -0.171 F 
HETATM   18  F2  UNL     1      20.952   3.493  52.386  1.00  0.00    -0.171 F 
HETATM   19  F3  UNL     1      23.104   3.055  52.813  1.00  0.00    -0.171 F 
ENDBRANCH  15  16
ENDBRANCH  14  15
ENDBRANCH  11  13
ENDBRANCH   8  11
ENDBRANCH   1   7
BRANCH   6  20
HETATM   20  N2  UNL     1      24.821   0.575  53.807  1.00  0.00    -0.386 N 
HETATM   21  H14 UNL     1      24.119   1.276  54.120  1.00  0.00     0.160 HD
BRANCH  20  22
HETATM   22  C14 UNL     1      24.189  -0.680  53.398  1.00  0.00     0.148 C 
BRANCH  22  23
HETATM   23  C15 UNL     1      22.768  -0.703  53.794  1.00  0.00     0.005 C 
HETATM   24  C16 UNL     1      21.757  -0.338  53.044  1.00  0.00    -0.021 A 
HETATM   25  C17 UNL     1      21.880   0.159  51.672  1.00  0.00     0.010 A 
HETATM   26  C20 UNL     1      20.360  -0.375  53.463  1.00  0.00     0.121 A 
HETATM   27  C18 UNL     1      20.843   0.522  50.930  1.00  0.00    -0.004 A 
HETATM   28  C19 UNL     1      19.473   0.447  51.449  1.00  0.00     0.175 A 
HETATM   29  N3  UNL     1      19.342  -0.036  52.785  1.00  0.00    -0.297 NA
ENDBRANCH  22  23
ENDBRANCH  20  22
ENDBRANCH   6  20
TORSDOF 8
ENDMDL
MODEL 3
REMARK VINA RESULT:      -8.1      2.239      4.570
REMARK  8 active torsions:
REMARK  status: ('A' for Active; 'I' for Inactive)
REMARK    1  A    between atoms: C2_2  and  C3_3 
REMARK    2  A    between atoms: C2_2  and  N1_10 
REMARK    3  A    between atoms: C4_4  and  C5_5 
REMARK    4  A    between atoms: C5_5  and  C6_6 
REMARK       I    between atoms: N1_10  and  C7_11 
REMARK    5  A    between atoms: C7_11  and  C8_13 
REMARK    6  A    between atoms: C13_18  and  N2_19 
REMARK    7  A    between atoms: N2_19  and  C14_20 
REMARK    8  A    between atoms: C14_20  and  C15_21 
ROOT
HETATM    1  C8  UNL     1      23.140   1.523  52.459  1.00  0.00     0.058 A 
HETATM    2  C9  UNL     1      22.687   0.358  53.027  1.00  0.00     0.019 A 
HETATM    3  C10 UNL     1      21.586  -0.287  52.511  1.00  0.00     0.001 A 
HETATM    4  C11 UNL     1      20.925   0.237  51.409  1.00  0.00     0.002 A 
HETATM    5  C12 UNL     1      21.417   1.408  50.875  1.00  0.00     0.030 A 
HETATM    6  C13 UNL     1      22.516   2.081  51.366  1.00  0.00     0.044 A 
ENDROOT
BRANCH   1   7
HETATM    7  C7  UNL     1      24.301   2.165  53.042  1.00  0.00     0.254 C 
HETATM    8  N1  UNL     1      25.543   1.518  53.091  1.00  0.00    -0.349 N 
HETATM    9  H9  UNL     1      25.761   0.541  52.728  1.00  0.00     0.163 HD
HETATM   10  O1  UNL     1      24.543   3.269  53.580  1.00  0.00    -0.268 OA
BRANCH   8  11
HETATM   11  C2  UNL     1      26.819   1.978  53.623  1.00  0.00     0.103 C 
HETATM   12  C1  UNL     1      27.636   2.406  52.414  1.00  0.00     0.036 C 
BRANCH  11  13
HETATM   13  C3  UNL     1      27.492   1.013  54.491  1.00  0.00    -0.006 C 
HETATM   14  C4  UNL     1      28.078  -0.147  54.374  1.00  0.00    -0.020 C 
BRANCH  14  15
HETATM   15  C5  UNL     1      28.360  -1.082  53.284  1.00  0.00     0.144 C 
BRANCH  15  16
HETATM   16  C6  UNL     1      27.105  -1.629  52.637  1.00  0.00     0.390 C 
HETATM   17  F1  UNL     1      26.792  -0.823  51.556  1.00  0.00    -0.171 F 
HETATM   18  F2  UNL     1      27.226  -2.952  52.261  1.00  0.00    -0.171 F 
HETATM   19  F3  UNL     1      26.060  -1.528  53.535  1.00  0.00    -0.171 F 
ENDBRANCH  15  16
ENDBRANCH  14  15
ENDBRANCH  11  13
ENDBRANCH   8  11
ENDBRANCH   1   7
BRANCH   6  20
HETATM   20  N2  UNL     1      22.939   3.262  50.713  1.00  0.00    -0.386 N 
HETATM   21  H14 UNL     1      22.591   4.212  50.956  1.00  0.00     0.160 HD
BRANCH  20  22
HETATM   22  C14 UNL     1      23.909   3.302  49.618  1.00  0.00     0.148 C 
BRANCH  22  23
HETATM   23  C15 UNL     1      24.212   4.695  49.239  1.00  0.00     0.005 C 
HETATM   24  C16 UNL     1      25.401   5.174  48.965  1.00  0.00    -0.021 A 
HETATM   25  C17 UNL     1      26.636   4.389  48.993  1.00  0.00     0.010 A 
HETATM   26  C20 UNL     1      25.669   6.558  48.590  1.00  0.00     0.121 A 
HETATM   27  C18 UNL     1      27.830   4.893  48.710  1.00  0.00    -0.004 A 
HETATM   28  C19 UNL     1      27.992   6.304  48.344  1.00  0.00     0.175 A 
HETATM   29  N3  UNL     1      26.793   7.078  48.314  1.00  0.00    -0.297 NA
ENDBRANCH  22  23
ENDBRANCH  20  22
ENDBRANCH   6  20
TORSDOF 8
ENDMDL
MODEL 4
REMARK VINA RESULT:      -8.0      1.876      5.332
REMARK  8 active torsions:
REMARK  status: ('A' for Active; 'I' for Inactive)
REMARK    1  A    between atoms: C2_2  and  C3_3 
REMARK    2  A    between atoms: C2_2  and  N1_10 
REMARK    3  A    between atoms: C4_4  and  C5_5 
REMARK    4  A    between atoms: C5_5  and  C6_6 
REMARK       I    between atoms: N1_10  and  C7_11 
REMARK    5  A    between atoms: C7_11  and  C8_13 
REMARK    6  A    between atoms: C13_18  and  N2_19 
REMARK    7  A    between atoms: N2_19  and  C14_20 
REMARK    8  A    between atoms: C14_20  and  C15_21 
ROOT
HETATM    1  C8  UNL     1      24.377   4.452  49.244  1.00  0.00     0.058 A 
HETATM    2  C9  UNL     1      23.776   5.567  48.715  1.00  0.00     0.019 A 
HETATM    3  C10 UNL     1      24.536   6.618  48.256  1.00  0.00     0.001 A 
HETATM    4  C11 UNL     1      25.921   6.557  48.325  1.00  0.00     0.002 A 
HETATM    5  C12 UNL     1      26.477   5.418  48.863  1.00  0.00     0.030 A 
HETATM    6  C13 UNL     1      25.747   4.346  49.333  1.00  0.00     0.044 A 
ENDROOT
BRANCH   1   7
HETATM    7  C7  UNL     1      23.531   3.374  49.716  1.00  0.00     0.254 C 
HETATM    8  N1  UNL     1      23.192   3.253  51.069  1.00  0.00    -0.349 N 
HETATM    9  H9  UNL     1      23.498   3.901  51.857  1.00  0.00     0.163 HD
HETATM   10  O1  UNL     1      22.944   2.398  49.195  1.00  0.00    -0.268 OA
BRANCH   8  11
HETATM   11  C2  UNL     1      22.367   2.260  51.744  1.00  0.00     0.103 C 
HETATM   12  C1  UNL     1      21.163   3.023  52.275  1.00  0.00     0.036 C 
BRANCH  11  13
HETATM   13  C3  UNL     1      23.074   1.475  52.755  1.00  0.00    -0.006 C 
HETATM   14  C4  UNL     1      22.991   0.286  53.286  1.00  0.00    -0.020 C 
BRANCH  14  15
HETATM   15  C5  UNL     1      22.127  -0.883  53.126  1.00  0.00     0.144 C 
BRANCH  15  16
HETATM   16  C6  UNL     1      21.091  -1.005  54.223  1.00  0.00     0.390 C 
HETATM   17  F1  UNL     1      21.388  -2.130  54.974  1.00  0.00    -0.171 F 
HETATM   18  F2  UNL     1      21.008   0.122  55.015  1.00  0.00    -0.171 F 
HETATM   19  F3  UNL     1      19.854  -1.220  53.645  1.00  0.00    -0.171 F 
ENDBRANCH  15  16
ENDBRANCH  14  15
ENDBRANCH  11  13
ENDBRANCH   8  11
ENDBRANCH   1   7
BRANCH   6  20
HETATM   20  N2  UNL     1      26.438   3.222  49.840  1.00  0.00    -0.386 N 
HETATM   21  H14 UNL     1      26.823   2.463  49.242  1.00  0.00     0.160 HD
BRANCH  20  22
HETATM   22  C14 UNL     1      26.696   2.979  51.260  1.00  0.00     0.148 C 
BRANCH  22  23
HETATM   23  C15 UNL     1      26.642   1.536  51.561  1.00  0.00     0.005 C 
HETATM   24  C16 UNL     1      27.386   0.907  52.439  1.00  0.00    -0.021 A 
HETATM   25  C17 UNL     1      28.406   1.549  53.270  1.00  0.00     0.010 A 
HETATM   26  C20 UNL     1      27.308  -0.523  52.717  1.00  0.00     0.121 A 
HETATM   27  C18 UNL     1      29.148   0.894  54.153  1.00  0.00    -0.004 A 
HETATM   28  C19 UNL     1      28.990  -0.550  54.357  1.00  0.00     0.175 A 
HETATM   29  N3  UNL     1      27.999  -1.185  53.551  1.00  0.00    -0.297 NA
ENDBRANCH  22  23
ENDBRANCH  20  22
ENDBRANCH   6  20
TORSDOF 8
ENDMDL
MODEL 5
REMARK VINA RESULT:      -8.0      3.636      6.312
REMARK  8 active torsions:
REMARK  status: ('A' for Active; 'I' for Inactive)
REMARK    1  A    between atoms: C2_2  and  C3_3 
REMARK    2  A    between atoms: C2_2  and  N1_10 
REMARK    3  A    between atoms: C4_4  and  C5_5 
REMARK    4  A    between atoms: C5_5  and  C6_6 
REMARK       I    between atoms: N1_10  and  C7_11 
REMARK    5  A    between atoms: C7_11  and  C8_13 
REMARK    6  A    between atoms: C13_18  and  N2_19 
REMARK    7  A    between atoms: N2_19  and  C14_20 
REMARK    8  A    between atoms: C14_20  and  C15_21 
ROOT
HETATM    1  C8  UNL     1      26.442   5.340  48.930  1.00  0.00     0.058 A 
HETATM    2  C9  UNL     1      25.178   5.796  48.650  1.00  0.00     0.019 A 
HETATM    3  C10 UNL     1      24.993   7.034  48.079  1.00  0.00     0.001 A 
HETATM    4  C11 UNL     1      26.088   7.833  47.780  1.00  0.00     0.002 A 
HETATM    5  C12 UNL     1      27.336   7.332  48.079  1.00  0.00     0.030 A 
HETATM    6  C13 UNL     1      27.558   6.097  48.653  1.00  0.00     0.044 A 
ENDROOT
BRANCH   1   7
HETATM    7  C7  UNL     1      26.583   4.031  49.535  1.00  0.00     0.254 C 
HETATM    8  N1  UNL     1      26.079   3.761  50.814  1.00  0.00    -0.349 N 
HETATM    9  H9  UNL     1      25.567   4.446  51.448  1.00  0.00     0.163 HD
HETATM   10  O1  UNL     1      27.087   2.935  49.199  1.00  0.00    -0.268 OA
BRANCH   8  11
HETATM   11  C2  UNL     1      26.111   2.531  51.594  1.00  0.00     0.103 C 
HETATM   12  C1  UNL     1      24.781   2.478  52.329  1.00  0.00     0.036 C 
BRANCH  11  13
HETATM   13  C3  UNL     1      27.281   2.398  52.461  1.00  0.00    -0.006 C 
HETATM   14  C4  UNL     1      27.963   1.437  53.022  1.00  0.00    -0.020 C 
BRANCH  14  15
HETATM   15  C5  UNL     1      27.891  -0.023  53.063  1.00  0.00     0.144 C 
BRANCH  15  16
HETATM   16  C6  UNL     1      29.123  -0.659  53.671  1.00  0.00     0.390 C 
HETATM   17  F1  UNL     1      29.065  -2.022  53.436  1.00  0.00    -0.171 F 
HETATM   18  F2  UNL     1      30.300  -0.115  53.197  1.00  0.00    -0.171 F 
HETATM   19  F3  UNL     1      29.086  -0.481  55.041  1.00  0.00    -0.171 F 
ENDBRANCH  15  16
ENDBRANCH  14  15
ENDBRANCH  11  13
ENDBRANCH   8  11
ENDBRANCH   1   7
BRANCH   6  20
HETATM   20  N2  UNL     1      28.890   5.686  48.888  1.00  0.00    -0.386 N 
HETATM   21  H14 UNL     1      29.310   5.602  49.837  1.00  0.00     0.160 HD
BRANCH  20  22
HETATM   22  C14 UNL     1      29.846   5.330  47.839  1.00  0.00     0.148 C 
BRANCH  22  23
HETATM   23  C15 UNL     1      31.218   5.699  48.235  1.00  0.00     0.005 C 
HETATM   24  C16 UNL     1      32.296   4.984  48.024  1.00  0.00    -0.021 A 
HETATM   25  C17 UNL     1      32.308   3.684  47.351  1.00  0.00     0.010 A 
HETATM   26  C20 UNL     1      33.643   5.377  48.425  1.00  0.00     0.121 A 
HETATM   27  C18 UNL     1      33.411   2.976  47.147  1.00  0.00    -0.004 A 
HETATM   28  C19 UNL     1      34.721   3.463  47.593  1.00  0.00     0.175 A 
HETATM   29  N3  UNL     1      34.720   4.730  48.249  1.00  0.00    -0.297 NA
ENDBRANCH  22  23
ENDBRANCH  20  22
ENDBRANCH   6  20
TORSDOF 8
ENDMDL
MODEL 6
REMARK VINA RESULT:      -8.0      2.388      3.365
REMARK  8 active torsions:
REMARK  status: ('A' for Active; 'I' for Inactive)
REMARK    1  A    between atoms: C2_2  and  C3_3 
REMARK    2  A    between atoms: C2_2  and  N1_10 
REMARK    3  A    between atoms: C4_4  and  C5_5 
REMARK    4  A    between atoms: C5_5  and  C6_6 
REMARK       I    between atoms: N1_10  and  C7_11 
REMARK    5  A    between atoms: C7_11  and  C8_13 
REMARK    6  A    between atoms: C13_18  and  N2_19 
REMARK    7  A    between atoms: N2_19  and  C14_20 
REMARK    8  A    between atoms: C14_20  and  C15_21 
ROOT
HETATM    1  C8  UNL     1      24.829   1.638  52.682  1.00  0.00     0.058 A 
HETATM    2  C9  UNL     1      24.461   0.511  53.373  1.00  0.00     0.019 A 
HETATM    3  C10 UNL     1      25.304  -0.574  53.438  1.00  0.00     0.001 A 
HETATM    4  C11 UNL     1      26.538  -0.535  52.804  1.00  0.00     0.002 A 
HETATM    5  C12 UNL     1      26.863   0.618  52.124  1.00  0.00     0.030 A 
HETATM    6  C13 UNL     1      26.043   1.723  52.037  1.00  0.00     0.044 A 
ENDROOT
BRANCH   1   7
HETATM    7  C7  UNL     1      23.904   2.753  52.642  1.00  0.00     0.254 C 
HETATM    8  N1  UNL     1      22.619   2.613  52.101  1.00  0.00    -0.349 N 
HETATM    9  H9  UNL     1      22.202   1.727  51.684  1.00  0.00     0.163 HD
HETATM   10  O1  UNL     1      23.926   3.954  52.996  1.00  0.00    -0.268 OA
BRANCH   8  11
HETATM   11  C2  UNL     1      21.548   3.591  51.966  1.00  0.00     0.103 C 
HETATM   12  C1  UNL     1      20.270   2.849  52.325  1.00  0.00     0.036 C 
BRANCH  11  13
HETATM   13  C3  UNL     1      21.506   4.264  50.668  1.00  0.00    -0.006 C 
HETATM   14  C4  UNL     1      21.933   4.048  49.454  1.00  0.00    -0.020 C 
BRANCH  14  15
HETATM   15  C5  UNL     1      22.686   2.996  48.772  1.00  0.00     0.144 C 
BRANCH  15  16
HETATM   16  C6  UNL     1      21.874   1.737  48.551  1.00  0.00     0.390 C 
HETATM   17  F1  UNL     1      22.049   0.913  49.650  1.00  0.00    -0.171 F 
HETATM   18  F2  UNL     1      20.537   1.991  48.320  1.00  0.00    -0.171 F 
HETATM   19  F3  UNL     1      22.382   1.065  47.456  1.00  0.00    -0.171 F 
ENDBRANCH  15  16
ENDBRANCH  14  15
ENDBRANCH  11  13
ENDBRANCH   8  11
ENDBRANCH   1   7
BRANCH   6  20
HETATM   20  N2  UNL     1      26.502   2.857  51.329  1.00  0.00    -0.386 N 
HETATM   21  H14 UNL     1      26.942   3.683  51.784  1.00  0.00     0.160 HD
BRANCH  20  22
HETATM   22  C14 UNL     1      26.417   3.018  49.877  1.00  0.00     0.148 C 
BRANCH  22  23
HETATM   23  C15 UNL     1      25.946   4.372  49.528  1.00  0.00     0.005 C 
HETATM   24  C16 UNL     1      26.659   5.306  48.946  1.00  0.00    -0.021 A 
HETATM   25  C17 UNL     1      28.058   5.150  48.545  1.00  0.00     0.010 A 
HETATM   26  C20 UNL     1      26.164   6.637  48.610  1.00  0.00     0.121 A 
HETATM   27  C18 UNL     1      28.762   6.108  47.956  1.00  0.00    -0.004 A 
HETATM   28  C19 UNL     1      28.167   7.416  47.662  1.00  0.00     0.175 A 
HETATM   29  N3  UNL     1      26.803   7.578  48.049  1.00  0.00    -0.297 NA
ENDBRANCH  22  23
ENDBRANCH  20  22
ENDBRANCH   6  20
TORSDOF 8
ENDMDL
MODEL 7
REMARK VINA RESULT:      -7.9      3.163      5.920
REMARK  8 active torsions:
REMARK  status: ('A' for Active; 'I' for Inactive)
REMARK    1  A    between atoms: C2_2  and  C3_3 
REMARK    2  A    between atoms: C2_2  and  N1_10 
REMARK    3  A    between atoms: C4_4  and  C5_5 
REMARK    4  A    between atoms: C5_5  and  C6_6 
REMARK       I    between atoms: N1_10  and  C7_11 
REMARK    5  A    between atoms: C7_11  and  C8_13 
REMARK    6  A    between atoms: C13_18  and  N2_19 
REMARK    7  A    between atoms: N2_19  and  C14_20 
REMARK    8  A    between atoms: C14_20  and  C15_21 
ROOT
HETATM    1  C8  UNL     1      22.430   1.051  52.976  1.00  0.00     0.058 A 
HETATM    2  C9  UNL     1      23.021  -0.171  53.178  1.00  0.00     0.019 A 
HETATM    3  C10 UNL     1      22.268  -1.255  53.568  1.00  0.00     0.001 A 
HETATM    4  C11 UNL     1      20.901  -1.119  53.761  1.00  0.00     0.002 A 
HETATM    5  C12 UNL     1      20.353   0.127  53.546  1.00  0.00     0.030 A 
HETATM    6  C13 UNL     1      21.077   1.234  53.156  1.00  0.00     0.044 A 
ENDROOT
BRANCH   1   7
HETATM    7  C7  UNL     1      23.267   2.161  52.568  1.00  0.00     0.254 C 
HETATM    8  N1  UNL     1      24.390   1.965  51.753  1.00  0.00    -0.349 N 
HETATM    9  H9  UNL     1      24.734   1.036  51.365  1.00  0.00     0.163 HD
HETATM   10  O1  UNL     1      23.276   3.398  52.758  1.00  0.00    -0.268 OA
BRANCH   8  11
HETATM   11  C2  UNL     1      25.351   2.929  51.234  1.00  0.00     0.103 C 
HETATM   12  C1  UNL     1      25.018   3.083  49.758  1.00  0.00     0.036 C 
BRANCH  11  13
HETATM   13  C3  UNL     1      26.748   2.592  51.503  1.00  0.00    -0.006 C 
HETATM   14  C4  UNL     1      27.434   1.992  52.437  1.00  0.00    -0.020 C 
BRANCH  14  15
HETATM   15  C5  UNL     1      27.137   1.343  53.713  1.00  0.00     0.144 C 
BRANCH  15  16
HETATM   16  C6  UNL     1      26.897  -0.146  53.576  1.00  0.00     0.390 C 
HETATM   17  F1  UNL     1      26.015  -0.532  54.571  1.00  0.00    -0.171 F 
HETATM   18  F2  UNL     1      26.437  -0.505  52.326  1.00  0.00    -0.171 F 
HETATM   19  F3  UNL     1      28.086  -0.811  53.808  1.00  0.00    -0.171 F 
ENDBRANCH  15  16
ENDBRANCH  14  15
ENDBRANCH  11  13
ENDBRANCH   8  11
ENDBRANCH   1   7
BRANCH   6  20
HETATM   20  N2  UNL     1      20.394   2.454  52.944  1.00  0.00    -0.386 N 
HETATM   21  H14 UNL     1      20.483   3.282  53.568  1.00  0.00     0.160 HD
BRANCH  20  22
HETATM   22  C14 UNL     1      19.479   2.709  51.831  1.00  0.00     0.148 C 
BRANCH  22  23
HETATM   23  C15 UNL     1      20.133   3.530  50.794  1.00  0.00     0.005 C 
HETATM   24  C16 UNL     1      20.818   3.074  49.774  1.00  0.00    -0.021 A 
HETATM   25  C17 UNL     1      21.047   1.654  49.498  1.00  0.00     0.010 A 
HETATM   26  C20 UNL     1      21.453   3.911  48.762  1.00  0.00     0.121 A 
HETATM   27  C18 UNL     1      21.743   1.213  48.459  1.00  0.00    -0.004 A 
HETATM   28  C19 UNL     1      22.343   2.143  47.496  1.00  0.00     0.175 A 
HETATM   29  N3  UNL     1      22.125   3.530  47.756  1.00  0.00    -0.297 NA
ENDBRANCH  22  23
ENDBRANCH  20  22
ENDBRANCH   6  20
TORSDOF 8
ENDMDL
MODEL 8
REMARK VINA RESULT:      -7.9      2.254      5.846
REMARK  8 active torsions:
REMARK  status: ('A' for Active; 'I' for Inactive)
REMARK    1  A    between atoms: C2_2  and  C3_3 
REMARK    2  A    between atoms: C2_2  and  N1_10 
REMARK    3  A    between atoms: C4_4  and  C5_5 
REMARK    4  A    between atoms: C5_5  and  C6_6 
REMARK       I    between atoms: N1_10  and  C7_11 
REMARK    5  A    between atoms: C7_11  and  C8_13 
REMARK    6  A    between atoms: C13_18  and  N2_19 
REMARK    7  A    between atoms: N2_19  and  C14_20 
REMARK    8  A    between atoms: C14_20  and  C15_21 
ROOT
HETATM    1  C8  UNL     1      25.480   3.504  51.177  1.00  0.00     0.058 A 
HETATM    2  C9  UNL     1      26.541   3.149  50.383  1.00  0.00     0.019 A 
HETATM    3  C10 UNL     1      26.847   3.880  49.258  1.00  0.00     0.001 A 
HETATM    4  C11 UNL     1      26.082   4.987  48.919  1.00  0.00     0.002 A 
HETATM    5  C12 UNL     1      25.027   5.304  49.747  1.00  0.00     0.030 A 
HETATM    6  C13 UNL     1      24.692   4.593  50.880  1.00  0.00     0.044 A 
ENDROOT
BRANCH   1   7
HETATM    7  C7  UNL     1      25.198   2.700  52.348  1.00  0.00     0.254 C 
HETATM    8  N1  UNL     1      26.030   1.635  52.719  1.00  0.00    -0.349 N 
HETATM    9  H9  UNL     1      26.910   1.316  52.212  1.00  0.00     0.163 HD
HETATM   10  O1  UNL     1      24.314   2.681  53.235  1.00  0.00    -0.268 OA
BRANCH   8  11
HETATM   11  C2  UNL     1      25.930   0.715  53.843  1.00  0.00     0.103 C 
HETATM   12  C1  UNL     1      27.357   0.500  54.324  1.00  0.00     0.036 C 
BRANCH  11  13
HETATM   13  C3  UNL     1      25.205  -0.521  53.549  1.00  0.00    -0.006 C 
HETATM   14  C4  UNL     1      23.963  -0.912  53.453  1.00  0.00    -0.020 C 
BRANCH  14  15
HETATM   15  C5  UNL     1      22.647  -0.291  53.596  1.00  0.00     0.144 C 
BRANCH  15  16
HETATM   16  C6  UNL     1      21.877  -0.807  54.793  1.00  0.00     0.390 C 
HETATM   17  F1  UNL     1      20.998  -1.781  54.352  1.00  0.00    -0.171 F 
HETATM   18  F2  UNL     1      22.696  -1.284  55.796  1.00  0.00    -0.171 F 
HETATM   19  F3  UNL     1      21.115   0.223  55.310  1.00  0.00    -0.171 F 
ENDBRANCH  15  16
ENDBRANCH  14  15
ENDBRANCH  11  13
ENDBRANCH   8  11
ENDBRANCH   1   7
BRANCH   6  20
HETATM   20  N2  UNL     1      23.600   5.036  51.662  1.00  0.00    -0.386 N 
HETATM   21  H14 UNL     1      23.673   5.280  52.671  1.00  0.00     0.160 HD
BRANCH  20  22
HETATM   22  C14 UNL     1      22.235   5.205  51.160  1.00  0.00     0.148 C 
BRANCH  22  23
HETATM   23  C15 UNL     1      21.289   4.375  51.930  1.00  0.00     0.005 C 
HETATM   24  C16 UNL     1      20.965   3.133  51.662  1.00  0.00    -0.021 A 
HETATM   25  C17 UNL     1      21.499   2.362  50.538  1.00  0.00     0.010 A 
HETATM   26  C20 UNL     1      20.027   2.336  52.444  1.00  0.00     0.121 A 
HETATM   27  C18 UNL     1      21.158   1.105  50.285  1.00  0.00    -0.004 A 
HETATM   28  C19 UNL     1      20.201   0.391  51.137  1.00  0.00     0.175 A 
HETATM   29  N3  UNL     1      19.675   1.135  52.236  1.00  0.00    -0.297 NA
ENDBRANCH  22  23
ENDBRANCH  20  22
ENDBRANCH   6  20
TORSDOF 8
ENDMDL
MODEL 9
REMARK VINA RESULT:      -7.8      3.034      6.683
REMARK  8 active torsions:
REMARK  status: ('A' for Active; 'I' for Inactive)
REMARK    1  A    between atoms: C2_2  and  C3_3 
REMARK    2  A    between atoms: C2_2  and  N1_10 
REMARK    3  A    between atoms: C4_4  and  C5_5 
REMARK    4  A    between atoms: C5_5  and  C6_6 
REMARK       I    between atoms: N1_10  and  C7_11 
REMARK    5  A    between atoms: C7_11  and  C8_13 
REMARK    6  A    between atoms: C13_18  and  N2_19 
REMARK    7  A    between atoms: N2_19  and  C14_20 
REMARK    8  A    between atoms: C14_20  and  C15_21 
ROOT
HETATM    1  C8  UNL     1      25.829   4.522  49.298  1.00  0.00     0.058 A 
HETATM    2  C9  UNL     1      27.175   4.394  49.062  1.00  0.00     0.019 A 
HETATM    3  C10 UNL     1      27.886   5.430  48.501  1.00  0.00     0.001 A 
HETATM    4  C11 UNL     1      27.244   6.615  48.169  1.00  0.00     0.002 A 
HETATM    5  C12 UNL     1      25.893   6.695  48.425  1.00  0.00     0.030 A 
HETATM    6  C13 UNL     1      25.149   5.678  48.985  1.00  0.00     0.044 A 
ENDROOT
BRANCH   1   7
HETATM    7  C7  UNL     1      25.125   3.401  49.888  1.00  0.00     0.254 C 
HETATM    8  N1  UNL     1      25.561   2.815  51.083  1.00  0.00    -0.349 N 
HETATM    9  H9  UNL     1      26.408   3.108  51.658  1.00  0.00     0.163 HD
HETATM   10  O1  UNL     1      24.112   2.723  49.601  1.00  0.00    -0.268 OA
BRANCH   8  11
HETATM   11  C2  UNL     1      25.007   1.698  51.836  1.00  0.00     0.103 C 
HETATM   12  C1  UNL     1      24.333   2.318  53.051  1.00  0.00     0.036 C 
BRANCH  11  13
HETATM   13  C3  UNL     1      25.973   0.648  52.157  1.00  0.00    -0.006 C 
HETATM   14  C4  UNL     1      27.185   0.565  52.634  1.00  0.00    -0.020 C 
BRANCH  14  15
HETATM   15  C5  UNL     1      28.205   1.506  53.096  1.00  0.00     0.144 C 
BRANCH  15  16
HETATM   16  C6  UNL     1      29.162   0.895  54.098  1.00  0.00     0.390 C 
HETATM   17  F1  UNL     1      28.441   0.046  54.919  1.00  0.00    -0.171 F 
HETATM   18  F2  UNL     1      30.221   0.241  53.502  1.00  0.00    -0.171 F 
HETATM   19  F3  UNL     1      29.669   1.900  54.899  1.00  0.00    -0.171 F 
ENDBRANCH  15  16
ENDBRANCH  14  15
ENDBRANCH  11  13
ENDBRANCH   8  11
ENDBRANCH   1   7
BRANCH   6  20
HETATM   20  N2  UNL     1      23.772   5.893  49.221  1.00  0.00    -0.386 N 
HETATM   21  H14 UNL     1      23.021   5.613  48.557  1.00  0.00     0.160 HD
BRANCH  20  22
HETATM   22  C14 UNL     1      23.226   6.533  50.418  1.00  0.00     0.148 C 
BRANCH  22  23
HETATM   23  C15 UNL     1      22.738   5.523  51.375  1.00  0.00     0.005 C 
HETATM   24  C16 UNL     1      21.556   4.958  51.358  1.00  0.00    -0.021 A 
HETATM   25  C17 UNL     1      20.514   5.247  50.371  1.00  0.00     0.010 A 
HETATM   26  C20 UNL     1      21.102   3.957  52.319  1.00  0.00     0.121 A 
HETATM   27  C18 UNL     1      19.323   4.663  50.371  1.00  0.00    -0.004 A 
HETATM   28  C19 UNL     1      18.965   3.666  51.386  1.00  0.00     0.175 A 
HETATM   29  N3  UNL     1      19.974   3.377  52.353  1.00  0.00    -0.297 NA
ENDBRANCH  22  23
ENDBRANCH  20  22
ENDBRANCH   6  20
TORSDOF 8
ENDMDL
