MODEL 1
REMARK VINA RESULT:      -9.8      0.000      0.000
REMARK  2 active torsions:
REMARK  status: ('A' for Active; 'I' for Inactive)
REMARK    1  A    between atoms: O1_1  and  C1_2 
REMARK    2  A    between atoms: C8_9  and  C9_10 
ROOT
HETATM    1  C1  UNL     1      28.124   1.306  53.433  1.00  0.00     0.067 C 
HETATM    2  C2  UNL     1      27.004   1.694  52.861  1.00  0.00    -0.022 C 
HETATM    3  C3  UNL     1      27.137   2.469  51.603  1.00  0.00     0.010 C 
HETATM    4  C4  UNL     1      26.304   2.998  50.703  1.00  0.00     0.000 C 
HETATM    5  C5  UNL     1      24.843   3.081  50.465  1.00  0.00    -0.004 C 
HETATM    6  C6  UNL     1      23.849   2.535  51.193  1.00  0.00    -0.026 C 
HETATM    7  C7  UNL     1      22.889   1.908  52.044  1.00  0.00     0.042 C 
HETATM    8  C8  UNL     1      23.390   1.156  53.262  1.00  0.00     0.070 C 
HETATM    9  C15 UNL     1      24.724   0.613  53.180  1.00  0.00     0.025 C 
HETATM   10  N1  UNL     1      25.092  -0.596  53.037  1.00  0.00    -0.267 NA
HETATM   11  C16 UNL     1      26.440  -1.026  52.976  1.00  0.00     0.133 C 
HETATM   12  C17 UNL     1      27.699  -1.226  53.229  1.00  0.00     0.102 C 
HETATM   13  N2  UNL     1      28.582  -0.785  54.291  1.00  0.00    -0.392 N 
HETATM   14  C18 UNL     1      27.943   0.514  54.674  1.00  0.00     0.183 C 
HETATM   15  C19 UNL     1      25.637   1.740  53.329  1.00  0.00     0.096 C 
HETATM   16  H15 UNL     1      29.389  -1.377  54.557  1.00  0.00     0.159 HD
ENDROOT
BRANCH   8  17
HETATM   17  C9  UNL     1      22.280   0.165  53.534  1.00  0.00    -0.048 A 
HETATM   18  C10 UNL     1      22.176  -0.928  54.365  1.00  0.00     0.011 A 
HETATM   19  C11 UNL     1      21.031  -1.653  54.428  1.00  0.00     0.043 A 
HETATM   20  C12 UNL     1      19.931  -1.305  53.647  1.00  0.00     0.116 A 
HETATM   21  F1  UNL     1      18.820  -2.084  53.773  1.00  0.00    -0.206 F 
HETATM   22  C13 UNL     1      20.008  -0.202  52.795  1.00  0.00     0.043 A 
HETATM   23  C14 UNL     1      21.190   0.540  52.736  1.00  0.00     0.011 A 
ENDBRANCH   8  17
BRANCH   1  24
HETATM   24  O1  UNL     1      29.358   1.590  52.936  1.00  0.00    -0.363 OA
HETATM   25  H1  UNL     1      29.898   2.400  53.218  1.00  0.00     0.217 HD
ENDBRANCH   1  24
TORSDOF 2
ENDMDL
MODEL 2
REMARK VINA RESULT:      -9.1      3.529      6.160
REMARK  2 active torsions:
REMARK  status: ('A' for Active; 'I' for Inactive)
REMARK    1  A    between atoms: O1_1  and  C1_2 
REMARK    2  A    between atoms: C8_9  and  C9_10 
ROOT
HETATM    1  C1  UNL     1      22.859   4.307  51.827  1.00  0.00     0.067 C 
HETATM    2  C2  UNL     1      22.819   3.039  52.174  1.00  0.00    -0.022 C 
HETATM    3  C3  UNL     1      21.583   2.294  51.826  1.00  0.00     0.010 C 
HETATM    4  C4  UNL     1      21.151   1.036  51.939  1.00  0.00     0.000 C 
HETATM    5  C5  UNL     1      21.656  -0.265  52.440  1.00  0.00    -0.004 C 
HETATM    6  C6  UNL     1      22.870  -0.544  52.953  1.00  0.00    -0.026 C 
HETATM    7  C7  UNL     1      24.187  -0.714  53.477  1.00  0.00     0.042 C 
HETATM    8  C8  UNL     1      25.092   0.501  53.555  1.00  0.00     0.070 C 
HETATM    9  C15 UNL     1      24.840   1.554  52.603  1.00  0.00     0.025 C 
HETATM   10  N1  UNL     1      25.508   1.881  51.570  1.00  0.00    -0.267 NA
HETATM   11  C16 UNL     1      25.174   2.946  50.699  1.00  0.00     0.133 C 
HETATM   12  C17 UNL     1      24.858   4.110  50.215  1.00  0.00     0.102 C 
HETATM   13  N2  UNL     1      24.617   5.406  50.818  1.00  0.00    -0.392 N 
HETATM   14  C18 UNL     1      24.121   5.005  52.172  1.00  0.00     0.183 C 
HETATM   15  C19 UNL     1      23.641   2.246  53.061  1.00  0.00     0.096 C 
HETATM   16  H15 UNL     1      24.811   6.263  50.270  1.00  0.00     0.159 HD
ENDROOT
BRANCH   8  17
HETATM   17  C9  UNL     1      26.479  -0.103  53.534  1.00  0.00    -0.048 A 
HETATM   18  C10 UNL     1      27.051  -1.120  52.803  1.00  0.00     0.011 A 
HETATM   19  C11 UNL     1      28.354  -1.457  52.976  1.00  0.00     0.043 A 
HETATM   20  C12 UNL     1      29.143  -0.778  53.901  1.00  0.00     0.116 A 
HETATM   21  F1  UNL     1      30.441  -1.178  54.010  1.00  0.00    -0.206 F 
HETATM   22  C13 UNL     1      28.589   0.257  54.657  1.00  0.00     0.043 A 
HETATM   23  C14 UNL     1      27.247   0.599  54.473  1.00  0.00     0.011 A 
ENDBRANCH   8  17
BRANCH   1  24
HETATM   24  O1  UNL     1      21.838   4.943  51.191  1.00  0.00    -0.363 OA
HETATM   25  H1  UNL     1      21.380   4.573  50.366  1.00  0.00     0.217 HD
ENDBRANCH   1  24
TORSDOF 2
ENDMDL
MODEL 3
REMARK VINA RESULT:      -8.8      1.998      3.698
REMARK  2 active torsions:
REMARK  status: ('A' for Active; 'I' for Inactive)
REMARK    1  A    between atoms: O1_1  and  C1_2 
REMARK    2  A    between atoms: C8_9  and  C9_10 
ROOT
HETATM    1  C1  UNL     1      26.412   3.255  50.490  1.00  0.00     0.067 C 
HETATM    2  C2  UNL     1      26.376   2.371  51.463  1.00  0.00    -0.022 C 
HETATM    3  C3  UNL     1      27.527   2.368  52.401  1.00  0.00     0.010 C 
HETATM    4  C4  UNL     1      27.868   1.704  53.508  1.00  0.00     0.000 C 
HETATM    5  C5  UNL     1      27.297   0.658  54.388  1.00  0.00    -0.004 C 
HETATM    6  C6  UNL     1      26.098   0.048  54.288  1.00  0.00    -0.026 C 
HETATM    7  C7  UNL     1      24.807  -0.522  54.075  1.00  0.00     0.042 C 
HETATM    8  C8  UNL     1      24.005  -0.059  52.874  1.00  0.00     0.070 C 
HETATM    9  C15 UNL     1      24.277   1.272  52.393  1.00  0.00     0.025 C 
HETATM   10  N1  UNL     1      23.574   2.327  52.503  1.00  0.00    -0.267 NA
HETATM   11  C16 UNL     1      23.934   3.593  51.983  1.00  0.00     0.133 C 
HETATM   12  C17 UNL     1      24.307   4.560  51.198  1.00  0.00     0.102 C 
HETATM   13  N2  UNL     1      24.684   4.617  49.799  1.00  0.00    -0.392 N 
HETATM   14  C18 UNL     1      25.231   3.238  49.593  1.00  0.00     0.183 C 
HETATM   15  C19 UNL     1      25.552   1.203  51.688  1.00  0.00     0.096 C 
HETATM   16  H15 UNL     1      24.523   5.490  49.266  1.00  0.00     0.159 HD
ENDROOT
BRANCH   8  17
HETATM   17  C9  UNL     1      22.578  -0.343  53.285  1.00  0.00    -0.048 A 
HETATM   18  C10 UNL     1      22.010  -0.829  54.442  1.00  0.00     0.011 A 
HETATM   19  C11 UNL     1      20.666  -0.975  54.555  1.00  0.00     0.043 A 
HETATM   20  C12 UNL     1      19.828  -0.636  53.495  1.00  0.00     0.116 A 
HETATM   21  F1  UNL     1      18.491  -0.810  53.692  1.00  0.00    -0.206 F 
HETATM   22  C13 UNL     1      20.375  -0.141  52.310  1.00  0.00     0.043 A 
HETATM   23  C14 UNL     1      21.760   0.007  52.202  1.00  0.00     0.011 A 
ENDBRANCH   8  17
BRANCH   1  24
HETATM   24  O1  UNL     1      27.437   4.131  50.311  1.00  0.00    -0.363 OA
HETATM   25  H1  UNL     1      28.404   3.843  50.216  1.00  0.00     0.217 HD
ENDBRANCH   1  24
TORSDOF 2
ENDMDL
MODEL 4
REMARK VINA RESULT:      -8.7      3.434      5.965
REMARK  2 active torsions:
REMARK  status: ('A' for Active; 'I' for Inactive)
REMARK    1  A    between atoms: O1_1  and  C1_2 
REMARK    2  A    between atoms: C8_9  and  C9_10 
ROOT
HETATM    1  C1  UNL     1      25.537  -0.805  53.902  1.00  0.00     0.067 C 
HETATM    2  C2  UNL     1      24.642  -0.058  53.291  1.00  0.00    -0.022 C 
HETATM    3  C3  UNL     1      23.264  -0.091  53.840  1.00  0.00     0.010 C 
HETATM    4  C4  UNL     1      22.105   0.517  53.575  1.00  0.00     0.000 C 
HETATM    5  C5  UNL     1      21.582   1.535  52.633  1.00  0.00    -0.004 C 
HETATM    6  C6  UNL     1      22.257   2.222  51.691  1.00  0.00    -0.026 C 
HETATM    7  C7  UNL     1      23.081   2.885  50.731  1.00  0.00     0.042 C 
HETATM    8  C8  UNL     1      24.546   2.499  50.652  1.00  0.00     0.070 C 
HETATM    9  C15 UNL     1      25.142   1.985  51.860  1.00  0.00     0.025 C 
HETATM   10  N1  UNL     1      25.961   2.548  52.656  1.00  0.00    -0.267 NA
HETATM   11  C16 UNL     1      26.495   1.945  53.820  1.00  0.00     0.133 C 
HETATM   12  C17 UNL     1      27.068   1.126  54.651  1.00  0.00     0.102 C 
HETATM   13  N2  UNL     1      27.675  -0.182  54.499  1.00  0.00    -0.392 N 
HETATM   14  C18 UNL     1      26.905  -0.722  53.335  1.00  0.00     0.183 C 
HETATM   15  C19 UNL     1      24.650   0.621  52.014  1.00  0.00     0.096 C 
HETATM   16  H15 UNL     1      28.437  -0.464  55.142  1.00  0.00     0.159 HD
ENDROOT
BRANCH   8  17
HETATM   17  C9  UNL     1      25.192   3.732  50.060  1.00  0.00    -0.048 A 
HETATM   18  C10 UNL     1      24.810   5.053  49.987  1.00  0.00     0.011 A 
HETATM   19  C11 UNL     1      25.606   5.980  49.398  1.00  0.00     0.043 A 
HETATM   20  C12 UNL     1      26.833   5.613  48.851  1.00  0.00     0.116 A 
HETATM   21  F1  UNL     1      27.572   6.606  48.280  1.00  0.00    -0.206 F 
HETATM   22  C13 UNL     1      27.247   4.281  48.909  1.00  0.00     0.043 A 
HETATM   23  C14 UNL     1      26.422   3.331  49.518  1.00  0.00     0.011 A 
ENDBRANCH   8  17
BRANCH   1  24
HETATM   24  O1  UNL     1      25.252  -1.586  54.978  1.00  0.00    -0.363 OA
HETATM   25  H1  UNL     1      24.973  -1.213  55.878  1.00  0.00     0.217 HD
ENDBRANCH   1  24
TORSDOF 2
ENDMDL
MODEL 5
REMARK VINA RESULT:      -8.7      3.988      6.345
REMARK  2 active torsions:
REMARK  status: ('A' for Active; 'I' for Inactive)
REMARK    1  A    between atoms: O1_1  and  C1_2 
REMARK    2  A    between atoms: C8_9  and  C9_10 
ROOT
HETATM    1  C1  UNL     1      24.479   5.898  49.453  1.00  0.00     0.067 C 
HETATM    2  C2  UNL     1      24.147   4.725  49.948  1.00  0.00    -0.022 C 
HETATM    3  C3  UNL     1      22.974   4.054  49.333  1.00  0.00     0.010 C 
HETATM    4  C4  UNL     1      22.343   2.887  49.482  1.00  0.00     0.000 C 
HETATM    5  C5  UNL     1      22.474   1.656  50.298  1.00  0.00    -0.004 C 
HETATM    6  C6  UNL     1      23.423   1.358  51.207  1.00  0.00    -0.026 C 
HETATM    7  C7  UNL     1      24.482   1.158  52.143  1.00  0.00     0.042 C 
HETATM    8  C8  UNL     1      25.494   2.273  52.332  1.00  0.00     0.070 C 
HETATM    9  C15 UNL     1      25.700   3.153  51.209  1.00  0.00     0.025 C 
HETATM   10  N1  UNL     1      26.687   3.218  50.408  1.00  0.00    -0.267 NA
HETATM   11  C16 UNL     1      26.792   4.132  49.333  1.00  0.00     0.133 C 
HETATM   12  C17 UNL     1      26.814   5.213  48.611  1.00  0.00     0.102 C 
HETATM   13  N2  UNL     1      26.602   6.616  48.913  1.00  0.00    -0.392 N 
HETATM   14  C18 UNL     1      25.670   6.520  50.081  1.00  0.00     0.183 C 
HETATM   15  C19 UNL     1      24.537   4.031  51.155  1.00  0.00     0.096 C 
HETATM   16  H15 UNL     1      27.078   7.334  48.339  1.00  0.00     0.159 HD
ENDROOT
BRANCH   8  17
HETATM   17  C9  UNL     1      26.717   1.542  52.842  1.00  0.00    -0.048 A 
HETATM   18  C10 UNL     1      27.841   1.950  53.524  1.00  0.00     0.011 A 
HETATM   19  C11 UNL     1      28.803   1.063  53.882  1.00  0.00     0.043 A 
HETATM   20  C12 UNL     1      28.672  -0.287  53.565  1.00  0.00     0.116 A 
HETATM   21  F1  UNL     1      29.681  -1.111  53.964  1.00  0.00    -0.206 F 
HETATM   22  C13 UNL     1      27.542  -0.730  52.874  1.00  0.00     0.043 A 
HETATM   23  C14 UNL     1      26.556   0.190  52.509  1.00  0.00     0.011 A 
ENDBRANCH   8  17
BRANCH   1  24
HETATM   24  O1  UNL     1      23.802   6.504  48.441  1.00  0.00    -0.363 OA
HETATM   25  H1  UNL     1      22.809   6.378  48.283  1.00  0.00     0.217 HD
ENDBRANCH   1  24
TORSDOF 2
ENDMDL
MODEL 6
REMARK VINA RESULT:      -8.6      2.035      3.699
REMARK  2 active torsions:
REMARK  status: ('A' for Active; 'I' for Inactive)
REMARK    1  A    between atoms: O1_1  and  C1_2 
REMARK    2  A    between atoms: C8_9  and  C9_10 
ROOT
HETATM    1  C1  UNL     1      26.723   2.292  51.897  1.00  0.00     0.067 C 
HETATM    2  C2  UNL     1      26.077   1.413  52.632  1.00  0.00    -0.022 C 
HETATM    3  C3  UNL     1      26.701   1.049  53.930  1.00  0.00     0.010 C 
HETATM    4  C4  UNL     1      26.385   0.270  54.967  1.00  0.00     0.000 C 
HETATM    5  C5  UNL     1      25.270  -0.612  55.387  1.00  0.00    -0.004 C 
HETATM    6  C6  UNL     1      24.114  -0.858  54.739  1.00  0.00    -0.026 C 
HETATM    7  C7  UNL     1      22.931  -1.036  53.958  1.00  0.00     0.042 C 
HETATM    8  C8  UNL     1      22.834  -0.317  52.626  1.00  0.00     0.070 C 
HETATM    9  C15 UNL     1      23.588   0.905  52.497  1.00  0.00     0.025 C 
HETATM   10  N1  UNL     1      23.174   2.109  52.487  1.00  0.00    -0.267 NA
HETATM   11  C16 UNL     1      24.007   3.245  52.346  1.00  0.00     0.133 C 
HETATM   12  C17 UNL     1      24.889   4.101  51.925  1.00  0.00     0.102 C 
HETATM   13  N2  UNL     1      25.813   4.110  50.807  1.00  0.00    -0.392 N 
HETATM   14  C18 UNL     1      26.051   2.644  50.621  1.00  0.00     0.183 C 
HETATM   15  C19 UNL     1      24.984   0.513  52.340  1.00  0.00     0.096 C 
HETATM   16  H15 UNL     1      26.099   5.016  50.394  1.00  0.00     0.159 HD
ENDROOT
BRANCH   8  17
HETATM   17  C9  UNL     1      21.341  -0.208  52.405  1.00  0.00    -0.048 A 
HETATM   18  C10 UNL     1      20.577   0.337  51.398  1.00  0.00     0.011 A 
HETATM   19  C11 UNL     1      19.222   0.283  51.441  1.00  0.00     0.043 A 
HETATM   20  C12 UNL     1      18.573  -0.328  52.511  1.00  0.00     0.116 A 
HETATM   21  F1  UNL     1      17.210  -0.341  52.476  1.00  0.00    -0.206 F 
HETATM   22  C13 UNL     1      19.322  -0.889  53.547  1.00  0.00     0.043 A 
HETATM   23  C14 UNL     1      20.717  -0.830  53.495  1.00  0.00     0.011 A 
ENDBRANCH   8  17
BRANCH   1  24
HETATM   24  O1  UNL     1      27.905   2.854  52.264  1.00  0.00    -0.363 OA
HETATM   25  H1  UNL     1      28.595   3.184  51.598  1.00  0.00     0.217 HD
ENDBRANCH   1  24
TORSDOF 2
ENDMDL
MODEL 7
REMARK VINA RESULT:      -8.5      2.762      4.500
REMARK  2 active torsions:
REMARK  status: ('A' for Active; 'I' for Inactive)
REMARK    1  A    between atoms: O1_1  and  C1_2 
REMARK    2  A    between atoms: C8_9  and  C9_10 
ROOT
HETATM    1  C1  UNL     1      26.565  -0.190  53.866  1.00  0.00     0.067 C 
HETATM    2  C2  UNL     1      25.265  -0.389  53.891  1.00  0.00    -0.022 C 
HETATM    3  C3  UNL     1      24.713  -1.006  55.124  1.00  0.00     0.010 C 
HETATM    4  C4  UNL     1      23.501  -1.331  55.580  1.00  0.00     0.000 C 
HETATM    5  C5  UNL     1      22.091  -1.239  55.131  1.00  0.00    -0.004 C 
HETATM    6  C6  UNL     1      21.612  -0.697  53.994  1.00  0.00    -0.026 C 
HETATM    7  C7  UNL     1      21.230  -0.094  52.758  1.00  0.00     0.042 C 
HETATM    8  C8  UNL     1      22.322   0.443  51.852  1.00  0.00     0.070 C 
HETATM    9  C15 UNL     1      23.545   0.859  52.493  1.00  0.00     0.025 C 
HETATM   10  N1  UNL     1      23.983   2.035  52.703  1.00  0.00    -0.267 NA
HETATM   11  C16 UNL     1      25.211   2.335  53.341  1.00  0.00     0.133 C 
HETATM   12  C17 UNL     1      26.466   2.377  53.675  1.00  0.00     0.102 C 
HETATM   13  N2  UNL     1      27.654   1.719  53.166  1.00  0.00    -0.392 N 
HETATM   14  C18 UNL     1      27.070   0.450  52.627  1.00  0.00     0.183 C 
HETATM   15  C19 UNL     1      24.255  -0.362  52.856  1.00  0.00     0.096 C 
HETATM   16  H15 UNL     1      28.571   2.190  53.256  1.00  0.00     0.159 HD
ENDROOT
BRANCH   8  17
HETATM   17  C9  UNL     1      21.604   1.494  51.035  1.00  0.00    -0.048 A 
HETATM   18  C10 UNL     1      20.738   2.513  51.365  1.00  0.00     0.011 A 
HETATM   19  C11 UNL     1      20.239   3.342  50.415  1.00  0.00     0.043 A 
HETATM   20  C12 UNL     1      20.594   3.179  49.078  1.00  0.00     0.116 A 
HETATM   21  F1  UNL     1      20.050   4.056  48.188  1.00  0.00    -0.206 F 
HETATM   22  C13 UNL     1      21.469   2.154  48.714  1.00  0.00     0.043 A 
HETATM   23  C14 UNL     1      21.980   1.305  49.698  1.00  0.00     0.011 A 
ENDBRANCH   8  17
BRANCH   1  24
HETATM   24  O1  UNL     1      27.396  -0.526  54.889  1.00  0.00    -0.363 OA
HETATM   25  H1  UNL     1      28.227   0.002  55.127  1.00  0.00     0.217 HD
ENDBRANCH   1  24
TORSDOF 2
ENDMDL
MODEL 8
REMARK VINA RESULT:      -8.4      4.209      7.276
REMARK  2 active torsions:
REMARK  status: ('A' for Active; 'I' for Inactive)
REMARK    1  A    between atoms: O1_1  and  C1_2 
REMARK    2  A    between atoms: C8_9  and  C9_10 
ROOT
HETATM    1  C1  UNL     1      19.969   0.965  52.218  1.00  0.00     0.067 C 
HETATM    2  C2  UNL     1      21.240   0.889  52.549  1.00  0.00    -0.022 C 
HETATM    3  C3  UNL     1      21.659  -0.324  53.295  1.00  0.00     0.010 C 
HETATM    4  C4  UNL     1      22.807  -0.816  53.768  1.00  0.00     0.000 C 
HETATM    5  C5  UNL     1      24.242  -0.445  53.792  1.00  0.00    -0.004 C 
HETATM    6  C6  UNL     1      24.833   0.628  53.231  1.00  0.00    -0.026 C 
HETATM    7  C7  UNL     1      25.341   1.801  52.593  1.00  0.00     0.042 C 
HETATM    8  C8  UNL     1      24.359   2.721  51.893  1.00  0.00     0.070 C 
HETATM    9  C15 UNL     1      23.149   2.113  51.396  1.00  0.00     0.025 C 
HETATM   10  N1  UNL     1      22.817   1.846  50.197  1.00  0.00    -0.267 NA
HETATM   11  C16 UNL     1      21.591   1.250  49.816  1.00  0.00     0.133 C 
HETATM   12  C17 UNL     1      20.329   0.976  49.668  1.00  0.00     0.102 C 
HETATM   13  N2  UNL     1      19.113   1.587  50.169  1.00  0.00    -0.392 N 
HETATM   14  C18 UNL     1      19.599   2.182  51.454  1.00  0.00     0.183 C 
HETATM   15  C19 UNL     1      22.304   1.869  52.559  1.00  0.00     0.096 C 
HETATM   16  H15 UNL     1      18.242   1.510  49.613  1.00  0.00     0.159 HD
ENDROOT
BRANCH   8  17
HETATM   17  C9  UNL     1      25.221   3.427  50.870  1.00  0.00    -0.048 A 
HETATM   18  C10 UNL     1      26.355   3.061  50.181  1.00  0.00     0.011 A 
HETATM   19  C11 UNL     1      26.933   3.902  49.287  1.00  0.00     0.043 A 
HETATM   20  C12 UNL     1      26.388   5.161  49.048  1.00  0.00     0.116 A 
HETATM   21  F1  UNL     1      27.029   5.942  48.133  1.00  0.00    -0.206 F 
HETATM   22  C13 UNL     1      25.239   5.560  49.732  1.00  0.00     0.043 A 
HETATM   23  C14 UNL     1      24.649   4.688  50.651  1.00  0.00     0.011 A 
ENDBRANCH   8  17
BRANCH   1  24
HETATM   24  O1  UNL     1      19.053   0.009  52.532  1.00  0.00    -0.363 OA
HETATM   25  H1  UNL     1      18.277  -0.236  51.929  1.00  0.00     0.217 HD
ENDBRANCH   1  24
TORSDOF 2
ENDMDL
MODEL 9
REMARK VINA RESULT:      -8.3      4.558      6.933
REMARK  2 active torsions:
REMARK  status: ('A' for Active; 'I' for Inactive)
REMARK    1  A    between atoms: O1_1  and  C1_2 
REMARK    2  A    between atoms: C8_9  and  C9_10 
ROOT
HETATM    1  C1  UNL     1      23.594   7.674  48.322  1.00  0.00     0.067 C 
HETATM    2  C2  UNL     1      24.555   6.785  48.443  1.00  0.00    -0.022 C 
HETATM    3  C3  UNL     1      25.924   7.235  48.087  1.00  0.00     0.010 C 
HETATM    4  C4  UNL     1      27.149   6.705  48.103  1.00  0.00     0.000 C 
HETATM    5  C5  UNL     1      27.795   5.428  48.490  1.00  0.00    -0.004 C 
HETATM    6  C6  UNL     1      27.220   4.335  49.030  1.00  0.00    -0.026 C 
HETATM    7  C7  UNL     1      26.497   3.242  49.596  1.00  0.00     0.042 C 
HETATM    8  C8  UNL     1      24.998   3.387  49.774  1.00  0.00     0.070 C 
HETATM    9  C15 UNL     1      24.496   4.728  49.940  1.00  0.00     0.025 C 
HETATM   10  N1  UNL     1      24.062   5.301  50.991  1.00  0.00    -0.267 NA
HETATM   11  C16 UNL     1      23.582   6.631  51.042  1.00  0.00     0.133 C 
HETATM   12  C17 UNL     1      22.934   7.734  50.811  1.00  0.00     0.102 C 
HETATM   13  N2  UNL     1      21.918   8.108  49.846  1.00  0.00    -0.392 N 
HETATM   14  C18 UNL     1      22.248   7.188  48.712  1.00  0.00     0.183 C 
HETATM   15  C19 UNL     1      24.538   5.349  48.621  1.00  0.00     0.096 C 
HETATM   16  H15 UNL     1      21.235   8.848  50.090  1.00  0.00     0.159 HD
ENDROOT
BRANCH   8  17
HETATM   17  C9  UNL     1      24.690   2.415  50.892  1.00  0.00    -0.048 A 
HETATM   18  C10 UNL     1      23.526   1.827  51.334  1.00  0.00     0.011 A 
HETATM   19  C11 UNL     1      23.534   0.957  52.375  1.00  0.00     0.043 A 
HETATM   20  C12 UNL     1      24.726   0.640  53.023  1.00  0.00     0.116 A 
HETATM   21  F1  UNL     1      24.646  -0.244  54.057  1.00  0.00    -0.206 F 
HETATM   22  C13 UNL     1      25.921   1.221  52.596  1.00  0.00     0.043 A 
HETATM   23  C14 UNL     1      25.906   2.116  51.523  1.00  0.00     0.011 A 
ENDBRANCH   8  17
BRANCH   1  24
HETATM   24  O1  UNL     1      23.799   8.946  47.888  1.00  0.00    -0.363 OA
HETATM   25  H1  UNL     1      24.716   9.316  47.663  1.00  0.00     0.217 HD
ENDBRANCH   1  24
TORSDOF 2
ENDMDL
