MODEL 1
REMARK VINA RESULT:      -7.5      0.000      0.000
REMARK  5 active torsions:
REMARK  status: ('A' for Active; 'I' for Inactive)
REMARK    1  A    between atoms: C2_2  and  N1_3 
REMARK    2  A    between atoms: C2_2  and  C14_19 
REMARK    3  A    between atoms: N1_3  and  C3_4 
REMARK    4  A    between atoms: C7_10  and  C8_11 
REMARK    5  A    between atoms: C11_14  and  O1_15 
ROOT
HETATM    1  C3  UNL     1      24.810  -0.028  53.791  1.00  0.00     0.140 C 
HETATM    2  N2  UNL     1      25.524  -0.880  54.557  1.00  0.00    -0.244 NA
HETATM    3  C4  UNL     1      26.894  -0.170  54.744  1.00  0.00     0.411 C 
HETATM    4  N3  UNL     1      27.054   0.594  53.461  1.00  0.00     0.043 N 
HETATM    5  C5  UNL     1      27.041  -0.497  52.472  1.00  0.00     0.297 A 
HETATM    6  C6  UNL     1      25.810   0.103  52.677  1.00  0.00     0.261 A 
HETATM    7  C7  UNL     1      25.872   1.288  51.697  1.00  0.00     0.166 A 
HETATM    8  N4  UNL     1      27.183   1.696  52.473  1.00  0.00    -0.137 NA
HETATM    9  H15 UNL     1      27.946   1.549  51.855  1.00  0.00     0.154 HD
ENDROOT
BRANCH   1  10
HETATM   10  N1  UNL     1      23.496   0.576  53.777  1.00  0.00    -0.368 N 
HETATM   11  H5  UNL     1      23.440   1.492  54.276  1.00  0.00     0.161 HD
BRANCH  10  12
HETATM   12  C2  UNL     1      22.622  -0.287  53.037  1.00  0.00     0.112 C 
HETATM   13  C1  UNL     1      21.988  -1.395  53.776  1.00  0.00     0.037 C 
BRANCH  12  14
HETATM   14  C14 UNL     1      21.603   0.468  52.277  1.00  0.00    -0.036 A 
HETATM   15  C15 UNL     1      21.326   0.246  50.959  1.00  0.00     0.009 A 
HETATM   16  C16 UNL     1      20.380   0.942  50.236  1.00  0.00     0.001 A 
HETATM   17  C17 UNL     1      19.665   1.936  50.906  1.00  0.00     0.000 A 
HETATM   18  C18 UNL     1      19.872   2.232  52.229  1.00  0.00     0.001 A 
HETATM   19  C19 UNL     1      20.836   1.481  52.859  1.00  0.00     0.009 A 
ENDBRANCH  12  14
ENDBRANCH  10  12
ENDBRANCH   1  10
BRANCH   7  20
HETATM   20  C8  UNL     1      24.934   2.356  51.870  1.00  0.00    -0.036 A 
HETATM   21  C9  UNL     1      24.765   3.134  53.024  1.00  0.00     0.011 A 
HETATM   22  C10 UNL     1      23.817   4.131  53.147  1.00  0.00     0.037 A 
HETATM   23  C11 UNL     1      22.983   4.389  52.084  1.00  0.00     0.065 A 
HETATM   24  C12 UNL     1      23.128   3.628  50.921  1.00  0.00     0.037 A 
HETATM   25  C13 UNL     1      24.082   2.618  50.784  1.00  0.00     0.011 A 
BRANCH  23  26
HETATM   26  O1  UNL     1      22.007   5.375  52.135  1.00  0.00    -0.361 OA
HETATM   27  H12 UNL     1      22.202   6.170  52.732  1.00  0.00     0.217 HD
ENDBRANCH  23  26
ENDBRANCH   7  20
TORSDOF 5
ENDMDL
MODEL 2
REMARK VINA RESULT:      -7.5      2.448      5.164
REMARK  5 active torsions:
REMARK  status: ('A' for Active; 'I' for Inactive)
REMARK    1  A    between atoms: C2_2  and  N1_3 
REMARK    2  A    between atoms: C2_2  and  C14_19 
REMARK    3  A    between atoms: N1_3  and  C3_4 
REMARK    4  A    between atoms: C7_10  and  C8_11 
REMARK    5  A    between atoms: C11_14  and  O1_15 
ROOT
HETATM    1  C3  UNL     1      22.586   1.093  51.617  1.00  0.00     0.140 C 
HETATM    2  N2  UNL     1      21.240   1.198  51.642  1.00  0.00    -0.244 NA
HETATM    3  C4  UNL     1      20.887   1.217  53.156  1.00  0.00     0.411 C 
HETATM    4  N3  UNL     1      21.960   0.360  53.762  1.00  0.00     0.043 N 
HETATM    5  C5  UNL     1      21.726  -0.922  53.077  1.00  0.00     0.297 A 
HETATM    6  C6  UNL     1      22.693  -0.128  52.486  1.00  0.00     0.261 A 
HETATM    7  C7  UNL     1      23.952  -0.527  53.277  1.00  0.00     0.166 A 
HETATM    8  N4  UNL     1      23.131  -0.100  54.553  1.00  0.00    -0.137 NA
HETATM    9  H15 UNL     1      22.929  -0.928  55.062  1.00  0.00     0.154 HD
ENDROOT
BRANCH   1  10
HETATM   10  N1  UNL     1      23.711   1.725  50.963  1.00  0.00    -0.368 N 
HETATM   11  H5  UNL     1      24.433   1.058  50.612  1.00  0.00     0.161 HD
BRANCH  10  12
HETATM   12  C2  UNL     1      23.487   3.142  50.975  1.00  0.00     0.112 C 
HETATM   13  C1  UNL     1      23.238   3.772  52.285  1.00  0.00     0.037 C 
BRANCH  12  14
HETATM   14  C14 UNL     1      24.541   3.880  50.246  1.00  0.00    -0.036 A 
HETATM   15  C15 UNL     1      24.387   5.153  49.780  1.00  0.00     0.009 A 
HETATM   16  C16 UNL     1      25.359   5.854  49.097  1.00  0.00     0.001 A 
HETATM   17  C17 UNL     1      26.577   5.210  48.877  1.00  0.00     0.000 A 
HETATM   18  C18 UNL     1      26.828   3.932  49.307  1.00  0.00     0.001 A 
HETATM   19  C19 UNL     1      25.794   3.321  49.977  1.00  0.00     0.009 A 
ENDBRANCH  12  14
ENDBRANCH  10  12
ENDBRANCH   1  10
BRANCH   7  20
HETATM   20  C8  UNL     1      25.093   0.334  53.205  1.00  0.00    -0.036 A 
HETATM   21  C9  UNL     1      25.300   1.502  53.953  1.00  0.00     0.011 A 
HETATM   22  C10 UNL     1      26.409   2.316  53.817  1.00  0.00     0.037 A 
HETATM   23  C11 UNL     1      27.375   1.974  52.900  1.00  0.00     0.065 A 
HETATM   24  C12 UNL     1      27.195   0.814  52.141  1.00  0.00     0.037 A 
HETATM   25  C13 UNL     1      26.081  -0.016  52.269  1.00  0.00     0.011 A 
BRANCH  23  26
HETATM   26  O1  UNL     1      28.515   2.743  52.709  1.00  0.00    -0.361 OA
HETATM   27  H12 UNL     1      28.709   3.442  53.416  1.00  0.00     0.217 HD
ENDBRANCH  23  26
ENDBRANCH   7  20
TORSDOF 5
ENDMDL
MODEL 3
REMARK VINA RESULT:      -7.4      2.756      6.173
REMARK  5 active torsions:
REMARK  status: ('A' for Active; 'I' for Inactive)
REMARK    1  A    between atoms: C2_2  and  N1_3 
REMARK    2  A    between atoms: C2_2  and  C14_19 
REMARK    3  A    between atoms: N1_3  and  C3_4 
REMARK    4  A    between atoms: C7_10  and  C8_11 
REMARK    5  A    between atoms: C11_14  and  O1_15 
ROOT
HETATM    1  C3  UNL     1      21.111   2.825  51.928  1.00  0.00     0.140 C 
HETATM    2  N2  UNL     1      20.237   3.777  51.538  1.00  0.00    -0.244 NA
HETATM    3  C4  UNL     1      18.847   3.090  51.649  1.00  0.00     0.411 C 
HETATM    4  N3  UNL     1      19.158   1.653  51.342  1.00  0.00     0.043 N 
HETATM    5  C5  UNL     1      19.699   1.761  49.977  1.00  0.00     0.297 A 
HETATM    6  C6  UNL     1      20.660   1.756  50.973  1.00  0.00     0.261 A 
HETATM    7  C7  UNL     1      20.888   0.248  51.181  1.00  0.00     0.166 A 
HETATM    8  N4  UNL     1      19.338   0.183  51.463  1.00  0.00    -0.137 NA
HETATM    9  H15 UNL     1      18.923  -0.302  50.702  1.00  0.00     0.154 HD
ENDROOT
BRANCH   1  10
HETATM   10  N1  UNL     1      22.239   2.690  52.824  1.00  0.00    -0.368 N 
HETATM   11  H5  UNL     1      22.062   2.069  53.645  1.00  0.00     0.161 HD
BRANCH  10  12
HETATM   12  C2  UNL     1      23.320   3.466  52.290  1.00  0.00     0.112 C 
HETATM   13  C1  UNL     1      23.455   4.852  52.773  1.00  0.00     0.037 C 
BRANCH  12  14
HETATM   14  C14 UNL     1      24.616   2.761  52.394  1.00  0.00    -0.036 A 
HETATM   15  C15 UNL     1      25.320   2.313  51.314  1.00  0.00     0.009 A 
HETATM   16  C16 UNL     1      26.530   1.654  51.393  1.00  0.00     0.001 A 
HETATM   17  C17 UNL     1      27.058   1.437  52.667  1.00  0.00     0.000 A 
HETATM   18  C18 UNL     1      26.426   1.851  53.811  1.00  0.00     0.001 A 
HETATM   19  C19 UNL     1      25.227   2.498  53.623  1.00  0.00     0.009 A 
ENDBRANCH  12  14
ENDBRANCH  10  12
ENDBRANCH   1  10
BRANCH   7  20
HETATM   20  C8  UNL     1      21.549  -0.174  52.379  1.00  0.00    -0.036 A 
HETATM   21  C9  UNL     1      22.932  -0.317  52.558  1.00  0.00     0.011 A 
HETATM   22  C10 UNL     1      23.513  -0.763  53.729  1.00  0.00     0.037 A 
HETATM   23  C11 UNL     1      22.703  -1.089  54.791  1.00  0.00     0.065 A 
HETATM   24  C12 UNL     1      21.319  -0.956  54.641  1.00  0.00     0.037 A 
HETATM   25  C13 UNL     1      20.719  -0.507  53.464  1.00  0.00     0.011 A 
BRANCH  23  26
HETATM   26  O1  UNL     1      23.216  -1.544  55.998  1.00  0.00    -0.361 OA
HETATM   27  H12 UNL     1      24.143  -1.954  55.967  1.00  0.00     0.217 HD
ENDBRANCH  23  26
ENDBRANCH   7  20
TORSDOF 5
ENDMDL
MODEL 4
REMARK VINA RESULT:      -7.2      3.451      6.265
REMARK  5 active torsions:
REMARK  status: ('A' for Active; 'I' for Inactive)
REMARK    1  A    between atoms: C2_2  and  N1_3 
REMARK    2  A    between atoms: C2_2  and  C14_19 
REMARK    3  A    between atoms: N1_3  and  C3_4 
REMARK    4  A    between atoms: C7_10  and  C8_11 
REMARK    5  A    between atoms: C11_14  and  O1_15 
ROOT
HETATM    1  C3  UNL     1      23.147   3.865  51.151  1.00  0.00     0.140 C 
HETATM    2  N2  UNL     1      21.880   4.316  51.026  1.00  0.00    -0.244 NA
HETATM    3  C4  UNL     1      21.073   3.480  52.058  1.00  0.00     0.411 C 
HETATM    4  N3  UNL     1      21.805   2.169  52.074  1.00  0.00     0.043 N 
HETATM    5  C5  UNL     1      21.663   1.743  50.671  1.00  0.00     0.297 A 
HETATM    6  C6  UNL     1      22.846   2.407  50.949  1.00  0.00     0.261 A 
HETATM    7  C7  UNL     1      23.743   1.256  51.439  1.00  0.00     0.166 A 
HETATM    8  N4  UNL     1      22.613   1.000  52.508  1.00  0.00    -0.137 NA
HETATM    9  H15 UNL     1      22.175   0.141  52.270  1.00  0.00     0.154 HD
ENDROOT
BRANCH   1  10
HETATM   10  N1  UNL     1      24.480   4.406  51.299  1.00  0.00    -0.368 N 
HETATM   11  H5  UNL     1      25.113   3.829  51.897  1.00  0.00     0.161 HD
BRANCH  10  12
HETATM   12  C2  UNL     1      24.551   5.619  50.537  1.00  0.00     0.112 C 
HETATM   13  C1  UNL     1      24.328   6.883  51.262  1.00  0.00     0.037 C 
BRANCH  12  14
HETATM   14  C14 UNL     1      25.791   5.702  49.735  1.00  0.00    -0.036 A 
HETATM   15  C15 UNL     1      26.540   4.615  49.387  1.00  0.00     0.009 A 
HETATM   16  C16 UNL     1      27.699   4.676  48.641  1.00  0.00     0.001 A 
HETATM   17  C17 UNL     1      28.123   5.937  48.219  1.00  0.00     0.000 A 
HETATM   18  C18 UNL     1      27.438   7.087  48.518  1.00  0.00     0.001 A 
HETATM   19  C19 UNL     1      26.297   6.918  49.266  1.00  0.00     0.009 A 
ENDBRANCH  12  14
ENDBRANCH  10  12
ENDBRANCH   1  10
BRANCH   7  20
HETATM   20  C8  UNL     1      24.933   1.591  52.161  1.00  0.00    -0.036 A 
HETATM   21  C9  UNL     1      25.015   1.915  53.523  1.00  0.00     0.011 A 
HETATM   22  C10 UNL     1      26.190   2.264  54.160  1.00  0.00     0.037 A 
HETATM   23  C11 UNL     1      27.356   2.300  53.431  1.00  0.00     0.065 A 
HETATM   24  C12 UNL     1      27.304   1.982  52.071  1.00  0.00     0.037 A 
HETATM   25  C13 UNL     1      26.125   1.627  51.416  1.00  0.00     0.011 A 
BRANCH  23  26
HETATM   26  O1  UNL     1      28.574   2.643  54.004  1.00  0.00    -0.361 OA
HETATM   27  H12 UNL     1      28.847   3.616  53.931  1.00  0.00     0.217 HD
ENDBRANCH  23  26
ENDBRANCH   7  20
TORSDOF 5
ENDMDL
MODEL 5
REMARK VINA RESULT:      -7.2      2.582      6.140
REMARK  5 active torsions:
REMARK  status: ('A' for Active; 'I' for Inactive)
REMARK    1  A    between atoms: C2_2  and  N1_3 
REMARK    2  A    between atoms: C2_2  and  C14_19 
REMARK    3  A    between atoms: N1_3  and  C3_4 
REMARK    4  A    between atoms: C7_10  and  C8_11 
REMARK    5  A    between atoms: C11_14  and  O1_15 
ROOT
HETATM    1  C3  UNL     1      23.131   3.088  52.102  1.00  0.00     0.140 C 
HETATM    2  N2  UNL     1      23.126   4.406  51.807  1.00  0.00    -0.244 NA
HETATM    3  C4  UNL     1      21.691   4.875  52.177  1.00  0.00     0.411 C 
HETATM    4  N3  UNL     1      20.858   3.656  51.900  1.00  0.00     0.043 N 
HETATM    5  C5  UNL     1      21.105   3.460  50.462  1.00  0.00     0.297 A 
HETATM    6  C6  UNL     1      21.925   2.711  51.289  1.00  0.00     0.261 A 
HETATM    7  C7  UNL     1      21.063   1.461  51.538  1.00  0.00     0.166 A 
HETATM    8  N4  UNL     1      19.976   2.473  52.068  1.00  0.00    -0.137 NA
HETATM    9  H15 UNL     1      19.231   2.473  51.411  1.00  0.00     0.154 HD
ENDROOT
BRANCH   1  10
HETATM   10  N1  UNL     1      23.962   2.139  52.810  1.00  0.00    -0.368 N 
HETATM   11  H5  UNL     1      23.673   1.972  53.800  1.00  0.00     0.161 HD
BRANCH  10  12
HETATM   12  C2  UNL     1      24.969   1.673  51.902  1.00  0.00     0.112 C 
HETATM   13  C1  UNL     1      25.543   2.660  50.970  1.00  0.00     0.037 C 
BRANCH  12  14
HETATM   14  C14 UNL     1      26.049   0.939  52.597  1.00  0.00    -0.036 A 
HETATM   15  C15 UNL     1      26.768   1.457  53.635  1.00  0.00     0.009 A 
HETATM   16  C16 UNL     1      27.779   0.786  54.292  1.00  0.00     0.001 A 
HETATM   17  C17 UNL     1      28.077  -0.506  53.859  1.00  0.00     0.000 A 
HETATM   18  C18 UNL     1      27.410  -1.113  52.826  1.00  0.00     0.001 A 
HETATM   19  C19 UNL     1      26.421  -0.360  52.237  1.00  0.00     0.009 A 
ENDBRANCH  12  14
ENDBRANCH  10  12
ENDBRANCH   1  10
BRANCH   7  20
HETATM   20  C8  UNL     1      21.412   0.609  52.634  1.00  0.00    -0.036 A 
HETATM   21  C9  UNL     1      20.976   0.742  53.960  1.00  0.00     0.011 A 
HETATM   22  C10 UNL     1      21.374  -0.093  54.987  1.00  0.00     0.037 A 
HETATM   23  C11 UNL     1      22.248  -1.117  54.709  1.00  0.00     0.065 A 
HETATM   24  C12 UNL     1      22.700  -1.272  53.395  1.00  0.00     0.037 A 
HETATM   25  C13 UNL     1      22.305  -0.438  52.349  1.00  0.00     0.011 A 
BRANCH  23  26
HETATM   26  O1  UNL     1      22.693  -1.994  55.690  1.00  0.00    -0.361 OA
HETATM   27  H12 UNL     1      23.386  -1.633  56.335  1.00  0.00     0.217 HD
ENDBRANCH  23  26
ENDBRANCH   7  20
TORSDOF 5
ENDMDL
MODEL 6
REMARK VINA RESULT:      -7.1      2.795      4.915
REMARK  5 active torsions:
REMARK  status: ('A' for Active; 'I' for Inactive)
REMARK    1  A    between atoms: C2_2  and  N1_3 
REMARK    2  A    between atoms: C2_2  and  C14_19 
REMARK    3  A    between atoms: N1_3  and  C3_4 
REMARK    4  A    between atoms: C7_10  and  C8_11 
REMARK    5  A    between atoms: C11_14  and  O1_15 
ROOT
HETATM    1  C3  UNL     1      22.220   3.398  50.318  1.00  0.00     0.140 C 
HETATM    2  N2  UNL     1      21.551   4.157  49.424  1.00  0.00    -0.244 NA
HETATM    3  C4  UNL     1      22.583   5.235  48.989  1.00  0.00     0.411 C 
HETATM    4  N3  UNL     1      23.414   5.423  50.226  1.00  0.00     0.043 N 
HETATM    5  C5  UNL     1      22.397   5.877  51.190  1.00  0.00     0.297 A 
HETATM    6  C6  UNL     1      22.650   4.516  51.226  1.00  0.00     0.261 A 
HETATM    7  C7  UNL     1      23.849   4.446  52.188  1.00  0.00     0.166 A 
HETATM    8  N4  UNL     1      24.551   5.438  51.183  1.00  0.00    -0.137 NA
HETATM    9  H15 UNL     1      24.631   6.314  51.645  1.00  0.00     0.154 HD
ENDROOT
BRANCH   1  10
HETATM   10  N1  UNL     1      22.464   1.997  50.584  1.00  0.00    -0.368 N 
HETATM   11  H5  UNL     1      23.454   1.699  50.438  1.00  0.00     0.161 HD
BRANCH  10  12
HETATM   12  C2  UNL     1      21.226   1.408  51.006  1.00  0.00     0.112 C 
HETATM   13  C1  UNL     1      20.481   0.622  50.006  1.00  0.00     0.037 C 
BRANCH  12  14
HETATM   14  C14 UNL     1      21.375   0.632  52.256  1.00  0.00    -0.036 A 
HETATM   15  C15 UNL     1      22.118  -0.509  52.353  1.00  0.00     0.009 A 
HETATM   16  C16 UNL     1      22.266  -1.244  53.511  1.00  0.00     0.001 A 
HETATM   17  C17 UNL     1      21.609  -0.781  54.652  1.00  0.00     0.000 A 
HETATM   18  C18 UNL     1      20.841   0.355  54.654  1.00  0.00     0.001 A 
HETATM   19  C19 UNL     1      20.758   1.015  53.451  1.00  0.00     0.009 A 
ENDBRANCH  12  14
ENDBRANCH  10  12
ENDBRANCH   1  10
BRANCH   7  20
HETATM   20  C8  UNL     1      24.630   3.246  52.204  1.00  0.00    -0.036 A 
HETATM   21  C9  UNL     1      25.589   2.866  51.254  1.00  0.00     0.011 A 
HETATM   22  C10 UNL     1      26.289   1.676  51.303  1.00  0.00     0.037 A 
HETATM   23  C11 UNL     1      26.045   0.803  52.336  1.00  0.00     0.065 A 
HETATM   24  C12 UNL     1      25.093   1.155  53.298  1.00  0.00     0.037 A 
HETATM   25  C13 UNL     1      24.379   2.354  53.261  1.00  0.00     0.011 A 
BRANCH  23  26
HETATM   26  O1  UNL     1      26.710  -0.411  52.450  1.00  0.00    -0.361 OA
HETATM   27  H12 UNL     1      27.691  -0.363  52.698  1.00  0.00     0.217 HD
ENDBRANCH  23  26
ENDBRANCH   7  20
TORSDOF 5
ENDMDL
MODEL 7
REMARK VINA RESULT:      -6.9      3.017      6.029
REMARK  5 active torsions:
REMARK  status: ('A' for Active; 'I' for Inactive)
REMARK    1  A    between atoms: C2_2  and  N1_3 
REMARK    2  A    between atoms: C2_2  and  C14_19 
REMARK    3  A    between atoms: N1_3  and  C3_4 
REMARK    4  A    between atoms: C7_10  and  C8_11 
REMARK    5  A    between atoms: C11_14  and  O1_15 
ROOT
HETATM    1  C3  UNL     1      22.129   3.598  50.134  1.00  0.00     0.140 C 
HETATM    2  N2  UNL     1      22.009   4.588  49.225  1.00  0.00    -0.244 NA
HETATM    3  C4  UNL     1      20.758   4.193  48.390  1.00  0.00     0.411 C 
HETATM    4  N3  UNL     1      20.796   2.692  48.421  1.00  0.00     0.043 N 
HETATM    5  C5  UNL     1      22.093   2.423  47.778  1.00  0.00     0.297 A 
HETATM    6  C6  UNL     1      22.138   2.453  49.161  1.00  0.00     0.261 A 
HETATM    7  C7  UNL     1      21.764   1.003  49.517  1.00  0.00     0.166 A 
HETATM    8  N4  UNL     1      20.455   1.269  48.680  1.00  0.00    -0.137 NA
HETATM    9  H15 UNL     1      20.519   0.719  47.855  1.00  0.00     0.154 HD
ENDROOT
BRANCH   1  10
HETATM   10  N1  UNL     1      22.322   3.452  51.560  1.00  0.00    -0.368 N 
HETATM   11  H5  UNL     1      21.553   2.942  52.047  1.00  0.00     0.161 HD
BRANCH  10  12
HETATM   12  C2  UNL     1      23.575   4.062  51.898  1.00  0.00     0.112 C 
HETATM   13  C1  UNL     1      23.567   5.057  52.987  1.00  0.00     0.037 C 
BRANCH  12  14
HETATM   14  C14 UNL     1      24.638   3.060  52.131  1.00  0.00    -0.036 A 
HETATM   15  C15 UNL     1      25.436   2.562  51.142  1.00  0.00     0.009 A 
HETATM   16  C16 UNL     1      26.430   1.627  51.343  1.00  0.00     0.001 A 
HETATM   17  C17 UNL     1      26.625   1.169  52.646  1.00  0.00     0.000 A 
HETATM   18  C18 UNL     1      25.875   1.610  53.706  1.00  0.00     0.001 A 
HETATM   19  C19 UNL     1      24.910   2.541  53.400  1.00  0.00     0.009 A 
ENDBRANCH  12  14
ENDBRANCH  10  12
ENDBRANCH   1  10
BRANCH   7  20
HETATM   20  C8  UNL     1      21.352   0.724  50.860  1.00  0.00    -0.036 A 
HETATM   21  C9  UNL     1      20.047   0.818  51.364  1.00  0.00     0.011 A 
HETATM   22  C10 UNL     1      19.713   0.569  52.682  1.00  0.00     0.037 A 
HETATM   23  C11 UNL     1      20.706   0.207  53.562  1.00  0.00     0.065 A 
HETATM   24  C12 UNL     1      22.016   0.107  53.086  1.00  0.00     0.037 A 
HETATM   25  C13 UNL     1      22.367   0.355  51.759  1.00  0.00     0.011 A 
BRANCH  23  26
HETATM   26  O1  UNL     1      20.445  -0.057  54.900  1.00  0.00    -0.361 OA
HETATM   27  H12 UNL     1      19.774   0.551  55.356  1.00  0.00     0.217 HD
ENDBRANCH  23  26
ENDBRANCH   7  20
TORSDOF 5
ENDMDL
MODEL 8
REMARK VINA RESULT:      -6.8      8.244      9.890
REMARK  5 active torsions:
REMARK  status: ('A' for Active; 'I' for Inactive)
REMARK    1  A    between atoms: C2_2  and  N1_3 
REMARK    2  A    between atoms: C2_2  and  C14_19 
REMARK    3  A    between atoms: N1_3  and  C3_4 
REMARK    4  A    between atoms: C7_10  and  C8_11 
REMARK    5  A    between atoms: C11_14  and  O1_15 
ROOT
HETATM    1  C3  UNL     1      30.620   6.152  48.375  1.00  0.00     0.140 C 
HETATM    2  N2  UNL     1      31.347   5.031  48.573  1.00  0.00    -0.244 NA
HETATM    3  C4  UNL     1      32.822   5.517  48.519  1.00  0.00     0.411 C 
HETATM    4  N3  UNL     1      32.763   6.663  47.552  1.00  0.00     0.043 N 
HETATM    5  C5  UNL     1      32.278   5.989  46.336  1.00  0.00     0.297 A 
HETATM    6  C6  UNL     1      31.283   6.579  47.096  1.00  0.00     0.261 A 
HETATM    7  C7  UNL     1      31.293   8.022  46.559  1.00  0.00     0.166 A 
HETATM    8  N4  UNL     1      32.818   8.026  46.961  1.00  0.00    -0.137 NA
HETATM    9  H15 UNL     1      33.342   8.040  46.117  1.00  0.00     0.154 HD
ENDROOT
BRANCH   1  10
HETATM   10  N1  UNL     1      29.488   6.829  48.968  1.00  0.00    -0.368 N 
HETATM   11  H5  UNL     1      29.737   7.480  49.745  1.00  0.00     0.161 HD
BRANCH  10  12
HETATM   12  C2  UNL     1      28.308   6.402  48.274  1.00  0.00     0.112 C 
HETATM   13  C1  UNL     1      27.805   5.049  48.572  1.00  0.00     0.037 C 
BRANCH  12  14
HETATM   14  C14 UNL     1      27.211   7.389  48.380  1.00  0.00    -0.036 A 
HETATM   15  C15 UNL     1      26.349   7.672  47.360  1.00  0.00     0.009 A 
HETATM   16  C16 UNL     1      25.322   8.590  47.442  1.00  0.00     0.001 A 
HETATM   17  C17 UNL     1      25.164   9.266  48.652  1.00  0.00     0.000 A 
HETATM   18  C18 UNL     1      25.978   9.050  49.734  1.00  0.00     0.001 A 
HETATM   19  C19 UNL     1      26.970   8.116  49.549  1.00  0.00     0.009 A 
ENDBRANCH  12  14
ENDBRANCH  10  12
ENDBRANCH   1  10
BRANCH   7  20
HETATM   20  C8  UNL     1      30.652   9.036  47.341  1.00  0.00    -0.036 A 
HETATM   21  C9  UNL     1      31.059   9.492  48.603  1.00  0.00     0.011 A 
HETATM   22  C10 UNL     1      30.379  10.452  49.329  1.00  0.00     0.037 A 
HETATM   23  C11 UNL     1      29.237  11.002  48.797  1.00  0.00     0.065 A 
HETATM   24  C12 UNL     1      28.808  10.566  47.539  1.00  0.00     0.037 A 
HETATM   25  C13 UNL     1      29.485   9.598  46.796  1.00  0.00     0.011 A 
BRANCH  23  26
HETATM   26  O1  UNL     1      28.503  11.971  49.468  1.00  0.00    -0.361 OA
HETATM   27  H12 UNL     1      27.518  12.030  49.234  1.00  0.00     0.217 HD
ENDBRANCH  23  26
ENDBRANCH   7  20
TORSDOF 5
ENDMDL
MODEL 9
REMARK VINA RESULT:      -6.7      3.545      5.963
REMARK  5 active torsions:
REMARK  status: ('A' for Active; 'I' for Inactive)
REMARK    1  A    between atoms: C2_2  and  N1_3 
REMARK    2  A    between atoms: C2_2  and  C14_19 
REMARK    3  A    between atoms: N1_3  and  C3_4 
REMARK    4  A    between atoms: C7_10  and  C8_11 
REMARK    5  A    between atoms: C11_14  and  O1_15 
ROOT
HETATM    1  C3  UNL     1      25.985   3.167  50.547  1.00  0.00     0.140 C 
HETATM    2  N2  UNL     1      26.915   2.528  51.289  1.00  0.00    -0.244 NA
HETATM    3  C4  UNL     1      26.230   1.191  51.692  1.00  0.00     0.411 C 
HETATM    4  N3  UNL     1      24.781   1.572  51.788  1.00  0.00     0.043 N 
HETATM    5  C5  UNL     1      24.823   2.601  52.841  1.00  0.00     0.297 A 
HETATM    6  C6  UNL     1      24.869   3.102  51.552  1.00  0.00     0.261 A 
HETATM    7  C7  UNL     1      23.374   3.206  51.202  1.00  0.00     0.166 A 
HETATM    8  N4  UNL     1      23.319   1.667  51.538  1.00  0.00    -0.137 NA
HETATM    9  H15 UNL     1      22.796   1.570  52.377  1.00  0.00     0.154 HD
ENDROOT
BRANCH   1  10
HETATM   10  N1  UNL     1      25.897   3.858  49.279  1.00  0.00    -0.368 N 
HETATM   11  H5  UNL     1      25.300   3.379  48.570  1.00  0.00     0.161 HD
BRANCH  10  12
HETATM   12  C2  UNL     1      26.674   5.059  49.379  1.00  0.00     0.112 C 
HETATM   13  C1  UNL     1      27.847   5.176  48.493  1.00  0.00     0.037 C 
BRANCH  12  14
HETATM   14  C14 UNL     1      25.838   6.275  49.281  1.00  0.00    -0.036 A 
HETATM   15  C15 UNL     1      25.523   6.882  48.100  1.00  0.00     0.009 A 
HETATM   16  C16 UNL     1      24.745   8.016  47.992  1.00  0.00     0.001 A 
HETATM   17  C17 UNL     1      24.253   8.570  49.175  1.00  0.00     0.000 A 
HETATM   18  C18 UNL     1      24.514   8.032  50.409  1.00  0.00     0.001 A 
HETATM   19  C19 UNL     1      25.299   6.903  50.408  1.00  0.00     0.009 A 
ENDBRANCH  12  14
ENDBRANCH  10  12
ENDBRANCH   1  10
BRANCH   7  20
HETATM   20  C8  UNL     1      23.013   3.346  49.823  1.00  0.00    -0.036 A 
HETATM   21  C9  UNL     1      22.803   4.552  49.138  1.00  0.00     0.011 A 
HETATM   22  C10 UNL     1      22.421   4.625  47.812  1.00  0.00     0.037 A 
HETATM   23  C11 UNL     1      22.232   3.458  47.109  1.00  0.00     0.065 A 
HETATM   24  C12 UNL     1      22.435   2.242  47.768  1.00  0.00     0.037 A 
HETATM   25  C13 UNL     1      22.821   2.153  49.105  1.00  0.00     0.011 A 
BRANCH  23  26
HETATM   26  O1  UNL     1      21.848   3.454  45.775  1.00  0.00    -0.361 OA
HETATM   27  H12 UNL     1      21.136   4.126  45.511  1.00  0.00     0.217 HD
ENDBRANCH  23  26
ENDBRANCH   7  20
TORSDOF 5
ENDMDL
