MODEL 1
REMARK VINA RESULT:      -6.8      0.000      0.000
REMARK  7 active torsions:
REMARK  status: ('A' for Active; 'I' for Inactive)
REMARK    1  A    between atoms: C3_3  and  C4_4 
REMARK    2  A    between atoms: C5_5  and  C6_6 
REMARK    3  A    between atoms: C6_6  and  N1_7 
REMARK    4  A    between atoms: N1_7  and  C8_9 
REMARK    5  A    between atoms: C10_12  and  C11_13 
REMARK    6  A    between atoms: C11_13  and  O3_17 
REMARK    7  A    between atoms: C12_14  and  O2_15 
ROOT
HETATM    1  C8  UNL     1      23.135   2.993  51.320  1.00  0.00     0.147 C 
HETATM    2  C9  UNL     1      24.413   2.641  51.330  1.00  0.00     0.192 C 
HETATM    3  O1  UNL     1      25.158   1.734  52.111  1.00  0.00    -0.316 OA
HETATM    4  C10 UNL     1      24.823   0.616  52.898  1.00  0.00     0.106 C 
HETATM    5  C15 UNL     1      23.705  -0.036  53.159  1.00  0.00     0.018 C 
HETATM    6  C16 UNL     1      22.275   0.024  52.808  1.00  0.00     0.077 C 
HETATM    7  C17 UNL     1      21.745   1.406  52.679  1.00  0.00     0.096 C 
HETATM    8  N2  UNL     1      22.027   2.553  52.134  1.00  0.00    -0.245 NA
ENDROOT
BRANCH   1   9
HETATM    9  N1  UNL     1      23.021   3.954  50.288  1.00  0.00    -0.365 N 
HETATM   10  C7  UNL     1      21.955   4.897  50.172  1.00  0.00     0.151 C 
BRANCH   9  11
HETATM   11  C6  UNL     1      24.073   3.972  49.282  1.00  0.00     0.151 C 
BRANCH  11  12
HETATM   12  C5  UNL     1      24.636   5.305  49.052  1.00  0.00    -0.007 C 
HETATM   13  C4  UNL     1      25.897   5.664  48.891  1.00  0.00    -0.003 C 
BRANCH  13  14
HETATM   14  C3  UNL     1      27.026   4.748  48.911  1.00  0.00    -0.005 C 
HETATM   15  C2  UNL     1      28.238   5.074  48.494  1.00  0.00    -0.031 C 
HETATM   16  C1  UNL     1      28.569   6.418  47.961  1.00  0.00     0.036 C 
ENDBRANCH  13  14
ENDBRANCH  11  12
ENDBRANCH   9  11
ENDBRANCH   1   9
BRANCH   4  17
HETATM   17  C11 UNL     1      25.943   0.029  53.587  1.00  0.00     0.123 C 
HETATM   18  C12 UNL     1      26.740   0.824  54.271  1.00  0.00     0.173 C 
BRANCH  18  19
HETATM   19  O2  UNL     1      27.880   0.660  55.042  1.00  0.00    -0.365 OA
HETATM   20  C13 UNL     1      29.156   0.629  54.385  1.00  0.00     0.209 C 
ENDBRANCH  18  19
BRANCH  17  21
HETATM   21  O3  UNL     1      26.204  -1.306  53.558  1.00  0.00    -0.351 OA
HETATM   22  C14 UNL     1      27.016  -1.974  52.642  1.00  0.00     0.210 C 
ENDBRANCH  17  21
ENDBRANCH   4  17
TORSDOF 7
ENDMDL
MODEL 2
REMARK VINA RESULT:      -6.8      1.470      2.081
REMARK  7 active torsions:
REMARK  status: ('A' for Active; 'I' for Inactive)
REMARK    1  A    between atoms: C3_3  and  C4_4 
REMARK    2  A    between atoms: C5_5  and  C6_6 
REMARK    3  A    between atoms: C6_6  and  N1_7 
REMARK    4  A    between atoms: N1_7  and  C8_9 
REMARK    5  A    between atoms: C10_12  and  C11_13 
REMARK    6  A    between atoms: C11_13  and  O3_17 
REMARK    7  A    between atoms: C12_14  and  O2_15 
ROOT
HETATM    1  C8  UNL     1      25.291   3.561  50.833  1.00  0.00     0.147 C 
HETATM    2  C9  UNL     1      26.344   2.756  50.826  1.00  0.00     0.192 C 
HETATM    3  O1  UNL     1      26.749   1.690  51.655  1.00  0.00    -0.316 OA
HETATM    4  C10 UNL     1      26.075   0.835  52.548  1.00  0.00     0.106 C 
HETATM    5  C15 UNL     1      24.815   0.670  52.906  1.00  0.00     0.018 C 
HETATM    6  C16 UNL     1      23.490   1.240  52.603  1.00  0.00     0.077 C 
HETATM    7  C17 UNL     1      23.504   2.707  52.375  1.00  0.00     0.096 C 
HETATM    8  N2  UNL     1      24.156   3.625  51.723  1.00  0.00    -0.245 NA
ENDROOT
BRANCH   1   9
HETATM    9  N1  UNL     1      25.474   4.423  49.727  1.00  0.00    -0.365 N 
HETATM   10  C7  UNL     1      24.447   5.230  49.147  1.00  0.00     0.151 C 
BRANCH   9  11
HETATM   11  C6  UNL     1      26.809   4.486  49.150  1.00  0.00     0.151 C 
BRANCH  11  12
HETATM   12  C5  UNL     1      27.135   5.792  48.573  1.00  0.00    -0.007 C 
HETATM   13  C4  UNL     1      28.295   6.249  48.139  1.00  0.00    -0.003 C 
BRANCH  13  14
HETATM   14  C3  UNL     1      29.538   5.494  48.152  1.00  0.00    -0.005 C 
HETATM   15  C2  UNL     1      30.674   5.949  47.652  1.00  0.00    -0.031 C 
HETATM   16  C1  UNL     1      30.795   7.287  47.022  1.00  0.00     0.036 C 
ENDBRANCH  13  14
ENDBRANCH  11  12
ENDBRANCH   9  11
ENDBRANCH   1   9
BRANCH   4  17
HETATM   17  C11 UNL     1      26.940  -0.084  53.243  1.00  0.00     0.123 C 
HETATM   18  C12 UNL     1      28.040   0.390  53.791  1.00  0.00     0.173 C 
BRANCH  18  19
HETATM   19  O2  UNL     1      29.094  -0.140  54.518  1.00  0.00    -0.365 OA
HETATM   20  C13 UNL     1      30.122  -0.854  53.817  1.00  0.00     0.209 C 
ENDBRANCH  18  19
BRANCH  17  21
HETATM   21  O3  UNL     1      26.663  -1.410  53.355  1.00  0.00    -0.351 OA
HETATM   22  C14 UNL     1      27.014  -2.412  52.449  1.00  0.00     0.210 C 
ENDBRANCH  17  21
ENDBRANCH   4  17
TORSDOF 7
ENDMDL
MODEL 3
REMARK VINA RESULT:      -6.7      2.054      3.194
REMARK  7 active torsions:
REMARK  status: ('A' for Active; 'I' for Inactive)
REMARK    1  A    between atoms: C3_3  and  C4_4 
REMARK    2  A    between atoms: C5_5  and  C6_6 
REMARK    3  A    between atoms: C6_6  and  N1_7 
REMARK    4  A    between atoms: N1_7  and  C8_9 
REMARK    5  A    between atoms: C10_12  and  C11_13 
REMARK    6  A    between atoms: C11_13  and  O3_17 
REMARK    7  A    between atoms: C12_14  and  O2_15 
ROOT
HETATM    1  C8  UNL     1      22.733   2.951  51.777  1.00  0.00     0.147 C 
HETATM    2  C9  UNL     1      24.043   2.754  51.779  1.00  0.00     0.192 C 
HETATM    3  O1  UNL     1      24.880   1.833  52.442  1.00  0.00    -0.316 OA
HETATM    4  C10 UNL     1      24.670   0.577  53.041  1.00  0.00     0.106 C 
HETATM    5  C15 UNL     1      23.635  -0.233  53.165  1.00  0.00     0.018 C 
HETATM    6  C16 UNL     1      22.214  -0.289  52.777  1.00  0.00     0.077 C 
HETATM    7  C17 UNL     1      21.523   1.024  52.837  1.00  0.00     0.096 C 
HETATM    8  N2  UNL     1      21.673   2.266  52.479  1.00  0.00    -0.245 NA
ENDROOT
BRANCH   1   9
HETATM    9  N1  UNL     1      22.520   4.037  50.896  1.00  0.00    -0.365 N 
HETATM   10  C7  UNL     1      21.535   5.054  51.084  1.00  0.00     0.151 C 
BRANCH   9  11
HETATM   11  C6  UNL     1      23.375   4.113  49.721  1.00  0.00     0.151 C 
BRANCH  11  12
HETATM   12  C5  UNL     1      22.633   4.118  48.458  1.00  0.00    -0.007 C 
HETATM   13  C4  UNL     1      22.141   3.102  47.772  1.00  0.00    -0.003 C 
BRANCH  13  14
HETATM   14  C3  UNL     1      22.251   1.707  48.168  1.00  0.00    -0.005 C 
HETATM   15  C2  UNL     1      21.326   1.070  48.865  1.00  0.00    -0.031 C 
HETATM   16  C1  UNL     1      20.072   1.721  49.316  1.00  0.00     0.036 C 
ENDBRANCH  13  14
ENDBRANCH  11  12
ENDBRANCH   9  11
ENDBRANCH   1   9
BRANCH   4  17
HETATM   17  C11 UNL     1      25.842   0.027  53.674  1.00  0.00     0.123 C 
HETATM   18  C12 UNL     1      26.629   0.844  54.344  1.00  0.00     0.173 C 
BRANCH  18  19
HETATM   19  O2  UNL     1      27.805   0.717  55.066  1.00  0.00    -0.365 OA
HETATM   20  C13 UNL     1      29.051   0.712  54.355  1.00  0.00     0.209 C 
ENDBRANCH  18  19
BRANCH  17  21
HETATM   21  O3  UNL     1      26.161  -1.293  53.605  1.00  0.00    -0.351 OA
HETATM   22  C14 UNL     1      26.938  -1.911  52.625  1.00  0.00     0.210 C 
ENDBRANCH  17  21
ENDBRANCH   4  17
TORSDOF 7
ENDMDL
MODEL 4
REMARK VINA RESULT:      -6.6      3.111      6.627
REMARK  7 active torsions:
REMARK  status: ('A' for Active; 'I' for Inactive)
REMARK    1  A    between atoms: C3_3  and  C4_4 
REMARK    2  A    between atoms: C5_5  and  C6_6 
REMARK    3  A    between atoms: C6_6  and  N1_7 
REMARK    4  A    between atoms: N1_7  and  C8_9 
REMARK    5  A    between atoms: C10_12  and  C11_13 
REMARK    6  A    between atoms: C11_13  and  O3_17 
REMARK    7  A    between atoms: C12_14  and  O2_15 
ROOT
HETATM    1  C8  UNL     1      21.034   0.738  52.375  1.00  0.00     0.147 C 
HETATM    2  C9  UNL     1      22.177   0.897  51.724  1.00  0.00     0.192 C 
HETATM    3  O1  UNL     1      23.530   0.834  52.119  1.00  0.00    -0.316 OA
HETATM    4  C10 UNL     1      24.205   0.241  53.202  1.00  0.00     0.106 C 
HETATM    5  C15 UNL     1      23.845  -0.518  54.220  1.00  0.00     0.018 C 
HETATM    6  C16 UNL     1      22.623  -1.134  54.769  1.00  0.00     0.077 C 
HETATM    7  C17 UNL     1      21.410  -0.289  54.634  1.00  0.00     0.096 C 
HETATM    8  N2  UNL     1      20.770   0.433  53.761  1.00  0.00    -0.245 NA
ENDROOT
BRANCH   1   9
HETATM    9  N1  UNL     1      20.022   0.929  51.405  1.00  0.00    -0.365 N 
HETATM   10  C7  UNL     1      20.248   0.977  49.995  1.00  0.00     0.151 C 
BRANCH   9  11
HETATM   11  C6  UNL     1      18.659   1.083  51.892  1.00  0.00     0.151 C 
BRANCH  11  12
HETATM   12  C5  UNL     1      17.761   0.010  51.460  1.00  0.00    -0.007 C 
HETATM   13  C4  UNL     1      17.483  -1.138  52.052  1.00  0.00    -0.003 C 
BRANCH  13  14
HETATM   14  C3  UNL     1      18.049  -1.574  53.318  1.00  0.00    -0.005 C 
HETATM   15  C2  UNL     1      17.799  -2.752  53.864  1.00  0.00    -0.031 C 
HETATM   16  C1  UNL     1      16.907  -3.755  53.232  1.00  0.00     0.036 C 
ENDBRANCH  13  14
ENDBRANCH  11  12
ENDBRANCH   9  11
ENDBRANCH   1   9
BRANCH   4  17
HETATM   17  C11 UNL     1      25.620   0.509  53.226  1.00  0.00     0.123 C 
HETATM   18  C12 UNL     1      26.222   0.577  54.396  1.00  0.00     0.173 C 
BRANCH  18  19
HETATM   19  O2  UNL     1      27.516   0.806  54.834  1.00  0.00    -0.365 OA
HETATM   20  C13 UNL     1      28.542  -0.125  54.462  1.00  0.00     0.209 C 
ENDBRANCH  18  19
BRANCH  17  21
HETATM   21  O3  UNL     1      26.352   0.691  52.094  1.00  0.00    -0.351 OA
HETATM   22  C14 UNL     1      26.744   1.912  51.545  1.00  0.00     0.210 C 
ENDBRANCH  17  21
ENDBRANCH   4  17
TORSDOF 7
ENDMDL
MODEL 5
REMARK VINA RESULT:      -6.5      3.715      6.536
REMARK  7 active torsions:
REMARK  status: ('A' for Active; 'I' for Inactive)
REMARK    1  A    between atoms: C3_3  and  C4_4 
REMARK    2  A    between atoms: C5_5  and  C6_6 
REMARK    3  A    between atoms: C6_6  and  N1_7 
REMARK    4  A    between atoms: N1_7  and  C8_9 
REMARK    5  A    between atoms: C10_12  and  C11_13 
REMARK    6  A    between atoms: C11_13  and  O3_17 
REMARK    7  A    between atoms: C12_14  and  O2_15 
ROOT
HETATM    1  C8  UNL     1      23.175   1.247  53.003  1.00  0.00     0.147 C 
HETATM    2  C9  UNL     1      21.948   1.631  52.684  1.00  0.00     0.192 C 
HETATM    3  O1  UNL     1      20.707   0.963  52.643  1.00  0.00    -0.316 OA
HETATM    4  C10 UNL     1      20.205  -0.205  53.248  1.00  0.00     0.106 C 
HETATM    5  C15 UNL     1      20.680  -1.081  54.113  1.00  0.00     0.018 C 
HETATM    6  C16 UNL     1      21.911  -1.325  54.887  1.00  0.00     0.077 C 
HETATM    7  C17 UNL     1      23.158  -0.982  54.157  1.00  0.00     0.096 C 
HETATM    8  N2  UNL     1      23.682  -0.033  53.437  1.00  0.00    -0.245 NA
ENDROOT
BRANCH   1   9
HETATM    9  N1  UNL     1      23.981   2.398  52.840  1.00  0.00    -0.365 N 
HETATM   10  C7  UNL     1      23.514   3.653  52.340  1.00  0.00     0.151 C 
BRANCH   9  11
HETATM   11  C6  UNL     1      25.383   2.282  53.214  1.00  0.00     0.151 C 
BRANCH  11  12
HETATM   12  C5  UNL     1      26.264   1.968  52.087  1.00  0.00    -0.007 C 
HETATM   13  C4  UNL     1      27.000   0.892  51.875  1.00  0.00    -0.003 C 
BRANCH  13  14
HETATM   14  C3  UNL     1      27.076  -0.248  52.775  1.00  0.00    -0.005 C 
HETATM   15  C2  UNL     1      28.121  -0.503  53.544  1.00  0.00    -0.031 C 
HETATM   16  C1  UNL     1      29.330   0.356  53.565  1.00  0.00     0.036 C 
ENDBRANCH  13  14
ENDBRANCH  11  12
ENDBRANCH   9  11
ENDBRANCH   1   9
BRANCH   4  17
HETATM   17  C11 UNL     1      18.865  -0.543  52.844  1.00  0.00     0.123 C 
HETATM   18  C12 UNL     1      18.329  -1.646  53.325  1.00  0.00     0.173 C 
BRANCH  18  19
HETATM   19  O2  UNL     1      17.114  -2.299  53.189  1.00  0.00    -0.365 OA
HETATM   20  C13 UNL     1      17.029  -3.680  53.570  1.00  0.00     0.209 C 
ENDBRANCH  18  19
BRANCH  17  21
HETATM   21  O3  UNL     1      18.138   0.230  51.994  1.00  0.00    -0.351 OA
HETATM   22  C14 UNL     1      17.897  -0.021  50.643  1.00  0.00     0.210 C 
ENDBRANCH  17  21
ENDBRANCH   4  17
TORSDOF 7
ENDMDL
MODEL 6
REMARK VINA RESULT:      -6.5      2.064      2.596
REMARK  7 active torsions:
REMARK  status: ('A' for Active; 'I' for Inactive)
REMARK    1  A    between atoms: C3_3  and  C4_4 
REMARK    2  A    between atoms: C5_5  and  C6_6 
REMARK    3  A    between atoms: C6_6  and  N1_7 
REMARK    4  A    between atoms: N1_7  and  C8_9 
REMARK    5  A    between atoms: C10_12  and  C11_13 
REMARK    6  A    between atoms: C11_13  and  O3_17 
REMARK    7  A    between atoms: C12_14  and  O2_15 
ROOT
HETATM    1  C8  UNL     1      21.947   1.293  52.072  1.00  0.00     0.147 C 
HETATM    2  C9  UNL     1      23.216   1.098  51.743  1.00  0.00     0.192 C 
HETATM    3  O1  UNL     1      24.328   0.591  52.445  1.00  0.00    -0.316 OA
HETATM    4  C10 UNL     1      24.477  -0.224  53.583  1.00  0.00     0.106 C 
HETATM    5  C15 UNL     1      23.646  -0.860  54.386  1.00  0.00     0.018 C 
HETATM    6  C16 UNL     1      22.195  -1.070  54.545  1.00  0.00     0.077 C 
HETATM    7  C17 UNL     1      21.375   0.124  54.218  1.00  0.00     0.096 C 
HETATM    8  N2  UNL     1      21.241   1.042  53.306  1.00  0.00    -0.245 NA
ENDROOT
BRANCH   1   9
HETATM    9  N1  UNL     1      21.339   1.831  50.913  1.00  0.00    -0.365 N 
HETATM   10  C7  UNL     1      20.152   2.626  50.914  1.00  0.00     0.151 C 
BRANCH   9  11
HETATM   11  C6  UNL     1      21.983   1.551  49.638  1.00  0.00     0.151 C 
BRANCH  11  12
HETATM   12  C5  UNL     1      22.029   2.708  48.741  1.00  0.00    -0.007 C 
HETATM   13  C4  UNL     1      22.985   3.604  48.581  1.00  0.00    -0.003 C 
BRANCH  13  14
HETATM   14  C3  UNL     1      24.244   3.608  49.308  1.00  0.00    -0.005 C 
HETATM   15  C2  UNL     1      24.436   4.275  50.434  1.00  0.00    -0.031 C 
HETATM   16  C1  UNL     1      23.375   5.092  51.072  1.00  0.00     0.036 C 
ENDBRANCH  13  14
ENDBRANCH  11  12
ENDBRANCH   9  11
ENDBRANCH   1   9
BRANCH   4  17
HETATM   17  C11 UNL     1      25.846  -0.425  53.983  1.00  0.00     0.123 C 
HETATM   18  C12 UNL     1      26.481   0.577  54.557  1.00  0.00     0.173 C 
BRANCH  18  19
HETATM   19  O2  UNL     1      27.753   0.782  55.067  1.00  0.00    -0.365 OA
HETATM   20  C13 UNL     1      28.829   1.036  54.153  1.00  0.00     0.209 C 
ENDBRANCH  18  19
BRANCH  17  21
HETATM   21  O3  UNL     1      26.501  -1.602  53.793  1.00  0.00    -0.351 OA
HETATM   22  C14 UNL     1      27.136  -2.020  52.623  1.00  0.00     0.210 C 
ENDBRANCH  17  21
ENDBRANCH   4  17
TORSDOF 7
ENDMDL
MODEL 7
REMARK VINA RESULT:      -6.4      1.911      5.010
REMARK  7 active torsions:
REMARK  status: ('A' for Active; 'I' for Inactive)
REMARK    1  A    between atoms: C3_3  and  C4_4 
REMARK    2  A    between atoms: C5_5  and  C6_6 
REMARK    3  A    between atoms: C6_6  and  N1_7 
REMARK    4  A    between atoms: N1_7  and  C8_9 
REMARK    5  A    between atoms: C10_12  and  C11_13 
REMARK    6  A    between atoms: C11_13  and  O3_17 
REMARK    7  A    between atoms: C12_14  and  O2_15 
ROOT
HETATM    1  C8  UNL     1      23.171   3.404  51.484  1.00  0.00     0.147 C 
HETATM    2  C9  UNL     1      23.662   3.097  52.676  1.00  0.00     0.192 C 
HETATM    3  O1  UNL     1      24.826   2.420  53.096  1.00  0.00    -0.316 OA
HETATM    4  C10 UNL     1      26.066   2.141  52.492  1.00  0.00     0.106 C 
HETATM    5  C15 UNL     1      26.627   2.446  51.337  1.00  0.00     0.018 C 
HETATM    6  C16 UNL     1      26.307   3.195  50.109  1.00  0.00     0.077 C 
HETATM    7  C17 UNL     1      24.889   3.075  49.683  1.00  0.00     0.096 C 
HETATM    8  N2  UNL     1      23.680   3.144  50.158  1.00  0.00    -0.245 NA
ENDROOT
BRANCH   1   9
HETATM    9  N1  UNL     1      21.964   4.092  51.743  1.00  0.00    -0.365 N 
HETATM   10  C7  UNL     1      21.721   5.460  51.411  1.00  0.00     0.151 C 
BRANCH   9  11
HETATM   11  C6  UNL     1      20.899   3.340  52.392  1.00  0.00     0.151 C 
BRANCH  11  12
HETATM   12  C5  UNL     1      20.604   2.064  51.736  1.00  0.00    -0.007 C 
HETATM   13  C4  UNL     1      20.522   0.854  52.258  1.00  0.00    -0.003 C 
BRANCH  13  14
HETATM   14  C3  UNL     1      20.721   0.546  53.665  1.00  0.00    -0.005 C 
HETATM   15  C2  UNL     1      21.786  -0.083  54.133  1.00  0.00    -0.031 C 
HETATM   16  C1  UNL     1      22.895  -0.539  53.260  1.00  0.00     0.036 C 
ENDBRANCH  13  14
ENDBRANCH  11  12
ENDBRANCH   9  11
ENDBRANCH   1   9
BRANCH   4  17
HETATM   17  C11 UNL     1      26.944   1.338  53.303  1.00  0.00     0.123 C 
HETATM   18  C12 UNL     1      26.921   0.031  53.140  1.00  0.00     0.173 C 
BRANCH  18  19
HETATM   19  O2  UNL     1      27.583  -1.050  53.701  1.00  0.00    -0.365 OA
HETATM   20  C13 UNL     1      28.942  -1.299  53.317  1.00  0.00     0.209 C 
ENDBRANCH  18  19
BRANCH  17  21
HETATM   21  O3  UNL     1      27.790   1.876  54.223  1.00  0.00    -0.351 OA
HETATM   22  C14 UNL     1      29.087   2.333  53.991  1.00  0.00     0.210 C 
ENDBRANCH  17  21
ENDBRANCH   4  17
TORSDOF 7
ENDMDL
MODEL 8
REMARK VINA RESULT:      -6.4      2.976      7.162
REMARK  7 active torsions:
REMARK  status: ('A' for Active; 'I' for Inactive)
REMARK    1  A    between atoms: C3_3  and  C4_4 
REMARK    2  A    between atoms: C5_5  and  C6_6 
REMARK    3  A    between atoms: C6_6  and  N1_7 
REMARK    4  A    between atoms: N1_7  and  C8_9 
REMARK    5  A    between atoms: C10_12  and  C11_13 
REMARK    6  A    between atoms: C11_13  and  O3_17 
REMARK    7  A    between atoms: C12_14  and  O2_15 
ROOT
HETATM    1  C8  UNL     1      25.379   2.942  50.301  1.00  0.00     0.147 C 
HETATM    2  C9  UNL     1      26.646   3.331  50.296  1.00  0.00     0.192 C 
HETATM    3  O1  UNL     1      27.355   4.300  49.557  1.00  0.00    -0.316 OA
HETATM    4  C10 UNL     1      26.978   5.451  48.840  1.00  0.00     0.106 C 
HETATM    5  C15 UNL     1      25.839   6.085  48.630  1.00  0.00     0.018 C 
HETATM    6  C16 UNL     1      24.416   5.964  48.995  1.00  0.00     0.077 C 
HETATM    7  C17 UNL     1      23.927   4.563  49.052  1.00  0.00     0.096 C 
HETATM    8  N2  UNL     1      24.248   3.396  49.527  1.00  0.00    -0.245 NA
ENDROOT
BRANCH   1   9
HETATM    9  N1  UNL     1      25.306   1.922  51.278  1.00  0.00    -0.365 N 
HETATM   10  C7  UNL     1      24.090   1.361  51.777  1.00  0.00     0.151 C 
BRANCH   9  11
HETATM   11  C6  UNL     1      26.566   1.415  51.801  1.00  0.00     0.151 C 
BRANCH  11  12
HETATM   12  C5  UNL     1      26.541  -0.019  52.095  1.00  0.00    -0.007 C 
HETATM   13  C4  UNL     1      27.011  -0.666  53.146  1.00  0.00    -0.003 C 
BRANCH  13  14
HETATM   14  C3  UNL     1      27.679  -0.037  54.274  1.00  0.00    -0.005 C 
HETATM   15  C2  UNL     1      28.981  -0.114  54.488  1.00  0.00    -0.031 C 
HETATM   16  C1  UNL     1      29.899  -0.857  53.590  1.00  0.00     0.036 C 
ENDBRANCH  13  14
ENDBRANCH  11  12
ENDBRANCH   9  11
ENDBRANCH   1   9
BRANCH   4  17
HETATM   17  C11 UNL     1      28.072   6.108  48.171  1.00  0.00     0.123 C 
HETATM   18  C12 UNL     1      29.242   5.502  48.148  1.00  0.00     0.173 C 
BRANCH  18  19
HETATM   19  O2  UNL     1      30.495   5.787  47.629  1.00  0.00    -0.365 OA
HETATM   20  C13 UNL     1      31.481   6.368  48.494  1.00  0.00     0.209 C 
ENDBRANCH  18  19
BRANCH  17  21
HETATM   21  O3  UNL     1      27.941   7.320  47.568  1.00  0.00    -0.351 OA
HETATM   22  C14 UNL     1      28.416   8.542  48.045  1.00  0.00     0.210 C 
ENDBRANCH  17  21
ENDBRANCH   4  17
TORSDOF 7
ENDMDL
MODEL 9
REMARK VINA RESULT:      -6.3      4.085      6.984
REMARK  7 active torsions:
REMARK  status: ('A' for Active; 'I' for Inactive)
REMARK    1  A    between atoms: C3_3  and  C4_4 
REMARK    2  A    between atoms: C5_5  and  C6_6 
REMARK    3  A    between atoms: C6_6  and  N1_7 
REMARK    4  A    between atoms: N1_7  and  C8_9 
REMARK    5  A    between atoms: C10_12  and  C11_13 
REMARK    6  A    between atoms: C11_13  and  O3_17 
REMARK    7  A    between atoms: C12_14  and  O2_15 
ROOT
HETATM    1  C8  UNL     1      23.588   0.566  53.062  1.00  0.00     0.147 C 
HETATM    2  C9  UNL     1      22.840   1.576  52.643  1.00  0.00     0.192 C 
HETATM    3  O1  UNL     1      21.479   1.689  52.290  1.00  0.00    -0.316 OA
HETATM    4  C10 UNL     1      20.329   0.930  52.577  1.00  0.00     0.106 C 
HETATM    5  C15 UNL     1      20.077  -0.133  53.318  1.00  0.00     0.018 C 
HETATM    6  C16 UNL     1      20.796  -1.066  54.205  1.00  0.00     0.077 C 
HETATM    7  C17 UNL     1      22.172  -1.389  53.749  1.00  0.00     0.096 C 
HETATM    8  N2  UNL     1      23.255  -0.817  53.311  1.00  0.00    -0.245 NA
ENDROOT
BRANCH   1   9
HETATM    9  N1  UNL     1      24.881   1.110  53.244  1.00  0.00    -0.365 N 
HETATM   10  C7  UNL     1      25.160   2.499  53.425  1.00  0.00     0.151 C 
BRANCH   9  11
HETATM   11  C6  UNL     1      25.997   0.174  53.250  1.00  0.00     0.151 C 
BRANCH  11  12
HETATM   12  C5  UNL     1      26.614   0.011  54.568  1.00  0.00    -0.007 C 
HETATM   13  C4  UNL     1      27.857   0.248  54.945  1.00  0.00    -0.003 C 
BRANCH  13  14
HETATM   14  C3  UNL     1      28.906   0.747  54.070  1.00  0.00    -0.005 C 
HETATM   15  C2  UNL     1      29.780  -0.035  53.458  1.00  0.00    -0.031 C 
HETATM   16  C1  UNL     1      29.777  -1.511  53.606  1.00  0.00     0.036 C 
ENDBRANCH  13  14
ENDBRANCH  11  12
ENDBRANCH   9  11
ENDBRANCH   1   9
BRANCH   4  17
HETATM   17  C11 UNL     1      19.137   1.403  51.921  1.00  0.00     0.123 C 
HETATM   18  C12 UNL     1      19.098   2.661  51.532  1.00  0.00     0.173 C 
BRANCH  18  19
HETATM   19  O2  UNL     1      18.175   3.473  50.893  1.00  0.00    -0.365 OA
HETATM   20  C13 UNL     1      17.034   3.931  51.631  1.00  0.00     0.209 C 
ENDBRANCH  18  19
BRANCH  17  21
HETATM   21  O3  UNL     1      18.061   0.605  51.690  1.00  0.00    -0.351 OA
HETATM   22  C14 UNL     1      17.686   0.049  50.466  1.00  0.00     0.210 C 
ENDBRANCH  17  21
ENDBRANCH   4  17
TORSDOF 7
ENDMDL
