MODEL 1
REMARK VINA RESULT:      -8.6      0.000      0.000
REMARK  3 active torsions:
REMARK  status: ('A' for Active; 'I' for Inactive)
REMARK    1  A    between atoms: C3_3  and  C4_4 
REMARK       I    between atoms: C4_4  and  N1_6 
REMARK    2  A    between atoms: N1_6  and  C5_7 
REMARK    3  A    between atoms: C6_8  and  C7_9 
ROOT
HETATM    1  C1  UNL     1      28.742   7.174  47.482  1.00  0.00     0.112 C 
HETATM    2  C2  UNL     1      27.968   6.121  48.158  1.00  0.00    -0.101 C 
HETATM    3  C3  UNL     1      27.333   5.263  48.732  1.00  0.00    -0.006 C 
ENDROOT
BRANCH   3   4
HETATM    4  C4  UNL     1      26.591   4.240  49.419  1.00  0.00     0.300 C 
HETATM    5  O1  UNL     1      26.622   3.040  49.102  1.00  0.00    -0.258 OA
HETATM    6  N1  UNL     1      25.776   4.652  50.530  1.00  0.00    -0.327 N 
HETATM    7  H4  UNL     1      25.714   5.666  50.844  1.00  0.00     0.169 HD
BRANCH   6   8
HETATM    8  C5  UNL     1      25.070   3.561  51.157  1.00  0.00     0.089 C 
HETATM    9  C6  UNL     1      25.657   2.424  51.568  1.00  0.00     0.008 C 
BRANCH   9  10
HETATM   10  C7  UNL     1      25.378   1.097  52.225  1.00  0.00     0.019 C 
HETATM   11  C8  UNL     1      26.441   0.153  51.817  1.00  0.00     0.014 C 
HETATM   12  C9  UNL     1      26.715  -0.535  52.906  1.00  0.00     0.048 C 
HETATM   13  C10 UNL     1      27.499  -1.750  52.869  1.00  0.00     0.099 C 
HETATM   14  C11 UNL     1      26.100   0.144  54.069  1.00  0.00    -0.037 C 
HETATM   15  N2  UNL     1      28.124  -2.723  52.860  1.00  0.00    -0.191 NA
HETATM   16  C12 UNL     1      25.463   1.231  53.696  1.00  0.00     0.000 C 
HETATM   17  C13 UNL     1      26.184  -0.351  55.463  1.00  0.00     0.067 C 
HETATM   18  C14 UNL     1      24.871  -0.919  55.899  1.00  0.00    -0.021 C 
HETATM   19  C15 UNL     1      23.675  -1.006  55.289  1.00  0.00     0.015 C 
HETATM   20  C16 UNL     1      22.857  -0.726  54.088  1.00  0.00     0.007 C 
HETATM   21 BR1  UNL     1      21.028  -1.378  54.253  1.00  0.00    -0.051 Br
HETATM   22  C17 UNL     1      23.312  -0.088  52.989  1.00  0.00    -0.006 C 
HETATM   23  C18 UNL     1      23.984   0.622  51.886  1.00  0.00     0.050 C 
ENDBRANCH   9  10
ENDBRANCH   6   8
ENDBRANCH   3   4
TORSDOF 3
ENDMDL
MODEL 2
REMARK VINA RESULT:      -8.4      4.145      7.721
REMARK  3 active torsions:
REMARK  status: ('A' for Active; 'I' for Inactive)
REMARK    1  A    between atoms: C3_3  and  C4_4 
REMARK       I    between atoms: C4_4  and  N1_6 
REMARK    2  A    between atoms: N1_6  and  C5_7 
REMARK    3  A    between atoms: C6_8  and  C7_9 
ROOT
HETATM    1  C1  UNL     1      17.421  -3.406  53.773  1.00  0.00     0.112 C 
HETATM    2  C2  UNL     1      18.166  -2.189  53.412  1.00  0.00    -0.101 C 
HETATM    3  C3  UNL     1      18.781  -1.182  53.135  1.00  0.00    -0.006 C 
ENDROOT
BRANCH   3   4
HETATM    4  C4  UNL     1      19.502   0.020  52.810  1.00  0.00     0.300 C 
HETATM    5  O1  UNL     1      18.982   1.003  52.258  1.00  0.00    -0.258 OA
HETATM    6  N1  UNL     1      20.898   0.063  53.152  1.00  0.00    -0.327 N 
HETATM    7  H4  UNL     1      21.392  -0.751  53.625  1.00  0.00     0.169 HD
BRANCH   6   8
HETATM    8  C5  UNL     1      21.538   1.304  52.790  1.00  0.00     0.089 C 
HETATM    9  C6  UNL     1      22.870   1.468  52.715  1.00  0.00     0.008 C 
BRANCH   9  10
HETATM   10  C7  UNL     1      23.941   2.482  52.406  1.00  0.00     0.019 C 
HETATM   11  C8  UNL     1      25.155   2.110  53.164  1.00  0.00     0.014 C 
HETATM   12  C9  UNL     1      26.152   2.335  52.333  1.00  0.00     0.048 C 
HETATM   13  C10 UNL     1      27.528   2.367  52.775  1.00  0.00     0.099 C 
HETATM   14  C11 UNL     1      25.604   2.532  50.971  1.00  0.00    -0.037 C 
HETATM   15  N2  UNL     1      28.634   2.397  53.111  1.00  0.00    -0.191 NA
HETATM   16  C12 UNL     1      24.295   2.426  50.971  1.00  0.00     0.000 C 
HETATM   17  C13 UNL     1      26.429   2.825  49.776  1.00  0.00     0.067 C 
HETATM   18  C14 UNL     1      26.270   4.254  49.365  1.00  0.00    -0.021 C 
HETATM   19  C15 UNL     1      25.506   5.253  49.841  1.00  0.00     0.015 C 
HETATM   20  C16 UNL     1      24.497   5.699  50.827  1.00  0.00     0.007 C 
HETATM   21 BR1  UNL     1      24.042   7.585  50.641  1.00  0.00    -0.051 Br
HETATM   22  C17 UNL     1      23.941   4.899  51.761  1.00  0.00    -0.006 C 
HETATM   23  C18 UNL     1      23.447   3.879  52.703  1.00  0.00     0.050 C 
ENDBRANCH   9  10
ENDBRANCH   6   8
ENDBRANCH   3   4
TORSDOF 3
ENDMDL
MODEL 3
REMARK VINA RESULT:      -8.0      4.163      6.705
REMARK  3 active torsions:
REMARK  status: ('A' for Active; 'I' for Inactive)
REMARK    1  A    between atoms: C3_3  and  C4_4 
REMARK       I    between atoms: C4_4  and  N1_6 
REMARK    2  A    between atoms: N1_6  and  C5_7 
REMARK    3  A    between atoms: C6_8  and  C7_9 
ROOT
HETATM    1  C1  UNL     1      30.505  -1.064  53.764  1.00  0.00     0.112 C 
HETATM    2  C2  UNL     1      29.105  -0.628  53.887  1.00  0.00    -0.101 C 
HETATM    3  C3  UNL     1      27.958  -0.253  53.995  1.00  0.00    -0.006 C 
ENDROOT
BRANCH   3   4
HETATM    4  C4  UNL     1      26.596   0.193  54.137  1.00  0.00     0.300 C 
HETATM    5  O1  UNL     1      26.282   1.299  54.606  1.00  0.00    -0.258 OA
HETATM    6  N1  UNL     1      25.562  -0.707  53.706  1.00  0.00    -0.327 N 
HETATM    7  H4  UNL     1      25.776  -1.666  53.298  1.00  0.00     0.169 HD
BRANCH   6   8
HETATM    8  C5  UNL     1      24.232  -0.178  53.885  1.00  0.00     0.089 C 
HETATM    9  C6  UNL     1      23.413   0.156  52.873  1.00  0.00     0.008 C 
BRANCH   9  10
HETATM   10  C7  UNL     1      22.044   0.704  52.564  1.00  0.00     0.019 C 
HETATM   11  C8  UNL     1      22.132   2.181  52.568  1.00  0.00     0.014 C 
HETATM   12  C9  UNL     1      21.380   2.564  51.556  1.00  0.00     0.048 C 
HETATM   13  C10 UNL     1      20.969   3.939  51.384  1.00  0.00     0.099 C 
HETATM   14  C11 UNL     1      21.073   1.385  50.715  1.00  0.00    -0.037 C 
HETATM   15  N2  UNL     1      20.631   5.034  51.229  1.00  0.00    -0.191 NA
HETATM   16  C12 UNL     1      21.631   0.300  51.202  1.00  0.00     0.000 C 
HETATM   17  C13 UNL     1      20.234   1.429  49.494  1.00  0.00     0.067 C 
HETATM   18  C14 UNL     1      18.899   0.805  49.751  1.00  0.00    -0.021 C 
HETATM   19  C15 UNL     1      18.377   0.197  50.831  1.00  0.00     0.015 C 
HETATM   20  C16 UNL     1      18.563  -0.253  52.228  1.00  0.00     0.007 C 
HETATM   21 BR1  UNL     1      16.972  -1.106  52.964  1.00  0.00    -0.051 Br
HETATM   22  C17 UNL     1      19.704  -0.098  52.932  1.00  0.00    -0.006 C 
HETATM   23  C18 UNL     1      21.024   0.156  53.536  1.00  0.00     0.050 C 
ENDBRANCH   9  10
ENDBRANCH   6   8
ENDBRANCH   3   4
TORSDOF 3
ENDMDL
MODEL 4
REMARK VINA RESULT:      -7.8      7.642     10.868
REMARK  3 active torsions:
REMARK  status: ('A' for Active; 'I' for Inactive)
REMARK    1  A    between atoms: C3_3  and  C4_4 
REMARK       I    between atoms: C4_4  and  N1_6 
REMARK    2  A    between atoms: N1_6  and  C5_7 
REMARK    3  A    between atoms: C6_8  and  C7_9 
ROOT
HETATM    1  C1  UNL     1      23.666   6.927  49.406  1.00  0.00     0.112 C 
HETATM    2  C2  UNL     1      25.016   6.400  49.150  1.00  0.00    -0.101 C 
HETATM    3  C3  UNL     1      26.127   5.957  48.957  1.00  0.00    -0.006 C 
ENDROOT
BRANCH   3   4
HETATM    4  C4  UNL     1      27.451   5.438  48.737  1.00  0.00     0.300 C 
HETATM    5  O1  UNL     1      27.707   4.226  48.654  1.00  0.00    -0.258 OA
HETATM    6  N1  UNL     1      28.519   6.392  48.610  1.00  0.00    -0.327 N 
HETATM    7  H4  UNL     1      28.355   7.441  48.673  1.00  0.00     0.169 HD
BRANCH   6   8
HETATM    8  C5  UNL     1      29.808   5.782  48.392  1.00  0.00     0.089 C 
HETATM    9  C6  UNL     1      30.799   6.353  47.685  1.00  0.00     0.008 C 
BRANCH   9  10
HETATM   10  C7  UNL     1      32.213   6.141  47.209  1.00  0.00     0.019 C 
HETATM   11  C8  UNL     1      33.128   6.587  48.283  1.00  0.00     0.014 C 
HETATM   12  C9  UNL     1      34.094   5.691  48.293  1.00  0.00     0.048 C 
HETATM   13  C10 UNL     1      35.334   5.910  49.003  1.00  0.00     0.099 C 
HETATM   14  C11 UNL     1      33.672   4.522  47.490  1.00  0.00    -0.037 C 
HETATM   15  N2  UNL     1      36.333   6.067  49.565  1.00  0.00    -0.191 NA
HETATM   16  C12 UNL     1      32.466   4.698  46.999  1.00  0.00     0.000 C 
HETATM   17  C13 UNL     1      34.510   3.321  47.261  1.00  0.00     0.067 C 
HETATM   18  C14 UNL     1      35.030   3.303  45.859  1.00  0.00    -0.021 C 
HETATM   19  C15 UNL     1      34.835   4.122  44.810  1.00  0.00     0.015 C 
HETATM   20  C16 UNL     1      34.176   5.331  44.270  1.00  0.00     0.007 C 
HETATM   21 BR1  UNL     1      34.654   5.685  42.414  1.00  0.00    -0.051 Br
HETATM   22  C17 UNL     1      33.331   6.115  44.972  1.00  0.00    -0.006 C 
HETATM   23  C18 UNL     1      32.438   6.844  45.891  1.00  0.00     0.050 C 
ENDBRANCH   9  10
ENDBRANCH   6   8
ENDBRANCH   3   4
TORSDOF 3
ENDMDL
MODEL 5
REMARK VINA RESULT:      -7.6      2.636      3.826
REMARK  3 active torsions:
REMARK  status: ('A' for Active; 'I' for Inactive)
REMARK    1  A    between atoms: C3_3  and  C4_4 
REMARK       I    between atoms: C4_4  and  N1_6 
REMARK    2  A    between atoms: N1_6  and  C5_7 
REMARK    3  A    between atoms: C6_8  and  C7_9 
ROOT
HETATM    1  C1  UNL     1      30.662  10.494  49.000  1.00  0.00     0.112 C 
HETATM    2  C2  UNL     1      29.837   9.289  48.816  1.00  0.00    -0.101 C 
HETATM    3  C3  UNL     1      29.161   8.292  48.683  1.00  0.00    -0.006 C 
ENDROOT
BRANCH   3   4
HETATM    4  C4  UNL     1      28.370   7.100  48.526  1.00  0.00     0.300 C 
HETATM    5  O1  UNL     1      28.732   6.120  47.856  1.00  0.00    -0.258 OA
HETATM    6  N1  UNL     1      27.095   7.065  49.190  1.00  0.00    -0.327 N 
HETATM    7  H4  UNL     1      26.737   7.877  49.776  1.00  0.00     0.169 HD
BRANCH   6   8
HETATM    8  C5  UNL     1      26.373   5.835  48.977  1.00  0.00     0.089 C 
HETATM    9  C6  UNL     1      26.072   4.962  49.954  1.00  0.00     0.008 C 
BRANCH   9  10
HETATM   10  C7  UNL     1      25.391   3.644  50.220  1.00  0.00     0.019 C 
HETATM   11  C8  UNL     1      26.440   2.632  50.477  1.00  0.00     0.014 C 
HETATM   12  C9  UNL     1      25.964   1.900  51.463  1.00  0.00     0.048 C 
HETATM   13  C10 UNL     1      26.553   0.631  51.828  1.00  0.00     0.099 C 
HETATM   14  C11 UNL     1      24.802   2.596  52.059  1.00  0.00    -0.037 C 
HETATM   15  N2  UNL     1      27.010  -0.387  52.135  1.00  0.00    -0.191 NA
HETATM   16  C12 UNL     1      24.572   3.736  51.449  1.00  0.00     0.000 C 
HETATM   17  C13 UNL     1      23.999   2.063  53.185  1.00  0.00     0.067 C 
HETATM   18  C14 UNL     1      22.667   1.586  52.701  1.00  0.00    -0.021 C 
HETATM   19  C15 UNL     1      22.084   1.604  51.489  1.00  0.00     0.015 C 
HETATM   20  C16 UNL     1      22.177   1.974  50.060  1.00  0.00     0.007 C 
HETATM   21 BR1  UNL     1      20.596   1.458  49.043  1.00  0.00    -0.051 Br
HETATM   22  C17 UNL     1      23.234   2.601  49.503  1.00  0.00    -0.006 C 
HETATM   23  C18 UNL     1      24.469   3.284  49.078  1.00  0.00     0.050 C 
ENDBRANCH   9  10
ENDBRANCH   6   8
ENDBRANCH   3   4
TORSDOF 3
ENDMDL
MODEL 6
REMARK VINA RESULT:      -7.3      6.489      8.899
REMARK  3 active torsions:
REMARK  status: ('A' for Active; 'I' for Inactive)
REMARK    1  A    between atoms: C3_3  and  C4_4 
REMARK       I    between atoms: C4_4  and  N1_6 
REMARK    2  A    between atoms: N1_6  and  C5_7 
REMARK    3  A    between atoms: C6_8  and  C7_9 
ROOT
HETATM    1  C1  UNL     1      11.796   4.447  54.460  1.00  0.00     0.112 C 
HETATM    2  C2  UNL     1      13.107   4.207  53.836  1.00  0.00    -0.101 C 
HETATM    3  C3  UNL     1      14.178   4.016  53.305  1.00  0.00    -0.006 C 
ENDROOT
BRANCH   3   4
HETATM    4  C4  UNL     1      15.447   3.779  52.667  1.00  0.00     0.300 C 
HETATM    5  O1  UNL     1      16.383   4.595  52.677  1.00  0.00    -0.258 OA
HETATM    6  N1  UNL     1      15.618   2.523  51.989  1.00  0.00    -0.327 N 
HETATM    7  H4  UNL     1      14.849   1.789  51.950  1.00  0.00     0.169 HD
BRANCH   6   8
HETATM    8  C5  UNL     1      16.918   2.373  51.381  1.00  0.00     0.089 C 
HETATM    9  C6  UNL     1      17.923   1.663  51.923  1.00  0.00     0.008 C 
BRANCH   9  10
HETATM   10  C7  UNL     1      19.351   1.238  51.699  1.00  0.00     0.019 C 
HETATM   11  C8  UNL     1      19.555   1.073  50.243  1.00  0.00     0.014 C 
HETATM   12  C9  UNL     1      20.754   1.569  50.015  1.00  0.00     0.048 C 
HETATM   13  C10 UNL     1      21.451   1.346  48.768  1.00  0.00     0.099 C 
HETATM   14  C11 UNL     1      21.191   2.333  51.205  1.00  0.00    -0.037 C 
HETATM   15  N2  UNL     1      22.023   1.179  47.777  1.00  0.00    -0.191 NA
HETATM   16  C12 UNL     1      20.274   2.305  52.145  1.00  0.00     0.000 C 
HETATM   17  C13 UNL     1      22.499   3.020  51.320  1.00  0.00     0.067 C 
HETATM   18  C14 UNL     1      23.406   2.273  52.245  1.00  0.00    -0.021 C 
HETATM   19  C15 UNL     1      23.228   1.168  52.991  1.00  0.00     0.015 C 
HETATM   20  C16 UNL     1      22.321   0.085  53.429  1.00  0.00     0.007 C 
HETATM   21 BR1  UNL     1      23.179  -1.168  54.651  1.00  0.00    -0.051 Br
HETATM   22  C17 UNL     1      21.036  -0.038  53.035  1.00  0.00    -0.006 C 
HETATM   23  C18 UNL     1      19.664  -0.005  52.499  1.00  0.00     0.050 C 
ENDBRANCH   9  10
ENDBRANCH   6   8
ENDBRANCH   3   4
TORSDOF 3
ENDMDL
MODEL 7
REMARK VINA RESULT:      -7.3      4.969      8.769
REMARK  3 active torsions:
REMARK  status: ('A' for Active; 'I' for Inactive)
REMARK    1  A    between atoms: C3_3  and  C4_4 
REMARK       I    between atoms: C4_4  and  N1_6 
REMARK    2  A    between atoms: N1_6  and  C5_7 
REMARK    3  A    between atoms: C6_8  and  C7_9 
ROOT
HETATM    1  C1  UNL     1      16.001  -5.091  53.848  1.00  0.00     0.112 C 
HETATM    2  C2  UNL     1      16.815  -3.887  53.620  1.00  0.00    -0.101 C 
HETATM    3  C3  UNL     1      17.491  -2.895  53.452  1.00  0.00    -0.006 C 
ENDROOT
BRANCH   3   4
HETATM    4  C4  UNL     1      18.285  -1.711  53.258  1.00  0.00     0.300 C 
HETATM    5  O1  UNL     1      19.218  -1.380  54.009  1.00  0.00    -0.258 OA
HETATM    6  N1  UNL     1      17.964  -0.880  52.130  1.00  0.00    -0.327 N 
HETATM    7  H4  UNL     1      17.176  -1.116  51.456  1.00  0.00     0.169 HD
BRANCH   6   8
HETATM    8  C5  UNL     1      18.811   0.283  52.016  1.00  0.00     0.089 C 
HETATM    9  C6  UNL     1      20.116   0.233  51.696  1.00  0.00     0.008 C 
BRANCH   9  10
HETATM   10  C7  UNL     1      21.331   1.094  51.470  1.00  0.00     0.019 C 
HETATM   11  C8  UNL     1      21.325   1.529  50.056  1.00  0.00     0.014 C 
HETATM   12  C9  UNL     1      21.718   2.786  50.090  1.00  0.00     0.048 C 
HETATM   13  C10 UNL     1      22.117   3.498  48.897  1.00  0.00     0.099 C 
HETATM   14  C11 UNL     1      21.667   3.265  51.490  1.00  0.00    -0.037 C 
HETATM   15  N2  UNL     1      22.441   4.083  47.953  1.00  0.00    -0.191 NA
HETATM   16  C12 UNL     1      21.248   2.317  52.297  1.00  0.00     0.000 C 
HETATM   17  C13 UNL     1      22.054   4.630  51.918  1.00  0.00     0.067 C 
HETATM   18  C14 UNL     1      23.365   4.603  52.638  1.00  0.00    -0.021 C 
HETATM   19  C15 UNL     1      24.184   3.596  52.989  1.00  0.00     0.015 C 
HETATM   20  C16 UNL     1      24.450   2.140  52.995  1.00  0.00     0.007 C 
HETATM   21 BR1  UNL     1      26.148   1.687  53.837  1.00  0.00    -0.051 Br
HETATM   22  C17 UNL     1      23.616   1.212  52.480  1.00  0.00    -0.006 C 
HETATM   23  C18 UNL     1      22.586   0.353  51.870  1.00  0.00     0.050 C 
ENDBRANCH   9  10
ENDBRANCH   6   8
ENDBRANCH   3   4
TORSDOF 3
ENDMDL
MODEL 8
REMARK VINA RESULT:      -7.3      4.392      6.252
REMARK  3 active torsions:
REMARK  status: ('A' for Active; 'I' for Inactive)
REMARK    1  A    between atoms: C3_3  and  C4_4 
REMARK       I    between atoms: C4_4  and  N1_6 
REMARK    2  A    between atoms: N1_6  and  C5_7 
REMARK    3  A    between atoms: C6_8  and  C7_9 
ROOT
HETATM    1  C1  UNL     1      30.925  10.154  48.836  1.00  0.00     0.112 C 
HETATM    2  C2  UNL     1      29.593   9.660  49.217  1.00  0.00    -0.101 C 
HETATM    3  C3  UNL     1      28.491   9.250  49.511  1.00  0.00    -0.006 C 
ENDROOT
BRANCH   3   4
HETATM    4  C4  UNL     1      27.177   8.773  49.856  1.00  0.00     0.300 C 
HETATM    5  O1  UNL     1      26.259   9.514  50.244  1.00  0.00    -0.258 OA
HETATM    6  N1  UNL     1      26.938   7.361  49.736  1.00  0.00    -0.327 N 
HETATM    7  H4  UNL     1      27.688   6.683  49.409  1.00  0.00     0.169 HD
BRANCH   6   8
HETATM    8  C5  UNL     1      25.596   6.975  50.102  1.00  0.00     0.089 C 
HETATM    9  C6  UNL     1      25.127   5.718  50.020  1.00  0.00     0.008 C 
BRANCH   9  10
HETATM   10  C7  UNL     1      23.903   4.874  50.262  1.00  0.00     0.019 C 
HETATM   11  C8  UNL     1      22.713   5.739  50.106  1.00  0.00     0.014 C 
HETATM   12  C9  UNL     1      21.836   4.991  49.469  1.00  0.00     0.048 C 
HETATM   13  C10 UNL     1      20.442   5.361  49.368  1.00  0.00     0.099 C 
HETATM   14  C11 UNL     1      22.526   3.797  48.930  1.00  0.00    -0.037 C 
HETATM   15  N2  UNL     1      19.324   5.641  49.277  1.00  0.00    -0.191 NA
HETATM   16  C12 UNL     1      23.805   3.816  49.232  1.00  0.00     0.000 C 
HETATM   17  C13 UNL     1      21.853   2.719  48.168  1.00  0.00     0.067 C 
HETATM   18  C14 UNL     1      21.720   1.487  49.005  1.00  0.00    -0.021 C 
HETATM   19  C15 UNL     1      22.131   1.190  50.251  1.00  0.00     0.015 C 
HETATM   20  C16 UNL     1      22.831   1.630  51.478  1.00  0.00     0.007 C 
HETATM   21 BR1  UNL     1      22.833   0.270  52.874  1.00  0.00    -0.051 Br
HETATM   22  C17 UNL     1      23.412   2.839  51.631  1.00  0.00    -0.006 C 
HETATM   23  C18 UNL     1      23.986   4.196  51.610  1.00  0.00     0.050 C 
ENDBRANCH   9  10
ENDBRANCH   6   8
ENDBRANCH   3   4
TORSDOF 3
ENDMDL
MODEL 9
REMARK VINA RESULT:      -7.1      5.768     10.262
REMARK  3 active torsions:
REMARK  status: ('A' for Active; 'I' for Inactive)
REMARK    1  A    between atoms: C3_3  and  C4_4 
REMARK       I    between atoms: C4_4  and  N1_6 
REMARK    2  A    between atoms: N1_6  and  C5_7 
REMARK    3  A    between atoms: C6_8  and  C7_9 
ROOT
HETATM    1  C1  UNL     1      22.561   4.684  52.043  1.00  0.00     0.112 C 
HETATM    2  C2  UNL     1      23.803   4.534  51.267  1.00  0.00    -0.101 C 
HETATM    3  C3  UNL     1      24.814   4.401  50.614  1.00  0.00    -0.006 C 
ENDROOT
BRANCH   3   4
HETATM    4  C4  UNL     1      26.016   4.230  49.840  1.00  0.00     0.300 C 
HETATM    5  O1  UNL     1      26.522   3.123  49.595  1.00  0.00    -0.258 OA
HETATM    6  N1  UNL     1      26.647   5.419  49.334  1.00  0.00    -0.327 N 
HETATM    7  H4  UNL     1      26.256   6.391  49.515  1.00  0.00     0.169 HD
BRANCH   6   8
HETATM    8  C5  UNL     1      27.842   5.152  48.572  1.00  0.00     0.089 C 
HETATM    9  C6  UNL     1      28.867   6.014  48.454  1.00  0.00     0.008 C 
BRANCH   9  10
HETATM   10  C7  UNL     1      30.224   6.189  47.824  1.00  0.00     0.019 C 
HETATM   11  C8  UNL     1      30.088   7.150  46.707  1.00  0.00     0.014 C 
HETATM   12  C9  UNL     1      31.168   7.902  46.779  1.00  0.00     0.048 C 
HETATM   13  C10 UNL     1      31.562   8.781  45.701  1.00  0.00     0.099 C 
HETATM   14  C11 UNL     1      31.828   7.669  48.083  1.00  0.00    -0.037 C 
HETATM   15  N2  UNL     1      31.894   9.491  44.850  1.00  0.00    -0.191 NA
HETATM   16  C12 UNL     1      31.162   6.790  48.798  1.00  0.00     0.000 C 
HETATM   17  C13 UNL     1      33.083   8.330  48.512  1.00  0.00     0.067 C 
HETATM   18  C14 UNL     1      34.225   7.366  48.473  1.00  0.00    -0.021 C 
HETATM   19  C15 UNL     1      34.294   6.055  48.178  1.00  0.00     0.015 C 
HETATM   20  C16 UNL     1      33.582   4.821  47.780  1.00  0.00     0.007 C 
HETATM   21 BR1  UNL     1      34.776   3.295  47.572  1.00  0.00    -0.051 Br
HETATM   22  C17 UNL     1      32.249   4.743  47.578  1.00  0.00    -0.006 C 
HETATM   23  C18 UNL     1      30.790   4.852  47.406  1.00  0.00     0.050 C 
ENDBRANCH   9  10
ENDBRANCH   6   8
ENDBRANCH   3   4
TORSDOF 3
ENDMDL
