MODEL 1
REMARK VINA RESULT:      -7.6      0.000      0.000
REMARK  6 active torsions:
REMARK  status: ('A' for Active; 'I' for Inactive)
REMARK    1  A    between atoms: N1_2  and  C2_3 
REMARK    2  A    between atoms: C4_5  and  O1_6 
REMARK    3  A    between atoms: O1_6  and  C5_7 
REMARK    4  A    between atoms: C9_12  and  C10_13 
REMARK    5  A    between atoms: C10_13  and  C12_15 
REMARK       I    between atoms: C12_15  and  N2_17 
REMARK    6  A    between atoms: N2_17  and  C13_18 
ROOT
HETATM    1  C2  UNL     1      23.895  -0.017  53.183  1.00  0.00     0.037 A 
HETATM    2  C3  UNL     1      24.966  -0.438  53.944  1.00  0.00     0.067 A 
HETATM    3  C4  UNL     1      26.074   0.371  54.218  1.00  0.00     0.081 A 
HETATM    4  C7  UNL     1      26.094   1.650  53.700  1.00  0.00     0.038 A 
HETATM    5  C8  UNL     1      25.038   2.108  52.932  1.00  0.00     0.013 A 
HETATM    6  C9  UNL     1      23.971   1.266  52.694  1.00  0.00    -0.019 A 
ENDROOT
BRANCH   6   7
HETATM    7  C10 UNL     1      22.875   1.787  51.874  1.00  0.00     0.109 C 
HETATM    8  C11 UNL     1      21.694   2.251  52.684  1.00  0.00     0.025 C 
BRANCH   7   9
HETATM    9  C12 UNL     1      23.308   2.940  51.032  1.00  0.00     0.230 C 
HETATM   10  O3  UNL     1      23.113   4.134  51.367  1.00  0.00    -0.272 OA
HETATM   11  N2  UNL     1      23.984   2.803  49.773  1.00  0.00    -0.327 N 
HETATM   12  H15 UNL     1      24.182   1.831  49.428  1.00  0.00     0.169 HD
BRANCH  11  13
HETATM   13  C13 UNL     1      24.246   4.109  49.250  1.00  0.00     0.034 A 
HETATM   14  C14 UNL     1      23.392   4.985  48.607  1.00  0.00     0.029 A 
HETATM   15  C15 UNL     1      23.881   6.201  48.189  1.00  0.00     0.002 A 
HETATM   16  C16 UNL     1      25.185   6.561  48.394  1.00  0.00     0.000 A 
HETATM   17  C17 UNL     1      26.064   5.696  49.039  1.00  0.00     0.002 A 
HETATM   18  C18 UNL     1      25.559   4.474  49.454  1.00  0.00     0.029 A 
ENDBRANCH  11  13
ENDBRANCH   7   9
ENDBRANCH   6   7
BRANCH   1  19
HETATM   19  N1  UNL     1      22.810  -0.908  52.958  1.00  0.00    -0.394 N 
HETATM   20  C1  UNL     1      21.925  -1.280  54.045  1.00  0.00     0.146 C 
HETATM   21  H4  UNL     1      22.601  -1.328  52.026  1.00  0.00     0.159 HD
ENDBRANCH   1  19
BRANCH   3  22
HETATM   22  O1  UNL     1      27.130  -0.123  55.002  1.00  0.00    -0.279 OA
BRANCH  22  23
HETATM   23  C5  UNL     1      28.440   0.243  54.778  1.00  0.00     0.260 C 
HETATM   24  C6  UNL     1      29.145  -0.735  53.897  1.00  0.00     0.126 C 
HETATM   25  O2  UNL     1      29.014   1.276  55.247  1.00  0.00    -0.265 OA
ENDBRANCH  22  23
ENDBRANCH   3  22
TORSDOF 6
ENDMDL
MODEL 2
REMARK VINA RESULT:      -7.3      2.010      2.730
REMARK  6 active torsions:
REMARK  status: ('A' for Active; 'I' for Inactive)
REMARK    1  A    between atoms: N1_2  and  C2_3 
REMARK    2  A    between atoms: C4_5  and  O1_6 
REMARK    3  A    between atoms: O1_6  and  C5_7 
REMARK    4  A    between atoms: C9_12  and  C10_13 
REMARK    5  A    between atoms: C10_13  and  C12_15 
REMARK       I    between atoms: C12_15  and  N2_17 
REMARK    6  A    between atoms: N2_17  and  C13_18 
ROOT
HETATM    1  C2  UNL     1      25.385   1.128  52.059  1.00  0.00     0.037 A 
HETATM    2  C3  UNL     1      26.431   0.763  52.882  1.00  0.00     0.067 A 
HETATM    3  C4  UNL     1      26.262  -0.015  54.033  1.00  0.00     0.081 A 
HETATM    4  C7  UNL     1      24.988  -0.437  54.356  1.00  0.00     0.038 A 
HETATM    5  C8  UNL     1      23.914  -0.091  53.555  1.00  0.00     0.013 A 
HETATM    6  C9  UNL     1      24.140   0.679  52.432  1.00  0.00    -0.019 A 
ENDROOT
BRANCH   6   7
HETATM    7  C10 UNL     1      22.977   1.026  51.612  1.00  0.00     0.109 C 
HETATM    8  C11 UNL     1      21.671   0.585  52.215  1.00  0.00     0.025 C 
BRANCH   7   9
HETATM    9  C12 UNL     1      22.877   2.497  51.380  1.00  0.00     0.230 C 
HETATM   10  O3  UNL     1      22.928   3.007  50.235  1.00  0.00    -0.272 OA
HETATM   11  N2  UNL     1      22.712   3.463  52.429  1.00  0.00    -0.327 N 
HETATM   12  H15 UNL     1      22.661   3.109  53.417  1.00  0.00     0.169 HD
BRANCH  11  13
HETATM   13  C13 UNL     1      22.654   4.768  51.844  1.00  0.00     0.034 A 
HETATM   14  C14 UNL     1      21.562   5.470  51.369  1.00  0.00     0.029 A 
HETATM   15  C15 UNL     1      21.759   6.726  50.845  1.00  0.00     0.002 A 
HETATM   16  C16 UNL     1      23.002   7.293  50.783  1.00  0.00     0.000 A 
HETATM   17  C17 UNL     1      24.117   6.607  51.256  1.00  0.00     0.002 A 
HETATM   18  C18 UNL     1      23.905   5.342  51.780  1.00  0.00     0.029 A 
ENDBRANCH  11  13
ENDBRANCH   7   9
ENDBRANCH   6   7
BRANCH   1  19
HETATM   19  N1  UNL     1      25.651   1.920  50.909  1.00  0.00    -0.394 N 
HETATM   20  C1  UNL     1      26.659   2.962  50.949  1.00  0.00     0.146 C 
HETATM   21  H4  UNL     1      25.149   1.795  50.003  1.00  0.00     0.159 HD
ENDBRANCH   1  19
BRANCH   3  22
HETATM   22  O1  UNL     1      27.372  -0.350  54.825  1.00  0.00    -0.279 OA
BRANCH  22  23
HETATM   23  C5  UNL     1      28.608   0.230  54.634  1.00  0.00     0.260 C 
HETATM   24  C6  UNL     1      29.527  -0.666  53.869  1.00  0.00     0.126 C 
HETATM   25  O2  UNL     1      28.962   1.380  55.043  1.00  0.00    -0.265 OA
ENDBRANCH  22  23
ENDBRANCH   3  22
TORSDOF 6
ENDMDL
MODEL 3
REMARK VINA RESULT:      -7.3      2.836      7.027
REMARK  6 active torsions:
REMARK  status: ('A' for Active; 'I' for Inactive)
REMARK    1  A    between atoms: N1_2  and  C2_3 
REMARK    2  A    between atoms: C4_5  and  O1_6 
REMARK    3  A    between atoms: O1_6  and  C5_7 
REMARK    4  A    between atoms: C9_12  and  C10_13 
REMARK    5  A    between atoms: C10_13  and  C12_15 
REMARK       I    between atoms: C12_15  and  N2_17 
REMARK    6  A    between atoms: N2_17  and  C13_18 
ROOT
HETATM    1  C2  UNL     1      24.149   5.654  50.856  1.00  0.00     0.037 A 
HETATM    2  C3  UNL     1      24.757   6.708  50.205  1.00  0.00     0.067 A 
HETATM    3  C4  UNL     1      25.845   6.546  49.339  1.00  0.00     0.081 A 
HETATM    4  C7  UNL     1      26.330   5.271  49.130  1.00  0.00     0.038 A 
HETATM    5  C8  UNL     1      25.746   4.190  49.765  1.00  0.00     0.013 A 
HETATM    6  C9  UNL     1      24.676   4.409  50.609  1.00  0.00    -0.019 A 
ENDROOT
BRANCH   6   7
HETATM    7  C10 UNL     1      24.089   3.238  51.265  1.00  0.00     0.109 C 
HETATM    8  C11 UNL     1      23.453   2.272  50.302  1.00  0.00     0.025 C 
BRANCH   7   9
HETATM    9  C12 UNL     1      25.101   2.472  52.049  1.00  0.00     0.230 C 
HETATM   10  O3  UNL     1      25.515   1.341  51.696  1.00  0.00    -0.272 OA
HETATM   11  N2  UNL     1      25.696   2.944  53.266  1.00  0.00    -0.327 N 
HETATM   12  H15 UNL     1      25.397   3.885  53.624  1.00  0.00     0.169 HD
BRANCH  11  13
HETATM   13  C13 UNL     1      26.617   1.956  53.738  1.00  0.00     0.034 A 
HETATM   14  C14 UNL     1      26.374   0.799  54.453  1.00  0.00     0.029 A 
HETATM   15  C15 UNL     1      27.438  -0.003  54.798  1.00  0.00     0.002 A 
HETATM   16  C16 UNL     1      28.722   0.316  54.452  1.00  0.00     0.000 A 
HETATM   17  C17 UNL     1      28.992   1.475  53.731  1.00  0.00     0.002 A 
HETATM   18  C18 UNL     1      27.913   2.275  53.391  1.00  0.00     0.029 A 
ENDBRANCH  11  13
ENDBRANCH   7   9
ENDBRANCH   6   7
BRANCH   1  19
HETATM   19  N1  UNL     1      23.047   5.913  51.717  1.00  0.00    -0.394 N 
HETATM   20  C1  UNL     1      21.748   6.250  51.169  1.00  0.00     0.146 C 
HETATM   21  H4  UNL     1      23.116   5.874  52.757  1.00  0.00     0.159 HD
ENDBRANCH   1  19
BRANCH   3  22
HETATM   22  O1  UNL     1      26.414   7.664  48.709  1.00  0.00    -0.279 OA
BRANCH  22  23
HETATM   23  C5  UNL     1      27.619   8.197  49.114  1.00  0.00     0.260 C 
HETATM   24  C6  UNL     1      27.436   9.245  50.163  1.00  0.00     0.126 C 
HETATM   25  O2  UNL     1      28.765   7.866  48.674  1.00  0.00    -0.265 OA
ENDBRANCH  22  23
ENDBRANCH   3  22
TORSDOF 6
ENDMDL
MODEL 4
REMARK VINA RESULT:      -7.3      1.685      2.268
REMARK  6 active torsions:
REMARK  status: ('A' for Active; 'I' for Inactive)
REMARK    1  A    between atoms: N1_2  and  C2_3 
REMARK    2  A    between atoms: C4_5  and  O1_6 
REMARK    3  A    between atoms: O1_6  and  C5_7 
REMARK    4  A    between atoms: C9_12  and  C10_13 
REMARK    5  A    between atoms: C10_13  and  C12_15 
REMARK       I    between atoms: C12_15  and  N2_17 
REMARK    6  A    between atoms: N2_17  and  C13_18 
ROOT
HETATM    1  C2  UNL     1      22.978   1.580  51.862  1.00  0.00     0.037 A 
HETATM    2  C3  UNL     1      23.544   0.514  52.530  1.00  0.00     0.067 A 
HETATM    3  C4  UNL     1      24.678   0.635  53.342  1.00  0.00     0.081 A 
HETATM    4  C7  UNL     1      25.254   1.882  53.479  1.00  0.00     0.038 A 
HETATM    5  C8  UNL     1      24.714   2.975  52.824  1.00  0.00     0.013 A 
HETATM    6  C9  UNL     1      23.595   2.796  52.037  1.00  0.00    -0.019 A 
ENDROOT
BRANCH   6   7
HETATM    7  C10 UNL     1      23.057   3.977  51.358  1.00  0.00     0.109 C 
HETATM    8  C11 UNL     1      22.434   4.972  52.301  1.00  0.00     0.025 C 
BRANCH   7   9
HETATM    9  C12 UNL     1      24.107   4.705  50.587  1.00  0.00     0.230 C 
HETATM   10  O3  UNL     1      24.582   5.804  50.962  1.00  0.00    -0.272 OA
HETATM   11  N2  UNL     1      24.672   4.227  49.358  1.00  0.00    -0.327 N 
HETATM   12  H15 UNL     1      24.322   3.311  48.982  1.00  0.00     0.169 HD
BRANCH  11  13
HETATM   13  C13 UNL     1      25.644   5.174  48.903  1.00  0.00     0.034 A 
HETATM   14  C14 UNL     1      25.465   6.466  48.445  1.00  0.00     0.029 A 
HETATM   15  C15 UNL     1      26.568   7.190  48.058  1.00  0.00     0.002 A 
HETATM   16  C16 UNL     1      27.830   6.666  48.115  1.00  0.00     0.000 A 
HETATM   17  C17 UNL     1      28.036   5.368  48.572  1.00  0.00     0.002 A 
HETATM   18  C18 UNL     1      26.918   4.648  48.959  1.00  0.00     0.029 A 
ENDBRANCH  11  13
ENDBRANCH   7   9
ENDBRANCH   6   7
BRANCH   1  19
HETATM   19  N1  UNL     1      21.824   1.363  51.060  1.00  0.00    -0.394 N 
HETATM   20  C1  UNL     1      20.906   0.283  51.367  1.00  0.00     0.146 C 
HETATM   21  H4  UNL     1      21.586   1.953  50.234  1.00  0.00     0.159 HD
ENDBRANCH   1  19
BRANCH   3  22
HETATM   22  O1  UNL     1      25.201  -0.494  53.993  1.00  0.00    -0.279 OA
BRANCH  22  23
HETATM   23  C5  UNL     1      26.534  -0.836  53.906  1.00  0.00     0.260 C 
HETATM   24  C6  UNL     1      26.832  -1.585  52.648  1.00  0.00     0.126 C 
HETATM   25  O2  UNL     1      27.428  -0.568  54.768  1.00  0.00    -0.265 OA
ENDBRANCH  22  23
ENDBRANCH   3  22
TORSDOF 6
ENDMDL
MODEL 5
REMARK VINA RESULT:      -7.3      3.283      7.173
REMARK  6 active torsions:
REMARK  status: ('A' for Active; 'I' for Inactive)
REMARK    1  A    between atoms: N1_2  and  C2_3 
REMARK    2  A    between atoms: C4_5  and  O1_6 
REMARK    3  A    between atoms: O1_6  and  C5_7 
REMARK    4  A    between atoms: C9_12  and  C10_13 
REMARK    5  A    between atoms: C10_13  and  C12_15 
REMARK       I    between atoms: C12_15  and  N2_17 
REMARK    6  A    between atoms: N2_17  and  C13_18 
ROOT
HETATM    1  C2  UNL     1      26.039   6.613  49.157  1.00  0.00     0.037 A 
HETATM    2  C3  UNL     1      27.277   6.977  48.669  1.00  0.00     0.067 A 
HETATM    3  C4  UNL     1      28.277   6.050  48.353  1.00  0.00     0.081 A 
HETATM    4  C7  UNL     1      28.007   4.709  48.539  1.00  0.00     0.038 A 
HETATM    5  C8  UNL     1      26.777   4.306  49.026  1.00  0.00     0.013 A 
HETATM    6  C9  UNL     1      25.829   5.265  49.321  1.00  0.00    -0.019 A 
ENDROOT
BRANCH   6   7
HETATM    7  C10 UNL     1      24.540   4.797  49.838  1.00  0.00     0.109 C 
HETATM    8  C11 UNL     1      23.525   4.539  48.757  1.00  0.00     0.025 C 
BRANCH   7   9
HETATM    9  C12 UNL     1      24.678   3.534  50.619  1.00  0.00     0.230 C 
HETATM   10  O3  UNL     1      24.070   2.479  50.314  1.00  0.00    -0.272 OA
HETATM   11  N2  UNL     1      25.509   3.398  51.781  1.00  0.00    -0.327 N 
HETATM   12  H15 UNL     1      26.050   4.241  52.098  1.00  0.00     0.169 HD
BRANCH  11  13
HETATM   13  C13 UNL     1      25.398   2.057  52.269  1.00  0.00     0.034 A 
HETATM   14  C14 UNL     1      24.424   1.491  53.070  1.00  0.00     0.029 A 
HETATM   15  C15 UNL     1      24.536   0.163  53.412  1.00  0.00     0.002 A 
HETATM   16  C16 UNL     1      25.581  -0.606  52.979  1.00  0.00     0.000 A 
HETATM   17  C17 UNL     1      26.574  -0.059  52.171  1.00  0.00     0.002 A 
HETATM   18  C18 UNL     1      26.451   1.279  51.835  1.00  0.00     0.029 A 
ENDBRANCH  11  13
ENDBRANCH   7   9
ENDBRANCH   6   7
BRANCH   1  19
HETATM   19  N1  UNL     1      25.083   7.625  49.449  1.00  0.00    -0.394 N 
HETATM   20  C1  UNL     1      25.506   8.904  49.986  1.00  0.00     0.146 C 
HETATM   21  H4  UNL     1      24.059   7.502  49.296  1.00  0.00     0.159 HD
ENDBRANCH   1  19
BRANCH   3  22
HETATM   22  O1  UNL     1      29.515   6.491  47.860  1.00  0.00    -0.279 OA
BRANCH  22  23
HETATM   23  C5  UNL     1      30.665   6.439  48.619  1.00  0.00     0.260 C 
HETATM   24  C6  UNL     1      31.123   7.801  49.025  1.00  0.00     0.126 C 
HETATM   25  O2  UNL     1      31.289   5.382  48.952  1.00  0.00    -0.265 OA
ENDBRANCH  22  23
ENDBRANCH   3  22
TORSDOF 6
ENDMDL
MODEL 6
REMARK VINA RESULT:      -7.1      2.427      7.350
REMARK  6 active torsions:
REMARK  status: ('A' for Active; 'I' for Inactive)
REMARK    1  A    between atoms: N1_2  and  C2_3 
REMARK    2  A    between atoms: C4_5  and  O1_6 
REMARK    3  A    between atoms: O1_6  and  C5_7 
REMARK    4  A    between atoms: C9_12  and  C10_13 
REMARK    5  A    between atoms: C10_13  and  C12_15 
REMARK       I    between atoms: C12_15  and  N2_17 
REMARK    6  A    between atoms: N2_17  and  C13_18 
ROOT
HETATM    1  C2  UNL     1      23.445   3.072  50.458  1.00  0.00     0.037 A 
HETATM    2  C3  UNL     1      23.169   3.235  49.116  1.00  0.00     0.067 A 
HETATM    3  C4  UNL     1      22.376   2.343  48.385  1.00  0.00     0.081 A 
HETATM    4  C7  UNL     1      21.846   1.250  49.040  1.00  0.00     0.038 A 
HETATM    5  C8  UNL     1      22.101   1.053  50.386  1.00  0.00     0.013 A 
HETATM    6  C9  UNL     1      22.891   1.965  51.057  1.00  0.00    -0.019 A 
ENDROOT
BRANCH   6   7
HETATM    7  C10 UNL     1      23.139   1.720  52.479  1.00  0.00     0.109 C 
HETATM    8  C11 UNL     1      22.111   0.824  53.116  1.00  0.00     0.025 C 
BRANCH   7   9
HETATM    9  C12 UNL     1      24.472   1.090  52.712  1.00  0.00     0.230 C 
HETATM   10  O3  UNL     1      25.479   1.360  52.014  1.00  0.00    -0.272 OA
HETATM   11  N2  UNL     1      24.733   0.127  53.743  1.00  0.00    -0.327 N 
HETATM   12  H15 UNL     1      23.935  -0.149  54.368  1.00  0.00     0.169 HD
BRANCH  11  13
HETATM   13  C13 UNL     1      26.109  -0.258  53.672  1.00  0.00     0.034 A 
HETATM   14  C14 UNL     1      26.733  -1.135  52.806  1.00  0.00     0.029 A 
HETATM   15  C15 UNL     1      28.086  -1.346  52.936  1.00  0.00     0.002 A 
HETATM   16  C16 UNL     1      28.824  -0.710  53.896  1.00  0.00     0.000 A 
HETATM   17  C17 UNL     1      28.219   0.179  54.780  1.00  0.00     0.002 A 
HETATM   18  C18 UNL     1      26.856   0.381  54.640  1.00  0.00     0.029 A 
ENDBRANCH  11  13
ENDBRANCH   7   9
ENDBRANCH   6   7
BRANCH   1  19
HETATM   19  N1  UNL     1      24.260   4.031  51.120  1.00  0.00    -0.394 N 
HETATM   20  C1  UNL     1      23.760   5.366  51.384  1.00  0.00     0.146 C 
HETATM   21  H4  UNL     1      25.231   3.827  51.442  1.00  0.00     0.159 HD
ENDBRANCH   1  19
BRANCH   3  22
HETATM   22  O1  UNL     1      22.136   2.571  47.020  1.00  0.00    -0.279 OA
BRANCH  22  23
HETATM   23  C5  UNL     1      21.326   3.597  46.581  1.00  0.00     0.260 C 
HETATM   24  C6  UNL     1      21.936   4.330  45.431  1.00  0.00     0.126 C 
HETATM   25  O2  UNL     1      20.196   3.913  47.069  1.00  0.00    -0.265 OA
ENDBRANCH  22  23
ENDBRANCH   3  22
TORSDOF 6
ENDMDL
MODEL 7
REMARK VINA RESULT:      -7.0      2.901      6.747
REMARK  6 active torsions:
REMARK  status: ('A' for Active; 'I' for Inactive)
REMARK    1  A    between atoms: N1_2  and  C2_3 
REMARK    2  A    between atoms: C4_5  and  O1_6 
REMARK    3  A    between atoms: O1_6  and  C5_7 
REMARK    4  A    between atoms: C9_12  and  C10_13 
REMARK    5  A    between atoms: C10_13  and  C12_15 
REMARK       I    between atoms: C12_15  and  N2_17 
REMARK    6  A    between atoms: N2_17  and  C13_18 
ROOT
HETATM    1  C2  UNL     1      22.089   1.799  50.500  1.00  0.00     0.037 A 
HETATM    2  C3  UNL     1      21.032   0.918  50.603  1.00  0.00     0.067 A 
HETATM    3  C4  UNL     1      20.640   0.333  51.813  1.00  0.00     0.081 A 
HETATM    4  C7  UNL     1      21.346   0.655  52.954  1.00  0.00     0.038 A 
HETATM    5  C8  UNL     1      22.412   1.534  52.890  1.00  0.00     0.013 A 
HETATM    6  C9  UNL     1      22.755   2.081  51.670  1.00  0.00    -0.019 A 
ENDROOT
BRANCH   6   7
HETATM    7  C10 UNL     1      23.891   3.005  51.644  1.00  0.00     0.109 C 
HETATM    8  C11 UNL     1      23.628   4.292  52.378  1.00  0.00     0.025 C 
BRANCH   7   9
HETATM    9  C12 UNL     1      25.115   2.400  52.246  1.00  0.00     0.230 C 
HETATM   10  O3  UNL     1      25.770   1.492  51.680  1.00  0.00    -0.272 OA
HETATM   11  N2  UNL     1      25.660   2.792  53.514  1.00  0.00    -0.327 N 
HETATM   12  H15 UNL     1      25.163   3.549  54.048  1.00  0.00     0.169 HD
BRANCH  11  13
HETATM   13  C13 UNL     1      26.828   2.007  53.773  1.00  0.00     0.034 A 
HETATM   14  C14 UNL     1      28.145   2.254  53.435  1.00  0.00     0.029 A 
HETATM   15  C15 UNL     1      29.106   1.339  53.798  1.00  0.00     0.002 A 
HETATM   16  C16 UNL     1      28.790   0.197  54.481  1.00  0.00     0.000 A 
HETATM   17  C17 UNL     1      27.471  -0.074  54.834  1.00  0.00     0.002 A 
HETATM   18  C18 UNL     1      26.513   0.855  54.462  1.00  0.00     0.029 A 
ENDBRANCH  11  13
ENDBRANCH   7   9
ENDBRANCH   6   7
BRANCH   1  19
HETATM   19  N1  UNL     1      22.415   2.347  49.229  1.00  0.00    -0.394 N 
HETATM   20  C1  UNL     1      21.978   1.692  48.011  1.00  0.00     0.146 C 
HETATM   21  H4  UNL     1      22.969   3.222  49.111  1.00  0.00     0.159 HD
ENDBRANCH   1  19
BRANCH   3  22
HETATM   22  O1  UNL     1      19.553  -0.555  51.844  1.00  0.00    -0.279 OA
BRANCH  22  23
HETATM   23  C5  UNL     1      18.275  -0.137  52.148  1.00  0.00     0.260 C 
HETATM   24  C6  UNL     1      17.564  -1.119  53.021  1.00  0.00     0.126 C 
HETATM   25  O2  UNL     1      17.732   0.942  51.752  1.00  0.00    -0.265 OA
ENDBRANCH  22  23
ENDBRANCH   3  22
TORSDOF 6
ENDMDL
MODEL 8
REMARK VINA RESULT:      -6.9      3.107      7.512
REMARK  6 active torsions:
REMARK  status: ('A' for Active; 'I' for Inactive)
REMARK    1  A    between atoms: N1_2  and  C2_3 
REMARK    2  A    between atoms: C4_5  and  O1_6 
REMARK    3  A    between atoms: O1_6  and  C5_7 
REMARK    4  A    between atoms: C9_12  and  C10_13 
REMARK    5  A    between atoms: C10_13  and  C12_15 
REMARK       I    between atoms: C12_15  and  N2_17 
REMARK    6  A    between atoms: N2_17  and  C13_18 
ROOT
HETATM    1  C2  UNL     1      25.108   6.773  50.375  1.00  0.00     0.037 A 
HETATM    2  C3  UNL     1      26.148   7.495  49.827  1.00  0.00     0.067 A 
HETATM    3  C4  UNL     1      27.111   6.929  48.984  1.00  0.00     0.081 A 
HETATM    4  C7  UNL     1      27.014   5.584  48.690  1.00  0.00     0.038 A 
HETATM    5  C8  UNL     1      25.985   4.827  49.222  1.00  0.00     0.013 A 
HETATM    6  C9  UNL     1      25.063   5.439  50.047  1.00  0.00    -0.019 A 
ENDROOT
BRANCH   6   7
HETATM    7  C10 UNL     1      23.991   4.602  50.592  1.00  0.00     0.109 C 
HETATM    8  C11 UNL     1      22.911   4.293  49.591  1.00  0.00     0.025 C 
BRANCH   7   9
HETATM    9  C12 UNL     1      24.506   3.295  51.097  1.00  0.00     0.230 C 
HETATM   10  O3  UNL     1      24.134   2.194  50.625  1.00  0.00    -0.272 OA
HETATM   11  N2  UNL     1      25.466   3.169  52.156  1.00  0.00    -0.327 N 
HETATM   12  H15 UNL     1      25.823   4.051  52.601  1.00  0.00     0.169 HD
BRANCH  11  13
HETATM   13  C13 UNL     1      25.726   1.778  52.374  1.00  0.00     0.034 A 
HETATM   14  C14 UNL     1      26.662   0.956  51.776  1.00  0.00     0.029 A 
HETATM   15  C15 UNL     1      26.723  -0.365  52.156  1.00  0.00     0.002 A 
HETATM   16  C16 UNL     1      25.885  -0.879  53.107  1.00  0.00     0.000 A 
HETATM   17  C17 UNL     1      24.935  -0.071  53.724  1.00  0.00     0.002 A 
HETATM   18  C18 UNL     1      24.883   1.256  53.331  1.00  0.00     0.029 A 
ENDBRANCH  11  13
ENDBRANCH   7   9
ENDBRANCH   6   7
BRANCH   1  19
HETATM   19  N1  UNL     1      24.175   7.433  51.220  1.00  0.00    -0.394 N 
HETATM   20  C1  UNL     1      22.972   8.027  50.667  1.00  0.00     0.146 C 
HETATM   21  H4  UNL     1      24.303   7.521  52.252  1.00  0.00     0.159 HD
ENDBRANCH   1  19
BRANCH   3  22
HETATM   22  O1  UNL     1      28.143   7.725  48.460  1.00  0.00    -0.279 OA
BRANCH  22  23
HETATM   23  C5  UNL     1      27.888   8.839  47.690  1.00  0.00     0.260 C 
HETATM   24  C6  UNL     1      27.380   8.470  46.334  1.00  0.00     0.126 C 
HETATM   25  O2  UNL     1      28.053  10.047  48.051  1.00  0.00    -0.265 OA
ENDBRANCH  22  23
ENDBRANCH   3  22
TORSDOF 6
ENDMDL
MODEL 9
REMARK VINA RESULT:      -6.8      2.919      4.573
REMARK  6 active torsions:
REMARK  status: ('A' for Active; 'I' for Inactive)
REMARK    1  A    between atoms: N1_2  and  C2_3 
REMARK    2  A    between atoms: C4_5  and  O1_6 
REMARK    3  A    between atoms: O1_6  and  C5_7 
REMARK    4  A    between atoms: C9_12  and  C10_13 
REMARK    5  A    between atoms: C10_13  and  C12_15 
REMARK       I    between atoms: C12_15  and  N2_17 
REMARK    6  A    between atoms: N2_17  and  C13_18 
ROOT
HETATM    1  C2  UNL     1      24.594   2.208  52.592  1.00  0.00     0.037 A 
HETATM    2  C3  UNL     1      23.667   1.268  52.994  1.00  0.00     0.067 A 
HETATM    3  C4  UNL     1      22.630   0.816  52.171  1.00  0.00     0.081 A 
HETATM    4  C7  UNL     1      22.532   1.337  50.897  1.00  0.00     0.038 A 
HETATM    5  C8  UNL     1      23.442   2.282  50.458  1.00  0.00     0.013 A 
HETATM    6  C9  UNL     1      24.445   2.691  51.314  1.00  0.00    -0.019 A 
ENDROOT
BRANCH   6   7
HETATM    7  C10 UNL     1      25.386   3.695  50.812  1.00  0.00     0.109 C 
HETATM    8  C11 UNL     1      26.181   3.225  49.623  1.00  0.00     0.025 C 
BRANCH   7   9
HETATM    9  C12 UNL     1      24.695   4.954  50.406  1.00  0.00     0.230 C 
HETATM   10  O3  UNL     1      24.453   5.236  49.207  1.00  0.00    -0.272 OA
HETATM   11  N2  UNL     1      24.244   5.953  51.331  1.00  0.00    -0.327 N 
HETATM   12  H15 UNL     1      24.413   5.785  52.354  1.00  0.00     0.169 HD
BRANCH  11  13
HETATM   13  C13 UNL     1      23.629   7.015  50.594  1.00  0.00     0.034 A 
HETATM   14  C14 UNL     1      24.215   8.031  49.863  1.00  0.00     0.029 A 
HETATM   15  C15 UNL     1      23.404   8.947  49.233  1.00  0.00     0.002 A 
HETATM   16  C16 UNL     1      22.041   8.875  49.312  1.00  0.00     0.000 A 
HETATM   17  C17 UNL     1      21.427   7.861  50.041  1.00  0.00     0.002 A 
HETATM   18  C18 UNL     1      22.254   6.946  50.672  1.00  0.00     0.029 A 
ENDBRANCH  11  13
ENDBRANCH   7   9
ENDBRANCH   6   7
BRANCH   1  19
HETATM   19  N1  UNL     1      25.615   2.607  53.497  1.00  0.00    -0.394 N 
HETATM   20  C1  UNL     1      26.649   1.672  53.899  1.00  0.00     0.146 C 
HETATM   21  H4  UNL     1      25.673   3.565  53.905  1.00  0.00     0.159 HD
ENDBRANCH   1  19
BRANCH   3  22
HETATM   22  O1  UNL     1      21.722  -0.145  52.646  1.00  0.00    -0.279 OA
BRANCH  22  23
HETATM   23  C5  UNL     1      21.398  -0.247  53.982  1.00  0.00     0.260 C 
HETATM   24  C6  UNL     1      22.054  -1.427  54.621  1.00  0.00     0.126 C 
HETATM   25  O2  UNL     1      20.639   0.543  54.626  1.00  0.00    -0.265 OA
ENDBRANCH  22  23
ENDBRANCH   3  22
TORSDOF 6
ENDMDL
