MODEL 1
REMARK VINA RESULT:      -7.5      0.000      0.000
REMARK  8 active torsions:
REMARK  status: ('A' for Active; 'I' for Inactive)
REMARK    1  A    between atoms: O1_2  and  C2_3 
REMARK    2  A    between atoms: C3_4  and  O2_5 
REMARK    3  A    between atoms: C5_7  and  O3_8 
REMARK    4  A    between atoms: O3_8  and  C6_9 
REMARK    5  A    between atoms: C6_9  and  N1_10 
REMARK    6  A    between atoms: N1_10  and  C7_11 
REMARK    7  A    between atoms: C11_17  and  O4_18 
REMARK    8  A    between atoms: C13_20  and  O5_21 
ROOT
HETATM    1  C7  UNL     1      25.605   2.941  50.928  1.00  0.00     0.139 A 
HETATM    2  N2  UNL     1      24.455   2.948  50.254  1.00  0.00    -0.224 NA
HETATM    3  C8  UNL     1      23.391   2.186  50.537  1.00  0.00     0.235 A 
HETATM    4  N3  UNL     1      23.417   1.328  51.565  1.00  0.00    -0.241 NA
HETATM    5  C9  UNL     1      24.535   1.248  52.307  1.00  0.00     0.075 A 
HETATM    6  C10 UNL     1      24.585   0.365  53.379  1.00  0.00     0.072 A 
HETATM    7  C11 UNL     1      25.731   0.261  54.165  1.00  0.00     0.103 A 
HETATM    8  C13 UNL     1      26.803   1.067  53.834  1.00  0.00     0.102 A 
HETATM    9  C15 UNL     1      26.733   1.937  52.767  1.00  0.00     0.057 A 
HETATM   10  C16 UNL     1      25.608   2.049  51.983  1.00  0.00     0.041 A 
ENDROOT
BRANCH   1  11
HETATM   11  N1  UNL     1      26.703   3.773  50.581  1.00  0.00    -0.352 N 
HETATM   12  H9  UNL     1      27.563   3.899  51.117  1.00  0.00     0.163 HD
BRANCH  11  13
HETATM   13  C6  UNL     1      26.587   4.522  49.335  1.00  0.00     0.299 C 
BRANCH  13  14
HETATM   14  O3  UNL     1      27.865   4.422  48.721  1.00  0.00    -0.328 OA
BRANCH  14  15
HETATM   15  C5  UNL     1      28.484   5.601  48.348  1.00  0.00     0.118 C 
HETATM   16  C3  UNL     1      29.899   5.904  48.414  1.00  0.00     0.136 C 
HETATM   17  C2  UNL     1      30.050   7.234  48.327  1.00  0.00     0.105 C 
HETATM   18  C18 UNL     1      28.686   7.787  48.202  1.00  0.00     0.055 C 
HETATM   19  C17 UNL     1      27.983   6.722  47.854  1.00  0.00     0.016 C 
BRANCH  16  20
HETATM   20  O2  UNL     1      30.958   4.990  48.546  1.00  0.00    -0.351 OA
HETATM   21  C4  UNL     1      31.514   4.471  47.344  1.00  0.00     0.210 C 
ENDBRANCH  16  20
BRANCH  17  22
HETATM   22  O1  UNL     1      31.298   7.799  48.363  1.00  0.00    -0.353 OA
HETATM   23  C1  UNL     1      31.786   8.256  49.609  1.00  0.00     0.210 C 
ENDBRANCH  17  22
ENDBRANCH  14  15
ENDBRANCH  13  14
ENDBRANCH  11  13
ENDBRANCH   1  11
BRANCH   8  24
HETATM   24  O5  UNL     1      27.930   0.962  54.611  1.00  0.00    -0.353 OA
HETATM   25  C14 UNL     1      29.061   0.247  54.198  1.00  0.00     0.210 C 
ENDBRANCH   8  24
BRANCH   7  26
HETATM   26  O4  UNL     1      25.817  -0.610  55.243  1.00  0.00    -0.353 OA
HETATM   27  C12 UNL     1      24.633  -1.230  55.696  1.00  0.00     0.210 C 
ENDBRANCH   7  26
TORSDOF 8
ENDMDL
MODEL 2
REMARK VINA RESULT:      -7.5      4.510      8.741
REMARK  8 active torsions:
REMARK  status: ('A' for Active; 'I' for Inactive)
REMARK    1  A    between atoms: O1_2  and  C2_3 
REMARK    2  A    between atoms: C3_4  and  O2_5 
REMARK    3  A    between atoms: C5_7  and  O3_8 
REMARK    4  A    between atoms: O3_8  and  C6_9 
REMARK    5  A    between atoms: C6_9  and  N1_10 
REMARK    6  A    between atoms: N1_10  and  C7_11 
REMARK    7  A    between atoms: C11_17  and  O4_18 
REMARK    8  A    between atoms: C13_20  and  O5_21 
ROOT
HETATM    1  C7  UNL     1      24.121   1.984  51.764  1.00  0.00     0.139 A 
HETATM    2  N2  UNL     1      24.512   2.849  50.829  1.00  0.00    -0.224 NA
HETATM    3  C8  UNL     1      25.780   3.058  50.454  1.00  0.00     0.235 A 
HETATM    4  N3  UNL     1      26.783   2.378  51.023  1.00  0.00    -0.241 NA
HETATM    5  C9  UNL     1      26.490   1.480  51.980  1.00  0.00     0.075 A 
HETATM    6  C10 UNL     1      27.514   0.762  52.585  1.00  0.00     0.072 A 
HETATM    7  C11 UNL     1      27.239  -0.175  53.579  1.00  0.00     0.103 A 
HETATM    8  C13 UNL     1      25.915  -0.355  53.932  1.00  0.00     0.102 A 
HETATM    9  C15 UNL     1      24.914   0.367  53.319  1.00  0.00     0.057 A 
HETATM   10  C16 UNL     1      25.172   1.294  52.337  1.00  0.00     0.041 A 
ENDROOT
BRANCH   1  11
HETATM   11  N1  UNL     1      22.757   1.804  52.122  1.00  0.00    -0.352 N 
HETATM   12  H9  UNL     1      22.403   1.488  53.025  1.00  0.00     0.163 HD
BRANCH  11  13
HETATM   13  C6  UNL     1      21.768   2.102  51.093  1.00  0.00     0.299 C 
BRANCH  13  14
HETATM   14  O3  UNL     1      21.208   0.844  50.741  1.00  0.00    -0.328 OA
BRANCH  14  15
HETATM   15  C5  UNL     1      19.942   0.557  51.218  1.00  0.00     0.118 C 
HETATM   16  C3  UNL     1      19.600   0.022  52.521  1.00  0.00     0.136 C 
HETATM   17  C2  UNL     1      18.349  -0.459  52.464  1.00  0.00     0.105 C 
HETATM   18  C18 UNL     1      17.888  -0.220  51.082  1.00  0.00     0.055 C 
HETATM   19  C17 UNL     1      18.754   0.682  50.650  1.00  0.00     0.016 C 
BRANCH  16  20
HETATM   20  O2  UNL     1      20.412  -0.005  53.667  1.00  0.00    -0.351 OA
HETATM   21  C4  UNL     1      21.290  -1.116  53.810  1.00  0.00     0.210 C 
ENDBRANCH  16  20
BRANCH  17  22
HETATM   22  O1  UNL     1      17.769  -1.027  53.568  1.00  0.00    -0.353 OA
HETATM   23  C1  UNL     1      17.765  -2.438  53.666  1.00  0.00     0.210 C 
ENDBRANCH  17  22
ENDBRANCH  14  15
ENDBRANCH  13  14
ENDBRANCH  11  13
ENDBRANCH   1  11
BRANCH   8  24
HETATM   24  O5  UNL     1      25.648  -1.279  54.911  1.00  0.00    -0.353 OA
HETATM   25  C14 UNL     1      24.490  -1.225  55.696  1.00  0.00     0.210 C 
ENDBRANCH   8  24
BRANCH   7  26
HETATM   26  O4  UNL     1      28.236  -0.910  54.204  1.00  0.00    -0.353 OA
HETATM   27  C12 UNL     1      29.580  -0.551  53.966  1.00  0.00     0.210 C 
ENDBRANCH   7  26
TORSDOF 8
ENDMDL
MODEL 3
REMARK VINA RESULT:      -7.3      2.128      3.816
REMARK  8 active torsions:
REMARK  status: ('A' for Active; 'I' for Inactive)
REMARK    1  A    between atoms: O1_2  and  C2_3 
REMARK    2  A    between atoms: C3_4  and  O2_5 
REMARK    3  A    between atoms: C5_7  and  O3_8 
REMARK    4  A    between atoms: O3_8  and  C6_9 
REMARK    5  A    between atoms: C6_9  and  N1_10 
REMARK    6  A    between atoms: N1_10  and  C7_11 
REMARK    7  A    between atoms: C11_17  and  O4_18 
REMARK    8  A    between atoms: C13_20  and  O5_21 
ROOT
HETATM    1  C7  UNL     1      22.933   1.664  52.544  1.00  0.00     0.139 A 
HETATM    2  N2  UNL     1      21.975   0.755  52.364  1.00  0.00    -0.224 NA
HETATM    3  C8  UNL     1      22.065  -0.538  52.700  1.00  0.00     0.235 A 
HETATM    4  N3  UNL     1      23.178  -1.021  53.266  1.00  0.00    -0.241 NA
HETATM    5  C9  UNL     1      24.203  -0.181  53.490  1.00  0.00     0.075 A 
HETATM    6  C10 UNL     1      25.368  -0.660  54.076  1.00  0.00     0.072 A 
HETATM    7  C11 UNL     1      26.446   0.189  54.319  1.00  0.00     0.103 A 
HETATM    8  C13 UNL     1      26.306   1.514  53.955  1.00  0.00     0.102 A 
HETATM    9  C15 UNL     1      25.141   1.970  53.375  1.00  0.00     0.057 A 
HETATM   10  C16 UNL     1      24.070   1.143  53.129  1.00  0.00     0.041 A 
ENDROOT
BRANCH   1  11
HETATM   11  N1  UNL     1      22.780   3.025  52.166  1.00  0.00    -0.352 N 
HETATM   12  H9  UNL     1      22.531   3.802  52.780  1.00  0.00     0.163 HD
BRANCH  11  13
HETATM   13  C6  UNL     1      23.001   3.342  50.760  1.00  0.00     0.299 C 
BRANCH  13  14
HETATM   14  O3  UNL     1      23.712   4.572  50.763  1.00  0.00    -0.328 OA
BRANCH  14  15
HETATM   15  C5  UNL     1      25.018   4.551  50.307  1.00  0.00     0.118 C 
HETATM   16  C3  UNL     1      25.679   5.560  49.503  1.00  0.00     0.136 C 
HETATM   17  C2  UNL     1      26.779   5.016  48.963  1.00  0.00     0.105 C 
HETATM   18  C18 UNL     1      26.814   3.619  49.442  1.00  0.00     0.055 C 
HETATM   19  C17 UNL     1      25.976   3.653  50.465  1.00  0.00     0.016 C 
BRANCH  16  20
HETATM   20  O2  UNL     1      25.267   6.889  49.302  1.00  0.00    -0.351 OA
HETATM   21  C4  UNL     1      25.089   7.691  50.463  1.00  0.00     0.210 C 
ENDBRANCH  16  20
BRANCH  17  22
HETATM   22  O1  UNL     1      27.599   5.756  48.152  1.00  0.00    -0.353 OA
HETATM   23  C1  UNL     1      28.991   5.521  48.220  1.00  0.00     0.210 C 
ENDBRANCH  17  22
ENDBRANCH  14  15
ENDBRANCH  13  14
ENDBRANCH  11  13
ENDBRANCH   1  11
BRANCH   8  24
HETATM   24  O5  UNL     1      27.370   2.347  54.196  1.00  0.00    -0.353 OA
HETATM   25  C14 UNL     1      28.391   2.547  53.260  1.00  0.00     0.210 C 
ENDBRANCH   8  24
BRANCH   7  26
HETATM   26  O4  UNL     1      27.625  -0.255  54.903  1.00  0.00    -0.353 OA
HETATM   27  C12 UNL     1      28.627  -0.787  54.065  1.00  0.00     0.210 C 
ENDBRANCH   7  26
TORSDOF 8
ENDMDL
MODEL 4
REMARK VINA RESULT:      -7.2      2.675      4.058
REMARK  8 active torsions:
REMARK  status: ('A' for Active; 'I' for Inactive)
REMARK    1  A    between atoms: O1_2  and  C2_3 
REMARK    2  A    between atoms: C3_4  and  O2_5 
REMARK    3  A    between atoms: C5_7  and  O3_8 
REMARK    4  A    between atoms: O3_8  and  C6_9 
REMARK    5  A    between atoms: C6_9  and  N1_10 
REMARK    6  A    between atoms: N1_10  and  C7_11 
REMARK    7  A    between atoms: C11_17  and  O4_18 
REMARK    8  A    between atoms: C13_20  and  O5_21 
ROOT
HETATM    1  C7  UNL     1      26.809   2.224  52.107  1.00  0.00     0.139 A 
HETATM    2  N2  UNL     1      28.008   1.941  52.616  1.00  0.00    -0.224 NA
HETATM    3  C8  UNL     1      28.271   0.930  53.454  1.00  0.00     0.235 A 
HETATM    4  N3  UNL     1      27.298   0.100  53.850  1.00  0.00    -0.241 NA
HETATM    5  C9  UNL     1      26.051   0.303  53.391  1.00  0.00     0.075 A 
HETATM    6  C10 UNL     1      25.026  -0.545  53.789  1.00  0.00     0.072 A 
HETATM    7  C11 UNL     1      23.725  -0.357  53.328  1.00  0.00     0.103 A 
HETATM    8  C13 UNL     1      23.502   0.699  52.466  1.00  0.00     0.102 A 
HETATM    9  C15 UNL     1      24.535   1.530  52.082  1.00  0.00     0.057 A 
HETATM   10  C16 UNL     1      25.823   1.356  52.530  1.00  0.00     0.041 A 
ENDROOT
BRANCH   1  11
HETATM   11  N1  UNL     1      26.590   3.313  51.221  1.00  0.00    -0.352 N 
HETATM   12  H9  UNL     1      26.462   4.292  51.481  1.00  0.00     0.163 HD
BRANCH  11  13
HETATM   13  C6  UNL     1      26.542   2.998  49.798  1.00  0.00     0.299 C 
BRANCH  13  14
HETATM   14  O3  UNL     1      25.857   4.089  49.198  1.00  0.00    -0.328 OA
BRANCH  14  15
HETATM   15  C5  UNL     1      26.554   5.276  49.058  1.00  0.00     0.118 C 
HETATM   16  C3  UNL     1      26.179   6.575  49.579  1.00  0.00     0.136 C 
HETATM   17  C2  UNL     1      26.889   7.511  48.930  1.00  0.00     0.105 C 
HETATM   18  C18 UNL     1      27.737   6.777  47.968  1.00  0.00     0.055 C 
HETATM   19  C17 UNL     1      27.694   5.543  48.442  1.00  0.00     0.016 C 
BRANCH  16  20
HETATM   20  O2  UNL     1      25.241   6.847  50.589  1.00  0.00    -0.351 OA
HETATM   21  C4  UNL     1      23.872   6.894  50.201  1.00  0.00     0.210 C 
ENDBRANCH  16  20
BRANCH  17  22
HETATM   22  O1  UNL     1      26.731   8.839  49.227  1.00  0.00    -0.353 OA
HETATM   23  C1  UNL     1      27.650   9.434  50.121  1.00  0.00     0.210 C 
ENDBRANCH  17  22
ENDBRANCH  14  15
ENDBRANCH  13  14
ENDBRANCH  11  13
ENDBRANCH   1  11
BRANCH   8  24
HETATM   24  O5  UNL     1      22.219   0.881  52.014  1.00  0.00    -0.353 OA
HETATM   25  C14 UNL     1      21.929   1.135  50.667  1.00  0.00     0.210 C 
ENDBRANCH   8  24
BRANCH   7  26
HETATM   26  O4  UNL     1      22.676  -1.185  53.704  1.00  0.00    -0.353 OA
HETATM   27  C12 UNL     1      21.956  -0.862  54.875  1.00  0.00     0.210 C 
ENDBRANCH   7  26
TORSDOF 8
ENDMDL
MODEL 5
REMARK VINA RESULT:      -7.2      4.715      6.573
REMARK  8 active torsions:
REMARK  status: ('A' for Active; 'I' for Inactive)
REMARK    1  A    between atoms: O1_2  and  C2_3 
REMARK    2  A    between atoms: C3_4  and  O2_5 
REMARK    3  A    between atoms: C5_7  and  O3_8 
REMARK    4  A    between atoms: O3_8  and  C6_9 
REMARK    5  A    between atoms: C6_9  and  N1_10 
REMARK    6  A    between atoms: N1_10  and  C7_11 
REMARK    7  A    between atoms: C11_17  and  O4_18 
REMARK    8  A    between atoms: C13_20  and  O5_21 
ROOT
HETATM    1  C7  UNL     1      22.967   1.867  51.268  1.00  0.00     0.139 A 
HETATM    2  N2  UNL     1      22.495   2.702  50.343  1.00  0.00    -0.224 NA
HETATM    3  C8  UNL     1      21.210   2.804  49.979  1.00  0.00     0.235 A 
HETATM    4  N3  UNL     1      20.275   2.036  50.550  1.00  0.00    -0.241 NA
HETATM    5  C9  UNL     1      20.652   1.158  51.497  1.00  0.00     0.075 A 
HETATM    6  C10 UNL     1      19.698   0.350  52.103  1.00  0.00     0.072 A 
HETATM    7  C11 UNL     1      20.062  -0.567  53.087  1.00  0.00     0.103 A 
HETATM    8  C13 UNL     1      21.398  -0.636  53.429  1.00  0.00     0.102 A 
HETATM    9  C15 UNL     1      22.329   0.176  52.815  1.00  0.00     0.057 A 
HETATM   10  C16 UNL     1      21.984   1.085  51.843  1.00  0.00     0.041 A 
ENDROOT
BRANCH   1  11
HETATM   11  N1  UNL     1      24.344   1.803  51.614  1.00  0.00    -0.352 N 
HETATM   12  H9  UNL     1      24.995   1.053  51.377  1.00  0.00     0.163 HD
BRANCH  11  13
HETATM   13  C6  UNL     1      24.876   2.919  52.386  1.00  0.00     0.299 C 
BRANCH  13  14
HETATM   14  O3  UNL     1      25.380   2.339  53.581  1.00  0.00    -0.328 OA
BRANCH  14  15
HETATM   15  C5  UNL     1      26.688   1.888  53.565  1.00  0.00     0.118 C 
HETATM   16  C3  UNL     1      27.173   0.601  54.019  1.00  0.00     0.136 C 
HETATM   17  C2  UNL     1      28.501   0.686  54.188  1.00  0.00     0.105 C 
HETATM   18  C18 UNL     1      28.864   2.073  53.830  1.00  0.00     0.055 C 
HETATM   19  C17 UNL     1      27.800   2.475  53.154  1.00  0.00     0.016 C 
BRANCH  16  20
HETATM   20  O2  UNL     1      26.415  -0.559  54.251  1.00  0.00    -0.351 OA
HETATM   21  C4  UNL     1      25.851  -1.200  53.112  1.00  0.00     0.210 C 
ENDBRANCH  16  20
BRANCH  17  22
HETATM   22  O1  UNL     1      29.223  -0.398  54.616  1.00  0.00    -0.353 OA
HETATM   23  C1  UNL     1      29.828  -1.222  53.639  1.00  0.00     0.210 C 
ENDBRANCH  17  22
ENDBRANCH  14  15
ENDBRANCH  13  14
ENDBRANCH  11  13
ENDBRANCH   1  11
BRANCH   8  24
HETATM   24  O5  UNL     1      21.752  -1.540  54.399  1.00  0.00    -0.353 OA
HETATM   25  C14 UNL     1      22.808  -1.309  55.289  1.00  0.00     0.210 C 
ENDBRANCH   8  24
BRANCH   7  26
HETATM   26  O4  UNL     1      19.136  -1.389  53.714  1.00  0.00    -0.353 OA
HETATM   27  C12 UNL     1      17.835  -1.467  53.172  1.00  0.00     0.210 C 
ENDBRANCH   7  26
TORSDOF 8
ENDMDL
MODEL 6
REMARK VINA RESULT:      -7.2      3.711      5.784
REMARK  8 active torsions:
REMARK  status: ('A' for Active; 'I' for Inactive)
REMARK    1  A    between atoms: O1_2  and  C2_3 
REMARK    2  A    between atoms: C3_4  and  O2_5 
REMARK    3  A    between atoms: C5_7  and  O3_8 
REMARK    4  A    between atoms: O3_8  and  C6_9 
REMARK    5  A    between atoms: C6_9  and  N1_10 
REMARK    6  A    between atoms: N1_10  and  C7_11 
REMARK    7  A    between atoms: C11_17  and  O4_18 
REMARK    8  A    between atoms: C13_20  and  O5_21 
ROOT
HETATM    1  C7  UNL     1      26.654   2.388  52.062  1.00  0.00     0.139 A 
HETATM    2  N2  UNL     1      27.901   2.119  52.445  1.00  0.00    -0.224 NA
HETATM    3  C8  UNL     1      28.262   1.105  53.243  1.00  0.00     0.235 A 
HETATM    4  N3  UNL     1      27.346   0.257  53.727  1.00  0.00    -0.241 NA
HETATM    5  C9  UNL     1      26.056   0.445  53.396  1.00  0.00     0.075 A 
HETATM    6  C10 UNL     1      25.088  -0.422  53.887  1.00  0.00     0.072 A 
HETATM    7  C11 UNL     1      23.744  -0.250  53.560  1.00  0.00     0.103 A 
HETATM    8  C13 UNL     1      23.422   0.810  52.735  1.00  0.00     0.102 A 
HETATM    9  C15 UNL     1      24.398   1.659  52.258  1.00  0.00     0.057 A 
HETATM   10  C16 UNL     1      25.727   1.501  52.573  1.00  0.00     0.041 A 
ENDROOT
BRANCH   1  11
HETATM   11  N1  UNL     1      26.331   3.481  51.213  1.00  0.00    -0.352 N 
HETATM   12  H9  UNL     1      26.059   4.419  51.508  1.00  0.00     0.163 HD
BRANCH  11  13
HETATM   13  C6  UNL     1      26.395   3.234  49.777  1.00  0.00     0.299 C 
BRANCH  13  14
HETATM   14  O3  UNL     1      25.620   4.268  49.187  1.00  0.00    -0.328 OA
BRANCH  14  15
HETATM   15  C5  UNL     1      24.254   4.239  49.402  1.00  0.00     0.118 C 
HETATM   16  C3  UNL     1      23.538   4.780  50.540  1.00  0.00     0.136 C 
HETATM   17  C2  UNL     1      22.312   4.234  50.566  1.00  0.00     0.105 C 
HETATM   18  C18 UNL     1      22.255   3.319  49.407  1.00  0.00     0.055 C 
HETATM   19  C17 UNL     1      23.273   3.735  48.671  1.00  0.00     0.016 C 
BRANCH  16  20
HETATM   20  O2  UNL     1      24.011   5.715  51.475  1.00  0.00    -0.351 OA
HETATM   21  C4  UNL     1      24.295   7.023  50.991  1.00  0.00     0.210 C 
ENDBRANCH  16  20
BRANCH  17  22
HETATM   22  O1  UNL     1      21.417   4.572  51.546  1.00  0.00    -0.353 OA
HETATM   23  C1  UNL     1      20.188   3.875  51.594  1.00  0.00     0.210 C 
ENDBRANCH  17  22
ENDBRANCH  14  15
ENDBRANCH  13  14
ENDBRANCH  11  13
ENDBRANCH   1  11
BRANCH   8  24
HETATM   24  O5  UNL     1      22.097   0.976  52.416  1.00  0.00    -0.353 OA
HETATM   25  C14 UNL     1      21.509   0.343  51.314  1.00  0.00     0.210 C 
ENDBRANCH   8  24
BRANCH   7  26
HETATM   26  O4  UNL     1      22.751  -1.097  54.032  1.00  0.00    -0.353 OA
HETATM   27  C12 UNL     1      22.785  -1.476  55.391  1.00  0.00     0.210 C 
ENDBRANCH   7  26
TORSDOF 8
ENDMDL
MODEL 7
REMARK VINA RESULT:      -7.1      4.073      7.001
REMARK  8 active torsions:
REMARK  status: ('A' for Active; 'I' for Inactive)
REMARK    1  A    between atoms: O1_2  and  C2_3 
REMARK    2  A    between atoms: C3_4  and  O2_5 
REMARK    3  A    between atoms: C5_7  and  O3_8 
REMARK    4  A    between atoms: O3_8  and  C6_9 
REMARK    5  A    between atoms: C6_9  and  N1_10 
REMARK    6  A    between atoms: N1_10  and  C7_11 
REMARK    7  A    between atoms: C11_17  and  O4_18 
REMARK    8  A    between atoms: C13_20  and  O5_21 
ROOT
HETATM    1  C7  UNL     1      23.423  -0.123  53.449  1.00  0.00     0.139 A 
HETATM    2  N2  UNL     1      23.005  -0.904  54.444  1.00  0.00    -0.224 NA
HETATM    3  C8  UNL     1      23.781  -1.395  55.418  1.00  0.00     0.235 A 
HETATM    4  N3  UNL     1      25.090  -1.116  55.455  1.00  0.00    -0.241 NA
HETATM    5  C9  UNL     1      25.609  -0.333  54.493  1.00  0.00     0.075 A 
HETATM    6  C10 UNL     1      26.965  -0.031  54.511  1.00  0.00     0.072 A 
HETATM    7  C11 UNL     1      27.528   0.778  53.526  1.00  0.00     0.103 A 
HETATM    8  C13 UNL     1      26.687   1.260  52.541  1.00  0.00     0.102 A 
HETATM    9  C15 UNL     1      25.344   0.948  52.542  1.00  0.00     0.057 A 
HETATM   10  C16 UNL     1      24.775   0.151  53.508  1.00  0.00     0.041 A 
ENDROOT
BRANCH   1  11
HETATM   11  N1  UNL     1      22.551   0.369  52.440  1.00  0.00    -0.352 N 
HETATM   12  H9  UNL     1      22.825   0.755  51.536  1.00  0.00     0.163 HD
BRANCH  11  13
HETATM   13  C6  UNL     1      21.122   0.315  52.728  1.00  0.00     0.299 C 
BRANCH  13  14
HETATM   14  O3  UNL     1      20.776   1.630  53.140  1.00  0.00    -0.328 OA
BRANCH  14  15
HETATM   15  C5  UNL     1      20.507   2.555  52.147  1.00  0.00     0.118 C 
HETATM   16  C3  UNL     1      21.444   3.473  51.531  1.00  0.00     0.136 C 
HETATM   17  C2  UNL     1      20.746   4.434  50.909  1.00  0.00     0.105 C 
HETATM   18  C18 UNL     1      19.323   4.113  51.141  1.00  0.00     0.055 C 
HETATM   19  C17 UNL     1      19.380   2.846  51.518  1.00  0.00     0.016 C 
BRANCH  16  20
HETATM   20  O2  UNL     1      22.847   3.400  51.559  1.00  0.00    -0.351 OA
HETATM   21  C4  UNL     1      23.505   4.046  52.643  1.00  0.00     0.210 C 
ENDBRANCH  16  20
BRANCH  17  22
HETATM   22  O1  UNL     1      21.388   5.441  50.238  1.00  0.00    -0.353 OA
HETATM   23  C1  UNL     1      21.531   6.689  50.887  1.00  0.00     0.210 C 
ENDBRANCH  17  22
ENDBRANCH  14  15
ENDBRANCH  13  14
ENDBRANCH  11  13
ENDBRANCH   1  11
BRANCH   8  24
HETATM   24  O5  UNL     1      27.247   2.057  51.574  1.00  0.00    -0.353 OA
HETATM   25  C14 UNL     1      26.472   2.841  50.711  1.00  0.00     0.210 C 
ENDBRANCH   8  24
BRANCH   7  26
HETATM   26  O4  UNL     1      28.878   1.101  53.513  1.00  0.00    -0.353 OA
HETATM   27  C12 UNL     1      29.818   0.052  53.598  1.00  0.00     0.210 C 
ENDBRANCH   7  26
TORSDOF 8
ENDMDL
MODEL 8
REMARK VINA RESULT:      -7.0      2.147      3.368
REMARK  8 active torsions:
REMARK  status: ('A' for Active; 'I' for Inactive)
REMARK    1  A    between atoms: O1_2  and  C2_3 
REMARK    2  A    between atoms: C3_4  and  O2_5 
REMARK    3  A    between atoms: C5_7  and  O3_8 
REMARK    4  A    between atoms: O3_8  and  C6_9 
REMARK    5  A    between atoms: C6_9  and  N1_10 
REMARK    6  A    between atoms: N1_10  and  C7_11 
REMARK    7  A    between atoms: C11_17  and  O4_18 
REMARK    8  A    between atoms: C13_20  and  O5_21 
ROOT
HETATM    1  C7  UNL     1      26.634   2.377  51.935  1.00  0.00     0.139 A 
HETATM    2  N2  UNL     1      27.848   2.072  52.392  1.00  0.00    -0.224 NA
HETATM    3  C8  UNL     1      28.135   1.028  53.181  1.00  0.00     0.235 A 
HETATM    4  N3  UNL     1      27.173   0.187  53.578  1.00  0.00    -0.241 NA
HETATM    5  C9  UNL     1      25.912   0.411  53.169  1.00  0.00     0.075 A 
HETATM    6  C10 UNL     1      24.897  -0.450  53.569  1.00  0.00     0.072 A 
HETATM    7  C11 UNL     1      23.582  -0.241  53.158  1.00  0.00     0.103 A 
HETATM    8  C13 UNL     1      23.335   0.848  52.345  1.00  0.00     0.102 A 
HETATM    9  C15 UNL     1      24.357   1.690  51.960  1.00  0.00     0.057 A 
HETATM   10  C16 UNL     1      25.659   1.496  52.357  1.00  0.00     0.041 A 
ENDROOT
BRANCH   1  11
HETATM   11  N1  UNL     1      26.389   3.500  51.099  1.00  0.00    -0.352 N 
HETATM   12  H9  UNL     1      26.181   4.452  51.405  1.00  0.00     0.163 HD
BRANCH  11  13
HETATM   13  C6  UNL     1      26.440   3.267  49.660  1.00  0.00     0.299 C 
BRANCH  13  14
HETATM   14  O3  UNL     1      27.557   4.016  49.201  1.00  0.00    -0.328 OA
BRANCH  14  15
HETATM   15  C5  UNL     1      27.309   5.283  48.704  1.00  0.00     0.118 C 
HETATM   16  C3  UNL     1      28.275   6.203  48.137  1.00  0.00     0.136 C 
HETATM   17  C2  UNL     1      27.732   7.429  48.124  1.00  0.00     0.105 C 
HETATM   18  C18 UNL     1      26.381   7.278  48.702  1.00  0.00     0.055 C 
HETATM   19  C17 UNL     1      26.184   5.973  48.614  1.00  0.00     0.016 C 
BRANCH  16  20
HETATM   20  O2  UNL     1      29.565   5.899  47.671  1.00  0.00    -0.351 OA
HETATM   21  C4  UNL     1      30.616   5.910  48.630  1.00  0.00     0.210 C 
ENDBRANCH  16  20
BRANCH  17  22
HETATM   22  O1  UNL     1      28.435   8.499  47.634  1.00  0.00    -0.353 OA
HETATM   23  C1  UNL     1      28.469   8.688  46.234  1.00  0.00     0.210 C 
ENDBRANCH  17  22
ENDBRANCH  14  15
ENDBRANCH  13  14
ENDBRANCH  11  13
ENDBRANCH   1  11
BRANCH   8  24
HETATM   24  O5  UNL     1      22.038   1.050  51.943  1.00  0.00    -0.353 OA
HETATM   25  C14 UNL     1      21.603   0.756  50.645  1.00  0.00     0.210 C 
ENDBRANCH   8  24
BRANCH   7  26
HETATM   26  O4  UNL     1      22.543  -1.080  53.538  1.00  0.00    -0.353 OA
HETATM   27  C12 UNL     1      22.045  -0.974  54.854  1.00  0.00     0.210 C 
ENDBRANCH   7  26
TORSDOF 8
ENDMDL
MODEL 9
REMARK VINA RESULT:      -7.0      1.901      7.954
REMARK  8 active torsions:
REMARK  status: ('A' for Active; 'I' for Inactive)
REMARK    1  A    between atoms: O1_2  and  C2_3 
REMARK    2  A    between atoms: C3_4  and  O2_5 
REMARK    3  A    between atoms: C5_7  and  O3_8 
REMARK    4  A    between atoms: O3_8  and  C6_9 
REMARK    5  A    between atoms: C6_9  and  N1_10 
REMARK    6  A    between atoms: N1_10  and  C7_11 
REMARK    7  A    between atoms: C11_17  and  O4_18 
REMARK    8  A    between atoms: C13_20  and  O5_21 
ROOT
HETATM    1  C7  UNL     1      25.964   4.813  48.921  1.00  0.00     0.139 A 
HETATM    2  N2  UNL     1      24.798   5.446  48.805  1.00  0.00    -0.224 NA
HETATM    3  C8  UNL     1      24.644   6.710  48.390  1.00  0.00     0.235 A 
HETATM    4  N3  UNL     1      25.705   7.452  48.048  1.00  0.00    -0.241 NA
HETATM    5  C9  UNL     1      26.929   6.901  48.131  1.00  0.00     0.075 A 
HETATM    6  C10 UNL     1      28.044   7.652  47.783  1.00  0.00     0.072 A 
HETATM    7  C11 UNL     1      29.324   7.106  47.859  1.00  0.00     0.103 A 
HETATM    8  C13 UNL     1      29.432   5.799  48.293  1.00  0.00     0.102 A 
HETATM    9  C15 UNL     1      28.312   5.071  48.634  1.00  0.00     0.057 A 
HETATM   10  C16 UNL     1      27.043   5.597  48.563  1.00  0.00     0.041 A 
ENDROOT
BRANCH   1  11
HETATM   11  N1  UNL     1      26.067   3.468  49.368  1.00  0.00    -0.352 N 
HETATM   12  H9  UNL     1      26.270   2.650  48.792  1.00  0.00     0.163 HD
BRANCH  11  13
HETATM   13  C6  UNL     1      25.860   3.236  50.793  1.00  0.00     0.299 C 
BRANCH  13  14
HETATM   14  O3  UNL     1      27.071   2.651  51.253  1.00  0.00    -0.328 OA
BRANCH  14  15
HETATM   15  C5  UNL     1      26.968   1.525  52.050  1.00  0.00     0.118 C 
HETATM   16  C3  UNL     1      28.017   0.917  52.843  1.00  0.00     0.136 C 
HETATM   17  C2  UNL     1      27.639  -0.331  53.158  1.00  0.00     0.105 C 
HETATM   18  C18 UNL     1      26.309  -0.517  52.542  1.00  0.00     0.055 C 
HETATM   19  C17 UNL     1      25.939   0.729  52.296  1.00  0.00     0.016 C 
BRANCH  16  20
HETATM   20  O2  UNL     1      29.232   1.503  53.235  1.00  0.00    -0.351 OA
HETATM   21  C4  UNL     1      29.328   1.948  54.584  1.00  0.00     0.210 C 
ENDBRANCH  16  20
BRANCH  17  22
HETATM   22  O1  UNL     1      28.452  -1.138  53.911  1.00  0.00    -0.353 OA
HETATM   23  C1  UNL     1      29.147  -2.180  53.255  1.00  0.00     0.210 C 
ENDBRANCH  17  22
ENDBRANCH  14  15
ENDBRANCH  13  14
ENDBRANCH  11  13
ENDBRANCH   1  11
BRANCH   8  24
HETATM   24  O5  UNL     1      30.695   5.265  48.367  1.00  0.00    -0.353 OA
HETATM   25  C14 UNL     1      31.255   4.522  47.321  1.00  0.00     0.210 C 
ENDBRANCH   8  24
BRANCH   7  26
HETATM   26  O4  UNL     1      30.461   7.827  47.519  1.00  0.00    -0.353 OA
HETATM   27  C12 UNL     1      30.443   9.227  47.697  1.00  0.00     0.210 C 
ENDBRANCH   7  26
TORSDOF 8
ENDMDL
