MODEL 1
REMARK VINA RESULT:      -7.5      0.000      0.000
REMARK  4 active torsions:
REMARK  status: ('A' for Active; 'I' for Inactive)
REMARK    1  A    between atoms: O1_1  and  C1_2 
REMARK    2  A    between atoms: N1_4  and  C3_5 
REMARK    3  A    between atoms: C3_5  and  C4_6 
REMARK    4  A    between atoms: C17_22  and  O2_23 
ROOT
HETATM    1  C1  UNL     1      24.593   3.433  51.224  1.00  0.00     0.169 C 
HETATM    2  C2  UNL     1      24.465   1.965  51.132  1.00  0.00     0.160 C 
HETATM    3  N1  UNL     1      23.715   1.154  52.000  1.00  0.00    -0.351 N 
HETATM    4  C10 UNL     1      22.441   0.487  51.933  1.00  0.00     0.174 C 
HETATM    5  S1  UNL     1      21.814  -0.475  53.083  1.00  0.00    -0.041 SA
HETATM    6  N2  UNL     1      21.346   0.393  50.977  1.00  0.00    -0.333 N 
HETATM    7  C11 UNL     1      21.630   1.226  49.862  1.00  0.00     0.034 A 
HETATM    8  C12 UNL     1      21.562   1.263  48.493  1.00  0.00     0.029 A 
HETATM    9  C13 UNL     1      22.043   2.320  47.779  1.00  0.00     0.003 A 
HETATM   10  C14 UNL     1      22.641   3.448  48.273  1.00  0.00     0.010 A 
HETATM   11  C15 UNL     1      22.769   3.526  49.633  1.00  0.00    -0.025 A 
HETATM   12  C16 UNL     1      22.247   2.412  50.322  1.00  0.00     0.039 A 
HETATM   13  C17 UNL     1      23.350   4.244  50.837  1.00  0.00     0.181 C 
HETATM   14  H11 UNL     1      20.461   0.078  50.605  1.00  0.00     0.168 HD
ENDROOT
BRANCH   3  15
HETATM   15  C3  UNL     1      24.276   0.990  53.312  1.00  0.00     0.164 C 
BRANCH  15  16
HETATM   16  C4  UNL     1      25.668   0.475  53.321  1.00  0.00    -0.039 A 
HETATM   17  C5  UNL     1      26.062  -0.800  52.921  1.00  0.00     0.009 A 
HETATM   18  C6  UNL     1      27.345  -1.291  52.928  1.00  0.00     0.002 A 
HETATM   19  C7  UNL     1      28.354  -0.423  53.383  1.00  0.00     0.019 A 
HETATM   20  C8  UNL     1      28.012   0.849  53.790  1.00  0.00     0.011 A 
HETATM   21 BR1  UNL     1      29.464   1.939  54.387  1.00  0.00    -0.051 Br
HETATM   22  C9  UNL     1      26.706   1.298  53.765  1.00  0.00     0.027 A 
ENDBRANCH  15  16
ENDBRANCH   3  15
BRANCH   1  23
HETATM   23  O1  UNL     1      25.497   3.762  50.145  1.00  0.00    -0.391 OA
HETATM   24  H1  UNL     1      24.991   3.612  49.302  1.00  0.00     0.210 HD
ENDBRANCH   1  23
BRANCH  13  25
HETATM   25  O2  UNL     1      22.403   4.281  51.848  1.00  0.00    -0.388 OA
HETATM   26  H17 UNL     1      22.675   4.999  52.472  1.00  0.00     0.210 HD
ENDBRANCH  13  25
TORSDOF 4
ENDMDL
MODEL 2
REMARK VINA RESULT:      -7.2      2.886      5.798
REMARK  4 active torsions:
REMARK  status: ('A' for Active; 'I' for Inactive)
REMARK    1  A    between atoms: O1_1  and  C1_2 
REMARK    2  A    between atoms: N1_4  and  C3_5 
REMARK    3  A    between atoms: C3_5  and  C4_6 
REMARK    4  A    between atoms: C17_22  and  O2_23 
ROOT
HETATM    1  C1  UNL     1      25.997   1.245  53.144  1.00  0.00     0.169 C 
HETATM    2  C2  UNL     1      24.620   1.766  53.056  1.00  0.00     0.160 C 
HETATM    3  N1  UNL     1      23.766   1.638  51.948  1.00  0.00    -0.351 N 
HETATM    4  C10 UNL     1      22.639   0.807  51.614  1.00  0.00     0.174 C 
HETATM    5  S1  UNL     1      21.757   0.907  50.253  1.00  0.00    -0.041 SA
HETATM    6  N2  UNL     1      21.917  -0.296  52.236  1.00  0.00    -0.333 N 
HETATM    7  C11 UNL     1      22.551  -0.633  53.462  1.00  0.00     0.034 A 
HETATM    8  C12 UNL     1      22.281  -0.973  54.762  1.00  0.00     0.029 A 
HETATM    9  C13 UNL     1      23.276  -1.159  55.677  1.00  0.00     0.003 A 
HETATM   10  C14 UNL     1      24.623  -1.042  55.468  1.00  0.00     0.010 A 
HETATM   11  C15 UNL     1      25.019  -0.701  54.203  1.00  0.00    -0.025 A 
HETATM   12  C16 UNL     1      23.951  -0.530  53.297  1.00  0.00     0.039 A 
HETATM   13  C17 UNL     1      26.137  -0.278  53.268  1.00  0.00     0.181 C 
HETATM   14  H11 UNL     1      21.202  -1.002  52.332  1.00  0.00     0.168 HD
ENDROOT
BRANCH   3  15
HETATM   15  C3  UNL     1      24.111   2.455  50.819  1.00  0.00     0.164 C 
BRANCH  15  16
HETATM   16  C4  UNL     1      23.774   3.893  50.979  1.00  0.00    -0.039 A 
HETATM   17  C5  UNL     1      22.582   4.390  51.502  1.00  0.00     0.009 A 
HETATM   18  C6  UNL     1      22.256   5.717  51.651  1.00  0.00     0.002 A 
HETATM   19  C7  UNL     1      23.216   6.658  51.238  1.00  0.00     0.019 A 
HETATM   20  C8  UNL     1      24.411   6.212  50.714  1.00  0.00     0.011 A 
HETATM   21 BR1  UNL     1      25.638   7.579  50.187  1.00  0.00    -0.051 Br
HETATM   22  C9  UNL     1      24.694   4.866  50.582  1.00  0.00     0.027 A 
ENDBRANCH  15  16
ENDBRANCH   3  15
BRANCH   1  23
HETATM   23  O1  UNL     1      26.442   1.681  54.448  1.00  0.00    -0.391 OA
HETATM   24  H1  UNL     1      26.824   0.879  54.895  1.00  0.00     0.210 HD
ENDBRANCH   1  23
BRANCH  13  25
HETATM   25  O2  UNL     1      25.987  -0.927  52.054  1.00  0.00    -0.388 OA
HETATM   26  H17 UNL     1      26.092  -0.243  51.346  1.00  0.00     0.210 HD
ENDBRANCH  13  25
TORSDOF 4
ENDMDL
MODEL 3
REMARK VINA RESULT:      -7.0      2.779      3.975
REMARK  4 active torsions:
REMARK  status: ('A' for Active; 'I' for Inactive)
REMARK    1  A    between atoms: O1_1  and  C1_2 
REMARK    2  A    between atoms: N1_4  and  C3_5 
REMARK    3  A    between atoms: C3_5  and  C4_6 
REMARK    4  A    between atoms: C17_22  and  O2_23 
ROOT
HETATM    1  C1  UNL     1      22.648   4.896  52.689  1.00  0.00     0.169 C 
HETATM    2  C2  UNL     1      23.213   3.647  52.143  1.00  0.00     0.160 C 
HETATM    3  N1  UNL     1      22.549   2.756  51.284  1.00  0.00    -0.351 N 
HETATM    4  C10 UNL     1      22.590   2.472  49.873  1.00  0.00     0.174 C 
HETATM    5  S1  UNL     1      21.743   1.310  49.116  1.00  0.00    -0.041 SA
HETATM    6  N2  UNL     1      23.284   3.003  48.707  1.00  0.00    -0.333 N 
HETATM    7  C11 UNL     1      24.076   4.113  49.104  1.00  0.00     0.034 A 
HETATM    8  C12 UNL     1      25.307   4.687  48.915  1.00  0.00     0.029 A 
HETATM    9  C13 UNL     1      25.692   5.800  49.604  1.00  0.00     0.003 A 
HETATM   10  C14 UNL     1      24.968   6.485  50.541  1.00  0.00     0.010 A 
HETATM   11  C15 UNL     1      23.718   6.003  50.819  1.00  0.00    -0.025 A 
HETATM   12  C16 UNL     1      23.367   4.858  50.074  1.00  0.00     0.039 A 
HETATM   13  C17 UNL     1      22.479   6.052  51.695  1.00  0.00     0.181 C 
HETATM   14  H11 UNL     1      23.560   3.064  47.738  1.00  0.00     0.168 HD
ENDROOT
BRANCH   3  15
HETATM   15  C3  UNL     1      21.512   1.979  51.901  1.00  0.00     0.164 C 
BRANCH  15  16
HETATM   16  C4  UNL     1      22.002   0.962  52.866  1.00  0.00    -0.039 A 
HETATM   17  C5  UNL     1      21.225   0.322  53.830  1.00  0.00     0.009 A 
HETATM   18  C6  UNL     1      21.666  -0.617  54.732  1.00  0.00     0.002 A 
HETATM   19  C7  UNL     1      23.029  -0.961  54.675  1.00  0.00     0.019 A 
HETATM   20  C8  UNL     1      23.836  -0.352  53.738  1.00  0.00     0.011 A 
HETATM   21 BR1  UNL     1      25.668  -0.898  53.753  1.00  0.00    -0.051 Br
HETATM   22  C9  UNL     1      23.347   0.587  52.851  1.00  0.00     0.027 A 
ENDBRANCH  15  16
ENDBRANCH   3  15
BRANCH   1  23
HETATM   23  O1  UNL     1      23.703   5.401  53.539  1.00  0.00    -0.391 OA
HETATM   24  H1  UNL     1      24.556   5.227  53.058  1.00  0.00     0.210 HD
ENDBRANCH   1  23
BRANCH  13  25
HETATM   25  O2  UNL     1      21.353   5.910  50.901  1.00  0.00    -0.388 OA
HETATM   26  H17 UNL     1      20.567   5.992  51.497  1.00  0.00     0.210 HD
ENDBRANCH  13  25
TORSDOF 4
ENDMDL
MODEL 4
REMARK VINA RESULT:      -6.8     10.108     12.100
REMARK  4 active torsions:
REMARK  status: ('A' for Active; 'I' for Inactive)
REMARK    1  A    between atoms: O1_1  and  C1_2 
REMARK    2  A    between atoms: N1_4  and  C3_5 
REMARK    3  A    between atoms: C3_5  and  C4_6 
REMARK    4  A    between atoms: C17_22  and  O2_23 
ROOT
HETATM    1  C1  UNL     1      32.878   6.138  48.941  1.00  0.00     0.169 C 
HETATM    2  C2  UNL     1      32.286   6.222  47.592  1.00  0.00     0.160 C 
HETATM    3  N1  UNL     1      32.522   7.246  46.659  1.00  0.00    -0.351 N 
HETATM    4  C10 UNL     1      33.318   7.380  45.467  1.00  0.00     0.174 C 
HETATM    5  S1  UNL     1      33.365   8.686  44.501  1.00  0.00    -0.041 SA
HETATM    6  N2  UNL     1      34.265   6.555  44.729  1.00  0.00    -0.333 N 
HETATM    7  C11 UNL     1      34.456   5.331  45.425  1.00  0.00     0.034 A 
HETATM    8  C12 UNL     1      34.580   3.981  45.226  1.00  0.00     0.029 A 
HETATM    9  C13 UNL     1      34.692   3.109  46.270  1.00  0.00     0.003 A 
HETATM   10  C14 UNL     1      34.695   3.412  47.603  1.00  0.00     0.010 A 
HETATM   11  C15 UNL     1      34.574   4.736  47.930  1.00  0.00    -0.025 A 
HETATM   12  C16 UNL     1      34.471   5.593  46.814  1.00  0.00     0.039 A 
HETATM   13  C17 UNL     1      34.370   5.789  49.003  1.00  0.00     0.181 C 
HETATM   14  H11 UNL     1      34.901   6.310  43.983  1.00  0.00     0.168 HD
ENDROOT
BRANCH   3  15
HETATM   15  C3  UNL     1      31.907   8.505  46.971  1.00  0.00     0.164 C 
BRANCH  15  16
HETATM   16  C4  UNL     1      30.424   8.465  47.023  1.00  0.00    -0.039 A 
HETATM   17  C5  UNL     1      29.586   8.137  45.959  1.00  0.00     0.009 A 
HETATM   18  C6  UNL     1      28.213   8.100  45.992  1.00  0.00     0.002 A 
HETATM   19  C7  UNL     1      27.598   8.423  47.214  1.00  0.00     0.019 A 
HETATM   20  C8  UNL     1      28.387   8.755  48.296  1.00  0.00     0.011 A 
HETATM   21 BR1  UNL     1      27.443   9.175  49.903  1.00  0.00    -0.051 Br
HETATM   22  C9  UNL     1      29.765   8.779  48.214  1.00  0.00     0.027 A 
ENDBRANCH  15  16
ENDBRANCH   3  15
BRANCH   1  23
HETATM   23  O1  UNL     1      32.281   4.944  49.498  1.00  0.00    -0.391 OA
HETATM   24  H1  UNL     1      32.301   4.261  48.776  1.00  0.00     0.210 HD
ENDBRANCH   1  23
BRANCH  13  25
HETATM   25  O2  UNL     1      35.182   6.879  48.735  1.00  0.00    -0.388 OA
HETATM   26  H17 UNL     1      34.721   7.421  48.047  1.00  0.00     0.210 HD
ENDBRANCH  13  25
TORSDOF 4
ENDMDL
MODEL 5
REMARK VINA RESULT:      -6.8      3.852      6.097
REMARK  4 active torsions:
REMARK  status: ('A' for Active; 'I' for Inactive)
REMARK    1  A    between atoms: O1_1  and  C1_2 
REMARK    2  A    between atoms: N1_4  and  C3_5 
REMARK    3  A    between atoms: C3_5  and  C4_6 
REMARK    4  A    between atoms: C17_22  and  O2_23 
ROOT
HETATM    1  C1  UNL     1      23.640   1.623  52.780  1.00  0.00     0.169 C 
HETATM    2  C2  UNL     1      22.896   2.024  51.570  1.00  0.00     0.160 C 
HETATM    3  N1  UNL     1      22.096   3.172  51.446  1.00  0.00    -0.351 N 
HETATM    4  C10 UNL     1      22.249   4.464  50.831  1.00  0.00     0.174 C 
HETATM    5  S1  UNL     1      21.113   5.624  50.768  1.00  0.00    -0.041 SA
HETATM    6  N2  UNL     1      23.301   5.179  50.118  1.00  0.00    -0.333 N 
HETATM    7  C11 UNL     1      24.471   4.373  50.087  1.00  0.00     0.034 A 
HETATM    8  C12 UNL     1      25.491   3.978  49.261  1.00  0.00     0.029 A 
HETATM    9  C13 UNL     1      26.430   3.074  49.663  1.00  0.00     0.003 A 
HETATM   10  C14 UNL     1      26.507   2.446  50.876  1.00  0.00     0.010 A 
HETATM   11  C15 UNL     1      25.537   2.758  51.789  1.00  0.00    -0.025 A 
HETATM   12  C16 UNL     1      24.598   3.703  51.325  1.00  0.00     0.039 A 
HETATM   13  C17 UNL     1      24.875   2.466  53.123  1.00  0.00     0.181 C 
HETATM   14  H11 UNL     1      23.726   5.937  49.605  1.00  0.00     0.168 HD
ENDROOT
BRANCH   3  15
HETATM   15  C3  UNL     1      20.850   3.122  52.156  1.00  0.00     0.164 C 
BRANCH  15  16
HETATM   16  C4  UNL     1      19.913   2.075  51.675  1.00  0.00    -0.039 A 
HETATM   17  C5  UNL     1      19.353   2.015  50.401  1.00  0.00     0.009 A 
HETATM   18  C6  UNL     1      18.482   1.054  49.944  1.00  0.00     0.002 A 
HETATM   19  C7  UNL     1      18.126   0.039  50.848  1.00  0.00     0.019 A 
HETATM   20  C8  UNL     1      18.655   0.057  52.122  1.00  0.00     0.011 A 
HETATM   21 BR1  UNL     1      18.100  -1.372  53.263  1.00  0.00    -0.051 Br
HETATM   22  C9  UNL     1      19.527   1.045  52.536  1.00  0.00     0.027 A 
ENDBRANCH  15  16
ENDBRANCH   3  15
BRANCH   1  23
HETATM   23  O1  UNL     1      24.247   0.366  52.402  1.00  0.00    -0.391 OA
HETATM   24  H1  UNL     1      23.600  -0.085  51.797  1.00  0.00     0.210 HD
ENDBRANCH   1  23
BRANCH  13  25
HETATM   25  O2  UNL     1      24.547   3.661  53.742  1.00  0.00    -0.388 OA
HETATM   26  H17 UNL     1      25.264   4.306  53.523  1.00  0.00     0.210 HD
ENDBRANCH  13  25
TORSDOF 4
ENDMDL
MODEL 6
REMARK VINA RESULT:      -6.7      1.826      2.345
REMARK  4 active torsions:
REMARK  status: ('A' for Active; 'I' for Inactive)
REMARK    1  A    between atoms: O1_1  and  C1_2 
REMARK    2  A    between atoms: N1_4  and  C3_5 
REMARK    3  A    between atoms: C3_5  and  C4_6 
REMARK    4  A    between atoms: C17_22  and  O2_23 
ROOT
HETATM    1  C1  UNL     1      24.429   5.571  51.249  1.00  0.00     0.169 C 
HETATM    2  C2  UNL     1      24.218   4.164  50.860  1.00  0.00     0.160 C 
HETATM    3  N1  UNL     1      23.241   3.306  51.391  1.00  0.00    -0.351 N 
HETATM    4  C10 UNL     1      21.967   2.805  50.944  1.00  0.00     0.174 C 
HETATM    5  S1  UNL     1      21.036   1.739  51.742  1.00  0.00    -0.041 SA
HETATM    6  N2  UNL     1      21.103   2.994  49.786  1.00  0.00    -0.333 N 
HETATM    7  C11 UNL     1      21.684   3.966  48.928  1.00  0.00     0.034 A 
HETATM    8  C12 UNL     1      21.920   4.239  47.605  1.00  0.00     0.029 A 
HETATM    9  C13 UNL     1      22.621   5.341  47.214  1.00  0.00     0.003 A 
HETATM   10  C14 UNL     1      23.176   6.297  48.021  1.00  0.00     0.010 A 
HETATM   11  C15 UNL     1      23.009   6.132  49.369  1.00  0.00    -0.025 A 
HETATM   12  C16 UNL     1      22.270   4.982  49.716  1.00  0.00     0.039 A 
HETATM   13  C17 UNL     1      23.363   6.569  50.778  1.00  0.00     0.181 C 
HETATM   14  H11 UNL     1      20.301   2.847  49.191  1.00  0.00     0.168 HD
ENDROOT
BRANCH   3  15
HETATM   15  C3  UNL     1      23.487   2.864  52.734  1.00  0.00     0.164 C 
BRANCH  15  16
HETATM   16  C4  UNL     1      24.630   1.925  52.868  1.00  0.00    -0.039 A 
HETATM   17  C5  UNL     1      24.565   0.543  52.702  1.00  0.00     0.009 A 
HETATM   18  C6  UNL     1      25.613  -0.337  52.827  1.00  0.00     0.002 A 
HETATM   19  C7  UNL     1      26.866   0.210  53.153  1.00  0.00     0.019 A 
HETATM   20  C8  UNL     1      26.979   1.573  53.329  1.00  0.00     0.011 A 
HETATM   21 BR1  UNL     1      28.728   2.203  53.769  1.00  0.00    -0.051 Br
HETATM   22  C9  UNL     1      25.895   2.419  53.193  1.00  0.00     0.027 A 
ENDBRANCH  15  16
ENDBRANCH   3  15
BRANCH   1  23
HETATM   23  O1  UNL     1      25.569   5.974  50.456  1.00  0.00    -0.391 OA
HETATM   24  H1  UNL     1      26.178   6.462  51.073  1.00  0.00     0.210 HD
ENDBRANCH   1  23
BRANCH  13  25
HETATM   25  O2  UNL     1      22.224   6.540  51.565  1.00  0.00    -0.388 OA
HETATM   26  H17 UNL     1      21.559   7.133  51.134  1.00  0.00     0.210 HD
ENDBRANCH  13  25
TORSDOF 4
ENDMDL
MODEL 7
REMARK VINA RESULT:      -6.6      9.119     10.985
REMARK  4 active torsions:
REMARK  status: ('A' for Active; 'I' for Inactive)
REMARK    1  A    between atoms: O1_1  and  C1_2 
REMARK    2  A    between atoms: N1_4  and  C3_5 
REMARK    3  A    between atoms: C3_5  and  C4_6 
REMARK    4  A    between atoms: C17_22  and  O2_23 
ROOT
HETATM    1  C1  UNL     1      12.582  -0.203  53.572  1.00  0.00     0.169 C 
HETATM    2  C2  UNL     1      13.874   0.483  53.382  1.00  0.00     0.160 C 
HETATM    3  N1  UNL     1      14.461   0.793  52.144  1.00  0.00    -0.351 N 
HETATM    4  C10 UNL     1      14.600   1.984  51.347  1.00  0.00     0.174 C 
HETATM    5  S1  UNL     1      15.408   2.093  49.941  1.00  0.00    -0.041 SA
HETATM    6  N2  UNL     1      14.159   3.370  51.430  1.00  0.00    -0.333 N 
HETATM    7  C11 UNL     1      13.349   3.531  52.586  1.00  0.00     0.034 A 
HETATM    8  C12 UNL     1      13.110   4.387  53.630  1.00  0.00     0.029 A 
HETATM    9  C13 UNL     1      12.218   4.084  54.616  1.00  0.00     0.003 A 
HETATM   10  C14 UNL     1      11.463   2.948  54.728  1.00  0.00     0.010 A 
HETATM   11  C15 UNL     1      11.617   2.012  53.742  1.00  0.00    -0.025 A 
HETATM   12  C16 UNL     1      12.544   2.380  52.744  1.00  0.00     0.039 A 
HETATM   13  C17 UNL     1      11.328   0.612  53.232  1.00  0.00     0.181 C 
HETATM   14  H11 UNL     1      14.076   4.337  51.152  1.00  0.00     0.168 HD
ENDROOT
BRANCH   3  15
HETATM   15  C3  UNL     1      14.991  -0.331  51.426  1.00  0.00     0.164 C 
BRANCH  15  16
HETATM   16  C4  UNL     1      16.013  -1.108  52.173  1.00  0.00    -0.039 A 
HETATM   17  C5  UNL     1      17.262  -0.632  52.565  1.00  0.00     0.009 A 
HETATM   18  C6  UNL     1      18.219  -1.340  53.252  1.00  0.00     0.002 A 
HETATM   19  C7  UNL     1      17.905  -2.668  53.590  1.00  0.00     0.019 A 
HETATM   20  C8  UNL     1      16.679  -3.183  53.222  1.00  0.00     0.011 A 
HETATM   21 BR1  UNL     1      16.363  -4.996  53.735  1.00  0.00    -0.051 Br
HETATM   22  C9  UNL     1      15.749  -2.432  52.531  1.00  0.00     0.027 A 
ENDBRANCH  15  16
ENDBRANCH   3  15
BRANCH   1  23
HETATM   23  O1  UNL     1      12.468  -0.319  55.009  1.00  0.00    -0.391 OA
HETATM   24  H1  UNL     1      13.203  -0.922  55.298  1.00  0.00     0.210 HD
ENDBRANCH   1  23
BRANCH  13  25
HETATM   25  O2  UNL     1      11.080   0.664  51.870  1.00  0.00    -0.388 OA
HETATM   26  H17 UNL     1      10.246   1.183  51.747  1.00  0.00     0.210 HD
ENDBRANCH  13  25
TORSDOF 4
ENDMDL
MODEL 8
REMARK VINA RESULT:      -6.5      3.941      5.421
REMARK  4 active torsions:
REMARK  status: ('A' for Active; 'I' for Inactive)
REMARK    1  A    between atoms: O1_1  and  C1_2 
REMARK    2  A    between atoms: N1_4  and  C3_5 
REMARK    3  A    between atoms: C3_5  and  C4_6 
REMARK    4  A    between atoms: C17_22  and  O2_23 
ROOT
HETATM    1  C1  UNL     1      21.242   3.818  49.720  1.00  0.00     0.169 C 
HETATM    2  C2  UNL     1      22.095   3.684  50.917  1.00  0.00     0.160 C 
HETATM    3  N1  UNL     1      23.324   3.007  50.973  1.00  0.00    -0.351 N 
HETATM    4  C10 UNL     1      24.709   3.400  50.990  1.00  0.00     0.174 C 
HETATM    5  S1  UNL     1      25.978   2.394  51.131  1.00  0.00    -0.041 SA
HETATM    6  N2  UNL     1      25.456   4.648  50.903  1.00  0.00    -0.333 N 
HETATM    7  C11 UNL     1      24.545   5.721  50.706  1.00  0.00     0.034 A 
HETATM    8  C12 UNL     1      24.286   7.008  51.102  1.00  0.00     0.029 A 
HETATM    9  C13 UNL     1      23.182   7.683  50.671  1.00  0.00     0.003 A 
HETATM   10  C14 UNL     1      22.207   7.221  49.831  1.00  0.00     0.010 A 
HETATM   11  C15 UNL     1      22.353   5.941  49.368  1.00  0.00    -0.025 A 
HETATM   12  C16 UNL     1      23.515   5.294  49.837  1.00  0.00     0.039 A 
HETATM   13  C17 UNL     1      21.759   4.759  48.625  1.00  0.00     0.181 C 
HETATM   14  H11 UNL     1      26.269   5.246  50.899  1.00  0.00     0.168 HD
ENDROOT
BRANCH   3  15
HETATM   15  C3  UNL     1      23.231   1.576  50.920  1.00  0.00     0.164 C 
BRANCH  15  16
HETATM   16  C4  UNL     1      22.313   0.985  51.926  1.00  0.00    -0.039 A 
HETATM   17  C5  UNL     1      22.639   0.703  53.251  1.00  0.00     0.009 A 
HETATM   18  C6  UNL     1      21.802   0.153  54.192  1.00  0.00     0.002 A 
HETATM   19  C7  UNL     1      20.494  -0.153  53.776  1.00  0.00     0.019 A 
HETATM   20  C8  UNL     1      20.126   0.108  52.473  1.00  0.00     0.011 A 
HETATM   21 BR1  UNL     1      18.326  -0.349  52.021  1.00  0.00    -0.051 Br
HETATM   22  C9  UNL     1      21.004   0.662  51.562  1.00  0.00     0.027 A 
ENDBRANCH  15  16
ENDBRANCH   3  15
BRANCH   1  23
HETATM   23  O1  UNL     1      20.091   4.547  50.205  1.00  0.00    -0.391 OA
HETATM   24  H1  UNL     1      19.735   5.054  49.427  1.00  0.00     0.210 HD
ENDBRANCH   1  23
BRANCH  13  25
HETATM   25  O2  UNL     1      22.738   4.174  47.840  1.00  0.00    -0.388 OA
HETATM   26  H17 UNL     1      23.600   4.298  48.311  1.00  0.00     0.210 HD
ENDBRANCH  13  25
TORSDOF 4
ENDMDL
MODEL 9
REMARK VINA RESULT:      -6.4      3.161      5.400
REMARK  4 active torsions:
REMARK  status: ('A' for Active; 'I' for Inactive)
REMARK    1  A    between atoms: O1_1  and  C1_2 
REMARK    2  A    between atoms: N1_4  and  C3_5 
REMARK    3  A    between atoms: C3_5  and  C4_6 
REMARK    4  A    between atoms: C17_22  and  O2_23 
ROOT
HETATM    1  C1  UNL     1      24.499   3.233  52.389  1.00  0.00     0.169 C 
HETATM    2  C2  UNL     1      23.213   3.440  53.083  1.00  0.00     0.160 C 
HETATM    3  N1  UNL     1      21.992   3.756  52.464  1.00  0.00    -0.351 N 
HETATM    4  C10 UNL     1      20.798   3.026  52.125  1.00  0.00     0.174 C 
HETATM    5  S1  UNL     1      19.460   3.659  51.454  1.00  0.00    -0.041 SA
HETATM    6  N2  UNL     1      20.340   1.646  52.216  1.00  0.00    -0.333 N 
HETATM    7  C11 UNL     1      21.390   0.842  52.736  1.00  0.00     0.034 A 
HETATM    8  C12 UNL     1      21.636  -0.181  53.614  1.00  0.00     0.029 A 
HETATM    9  C13 UNL     1      22.902  -0.624  53.862  1.00  0.00     0.003 A 
HETATM   10  C14 UNL     1      24.065  -0.154  53.316  1.00  0.00     0.010 A 
HETATM   11  C15 UNL     1      23.948   0.875  52.421  1.00  0.00    -0.025 A 
HETATM   12  C16 UNL     1      22.618   1.288  52.196  1.00  0.00     0.039 A 
HETATM   13  C17 UNL     1      24.627   1.938  51.577  1.00  0.00     0.181 C 
HETATM   14  H11 UNL     1      19.696   0.873  52.132  1.00  0.00     0.168 HD
ENDROOT
BRANCH   3  15
HETATM   15  C3  UNL     1      21.897   5.096  51.958  1.00  0.00     0.164 C 
BRANCH  15  16
HETATM   16  C4  UNL     1      22.757   5.365  50.777  1.00  0.00    -0.039 A 
HETATM   17  C5  UNL     1      22.627   4.763  49.528  1.00  0.00     0.009 A 
HETATM   18  C6  UNL     1      23.418   5.000  48.429  1.00  0.00     0.002 A 
HETATM   19  C7  UNL     1      24.454   5.938  48.582  1.00  0.00     0.019 A 
HETATM   20  C8  UNL     1      24.622   6.559  49.802  1.00  0.00     0.011 A 
HETATM   21 BR1  UNL     1      26.060   7.813  49.894  1.00  0.00    -0.051 Br
HETATM   22  C9  UNL     1      23.801   6.288  50.879  1.00  0.00     0.027 A 
ENDBRANCH  15  16
ENDBRANCH   3  15
BRANCH   1  23
HETATM   23  O1  UNL     1      25.430   2.989  53.468  1.00  0.00    -0.391 OA
HETATM   24  H1  UNL     1      26.229   2.565  53.055  1.00  0.00     0.210 HD
ENDBRANCH   1  23
BRANCH  13  25
HETATM   25  O2  UNL     1      23.996   2.017  50.347  1.00  0.00    -0.388 OA
HETATM   26  H17 UNL     1      24.672   2.325  49.694  1.00  0.00     0.210 HD
ENDBRANCH  13  25
TORSDOF 4
ENDMDL
