MODEL 1
REMARK VINA RESULT:      -7.7      0.000      0.000
REMARK  6 active torsions:
REMARK  status: ('A' for Active; 'I' for Inactive)
REMARK    1  A    between atoms: C2_2  and  O1_3 
REMARK    2  A    between atoms: O1_3  and  C3_4 
REMARK    3  A    between atoms: C3_4  and  C4_5 
REMARK    4  A    between atoms: C3_4  and  O2_7 
REMARK    5  A    between atoms: O2_7  and  C6_8 
REMARK    6  A    between atoms: N2_14  and  C11_15 
ROOT
HETATM    1  C11 UNL     1      23.383   5.384  49.385  1.00  0.00     0.034 A 
HETATM    2  C12 UNL     1      22.440   5.204  48.456  1.00  0.00     0.027 A 
HETATM    3  C13 UNL     1      21.364   6.157  48.734  1.00  0.00     0.006 A 
HETATM    4  C14 UNL     1      21.683   6.881  49.812  1.00  0.00    -0.060 A 
HETATM    5  C15 UNL     1      20.842   7.954  50.408  1.00  0.00     0.045 C 
HETATM    6  C16 UNL     1      23.010   6.470  50.352  1.00  0.00     0.171 A 
HETATM    7  C17 UNL     1      23.979   7.543  50.399  1.00  0.00     0.074 C 
HETATM    8  N3  UNL     1      24.754   8.384  50.451  1.00  0.00    -0.196 NA
ENDROOT
BRANCH   1   9
HETATM    9  N2  UNL     1      24.604   4.660  49.481  1.00  0.00    -0.340 N 
HETATM   10  C10 UNL     1      25.706   5.267  48.819  1.00  0.00     0.111 C 
HETATM   11  C9  UNL     1      26.952   4.870  49.012  1.00  0.00     0.134 C 
HETATM   12  N1  UNL     1      27.200   3.790  49.895  1.00  0.00    -0.262 NA
HETATM   13  C8  UNL     1      26.212   3.172  50.485  1.00  0.00     0.066 C 
HETATM   14  C7  UNL     1      26.670   2.111  51.390  1.00  0.00     0.069 C 
HETATM   15  C18 UNL     1      24.822   3.443  50.143  1.00  0.00     0.201 C 
HETATM   16  C6  UNL     1      25.702   1.593  52.172  1.00  0.00     0.110 C 
HETATM   17  C20 UNL     1      24.311   2.031  52.013  1.00  0.00     0.134 C 
HETATM   18  C19 UNL     1      23.870   2.905  51.092  1.00  0.00     0.111 C 
HETATM   19  O3  UNL     1      23.311   1.534  52.862  1.00  0.00    -0.344 OA
HETATM   20  O4  UNL     1      22.574   3.317  50.994  1.00  0.00    -0.348 OA
HETATM   21  C22 UNL     1      21.628   2.882  51.958  1.00  0.00     0.202 C 
HETATM   22  C21 UNL     1      22.012   1.441  52.310  1.00  0.00     0.202 C 
BRANCH  16  23
HETATM   23  O2  UNL     1      26.041   0.637  53.067  1.00  0.00    -0.318 OA
BRANCH  23  24
HETATM   24  C3  UNL     1      27.091  -0.257  53.095  1.00  0.00     0.266 C 
BRANCH  24  25
HETATM   25  O1  UNL     1      27.556  -0.441  54.422  1.00  0.00    -0.361 OA
BRANCH  25  26
HETATM   26  C2  UNL     1      28.548   0.455  54.730  1.00  0.00     0.166 C 
HETATM   27  C1  UNL     1      29.667   0.281  53.707  1.00  0.00     0.033 C 
ENDBRANCH  25  26
ENDBRANCH  24  25
BRANCH  24  28
HETATM   28  C4  UNL     1      26.702  -1.563  52.486  1.00  0.00     0.056 C 
HETATM   29  C5  UNL     1      27.706  -2.651  52.755  1.00  0.00     0.010 C 
ENDBRANCH  24  28
ENDBRANCH  23  24
ENDBRANCH  16  23
ENDBRANCH   1   9
TORSDOF 6
ENDMDL
MODEL 2
REMARK VINA RESULT:      -7.5      1.675      2.518
REMARK  6 active torsions:
REMARK  status: ('A' for Active; 'I' for Inactive)
REMARK    1  A    between atoms: C2_2  and  O1_3 
REMARK    2  A    between atoms: O1_3  and  C3_4 
REMARK    3  A    between atoms: C3_4  and  C4_5 
REMARK    4  A    between atoms: C3_4  and  O2_7 
REMARK    5  A    between atoms: O2_7  and  C6_8 
REMARK    6  A    between atoms: N2_14  and  C11_15 
ROOT
HETATM    1  C11 UNL     1      22.271   4.163  49.892  1.00  0.00     0.034 A 
HETATM    2  C12 UNL     1      21.596   4.840  50.826  1.00  0.00     0.027 A 
HETATM    3  C13 UNL     1      20.223   5.000  50.345  1.00  0.00     0.006 A 
HETATM    4  C14 UNL     1      20.105   4.420  49.145  1.00  0.00    -0.060 A 
HETATM    5  C15 UNL     1      18.860   4.371  48.332  1.00  0.00     0.045 C 
HETATM    6  C16 UNL     1      21.401   3.818  48.719  1.00  0.00     0.171 A 
HETATM    7  C17 UNL     1      21.329   2.396  48.466  1.00  0.00     0.074 C 
HETATM    8  N3  UNL     1      21.285   1.271  48.254  1.00  0.00    -0.196 NA
ENDROOT
BRANCH   1   9
HETATM    9  N2  UNL     1      23.642   3.792  49.962  1.00  0.00    -0.340 N 
HETATM   10  C10 UNL     1      24.532   4.684  49.303  1.00  0.00     0.111 C 
HETATM   11  C9  UNL     1      25.841   4.633  49.477  1.00  0.00     0.134 C 
HETATM   12  N1  UNL     1      26.382   3.645  50.335  1.00  0.00    -0.262 NA
HETATM   13  C8  UNL     1      25.605   2.774  50.921  1.00  0.00     0.066 C 
HETATM   14  C7  UNL     1      26.344   1.860  51.800  1.00  0.00     0.069 C 
HETATM   15  C18 UNL     1      24.189   2.667  50.597  1.00  0.00     0.201 C 
HETATM   16  C6  UNL     1      25.562   1.087  52.581  1.00  0.00     0.110 C 
HETATM   17  C20 UNL     1      24.102   1.138  52.443  1.00  0.00     0.134 C 
HETATM   18  C19 UNL     1      23.429   1.877  51.544  1.00  0.00     0.111 C 
HETATM   19  O3  UNL     1      23.284   0.376  53.290  1.00  0.00    -0.344 OA
HETATM   20  O4  UNL     1      22.069   1.927  51.466  1.00  0.00    -0.348 OA
HETATM   21  C22 UNL     1      21.289   1.237  52.429  1.00  0.00     0.202 C 
HETATM   22  C21 UNL     1      22.050  -0.054  52.748  1.00  0.00     0.202 C 
BRANCH  16  23
HETATM   23  O2  UNL     1      26.158   0.243  53.453  1.00  0.00    -0.318 OA
BRANCH  23  24
HETATM   24  C3  UNL     1      27.299  -0.525  53.347  1.00  0.00     0.266 C 
BRANCH  24  25
HETATM   25  O1  UNL     1      27.894  -0.715  54.619  1.00  0.00    -0.361 OA
BRANCH  25  26
HETATM   26  C2  UNL     1      28.778   0.293  54.911  1.00  0.00     0.166 C 
HETATM   27  C1  UNL     1      29.636   0.533  53.672  1.00  0.00     0.033 C 
ENDBRANCH  25  26
ENDBRANCH  24  25
BRANCH  24  28
HETATM   28  C4  UNL     1      27.008  -1.837  52.699  1.00  0.00     0.056 C 
HETATM   29  C5  UNL     1      28.138  -2.820  52.842  1.00  0.00     0.010 C 
ENDBRANCH  24  28
ENDBRANCH  23  24
ENDBRANCH  16  23
ENDBRANCH   1   9
TORSDOF 6
ENDMDL
MODEL 3
REMARK VINA RESULT:      -7.4      0.863      1.635
REMARK  6 active torsions:
REMARK  status: ('A' for Active; 'I' for Inactive)
REMARK    1  A    between atoms: C2_2  and  O1_3 
REMARK    2  A    between atoms: O1_3  and  C3_4 
REMARK    3  A    between atoms: C3_4  and  C4_5 
REMARK    4  A    between atoms: C3_4  and  O2_7 
REMARK    5  A    between atoms: O2_7  and  C6_8 
REMARK    6  A    between atoms: N2_14  and  C11_15 
ROOT
HETATM    1  C11 UNL     1      23.676   5.834  49.777  1.00  0.00     0.034 A 
HETATM    2  C12 UNL     1      23.386   6.624  50.816  1.00  0.00     0.027 A 
HETATM    3  C13 UNL     1      22.195   7.396  50.460  1.00  0.00     0.006 A 
HETATM    4  C14 UNL     1      21.800   7.057  49.228  1.00  0.00    -0.060 A 
HETATM    5  C15 UNL     1      20.624   7.624  48.514  1.00  0.00     0.045 C 
HETATM    6  C16 UNL     1      22.701   6.019  48.651  1.00  0.00     0.171 A 
HETATM    7  C17 UNL     1      22.023   4.795  48.284  1.00  0.00     0.074 C 
HETATM    8  N3  UNL     1      21.497   3.824  47.980  1.00  0.00    -0.196 NA
ENDROOT
BRANCH   1   9
HETATM    9  N2  UNL     1      24.761   4.918  49.707  1.00  0.00    -0.340 N 
HETATM   10  C10 UNL     1      25.895   5.396  48.996  1.00  0.00     0.111 C 
HETATM   11  C9  UNL     1      27.068   4.788  49.045  1.00  0.00     0.134 C 
HETATM   12  N1  UNL     1      27.198   3.608  49.818  1.00  0.00    -0.262 NA
HETATM   13  C8  UNL     1      26.169   3.106  50.446  1.00  0.00     0.066 C 
HETATM   14  C7  UNL     1      26.511   1.909  51.223  1.00  0.00     0.069 C 
HETATM   15  C18 UNL     1      24.822   3.627  50.253  1.00  0.00     0.201 C 
HETATM   16  C6  UNL     1      25.532   1.485  52.048  1.00  0.00     0.110 C 
HETATM   17  C20 UNL     1      24.226   2.154  52.049  1.00  0.00     0.134 C 
HETATM   18  C19 UNL     1      23.868   3.167  51.241  1.00  0.00     0.111 C 
HETATM   19  O3  UNL     1      23.225   1.751  52.945  1.00  0.00    -0.344 OA
HETATM   20  O4  UNL     1      22.656   3.789  51.292  1.00  0.00    -0.348 OA
HETATM   21  C22 UNL     1      21.728   3.427  52.302  1.00  0.00     0.202 C 
HETATM   22  C21 UNL     1      21.890   1.917  52.508  1.00  0.00     0.202 C 
BRANCH  16  23
HETATM   23  O2  UNL     1      25.773   0.411  52.834  1.00  0.00    -0.318 OA
BRANCH  23  24
HETATM   24  C3  UNL     1      26.908  -0.351  53.017  1.00  0.00     0.266 C 
BRANCH  24  25
HETATM   25  O1  UNL     1      27.214  -0.471  54.396  1.00  0.00    -0.361 OA
BRANCH  25  26
HETATM   26  C2  UNL     1      28.152   0.453  54.781  1.00  0.00     0.166 C 
HETATM   27  C1  UNL     1      29.111   0.657  53.611  1.00  0.00     0.033 C 
ENDBRANCH  25  26
ENDBRANCH  24  25
BRANCH  24  28
HETATM   28  C4  UNL     1      26.760  -1.697  52.389  1.00  0.00     0.056 C 
HETATM   29  C5  UNL     1      27.863  -2.644  52.777  1.00  0.00     0.010 C 
ENDBRANCH  24  28
ENDBRANCH  23  24
ENDBRANCH  16  23
ENDBRANCH   1   9
TORSDOF 6
ENDMDL
MODEL 4
REMARK VINA RESULT:      -7.4      3.743      8.189
REMARK  6 active torsions:
REMARK  status: ('A' for Active; 'I' for Inactive)
REMARK    1  A    between atoms: C2_2  and  O1_3 
REMARK    2  A    between atoms: O1_3  and  C3_4 
REMARK    3  A    between atoms: C3_4  and  C4_5 
REMARK    4  A    between atoms: C3_4  and  O2_7 
REMARK    5  A    between atoms: O2_7  and  C6_8 
REMARK    6  A    between atoms: N2_14  and  C11_15 
ROOT
HETATM    1  C11 UNL     1      25.882   0.193  53.987  1.00  0.00     0.034 A 
HETATM    2  C12 UNL     1      26.157   1.498  53.892  1.00  0.00     0.027 A 
HETATM    3  C13 UNL     1      27.593   1.625  53.640  1.00  0.00     0.006 A 
HETATM    4  C14 UNL     1      28.143   0.407  53.589  1.00  0.00    -0.060 A 
HETATM    5  C15 UNL     1      29.583   0.121  53.350  1.00  0.00     0.045 C 
HETATM    6  C16 UNL     1      27.112  -0.648  53.805  1.00  0.00     0.171 A 
HETATM    7  C17 UNL     1      26.998  -1.586  52.710  1.00  0.00     0.074 C 
HETATM    8  N3  UNL     1      26.903  -2.342  51.855  1.00  0.00    -0.196 NA
ENDROOT
BRANCH   1   9
HETATM    9  N2  UNL     1      24.598  -0.370  54.228  1.00  0.00    -0.340 N 
HETATM   10  C10 UNL     1      24.521  -1.197  55.381  1.00  0.00     0.111 C 
HETATM   11  C9  UNL     1      23.367  -1.593  55.890  1.00  0.00     0.134 C 
HETATM   12  N1  UNL     1      22.164  -1.197  55.256  1.00  0.00    -0.262 NA
HETATM   13  C8  UNL     1      22.191  -0.479  54.165  1.00  0.00     0.066 C 
HETATM   14  C7  UNL     1      20.849  -0.136  53.682  1.00  0.00     0.069 C 
HETATM   15  C18 UNL     1      23.435  -0.197  53.462  1.00  0.00     0.201 C 
HETATM   16  C6  UNL     1      20.833   0.773  52.686  1.00  0.00     0.110 C 
HETATM   17  C20 UNL     1      22.093   1.264  52.116  1.00  0.00     0.134 C 
HETATM   18  C19 UNL     1      23.322   0.849  52.467  1.00  0.00     0.111 C 
HETATM   19  O3  UNL     1      22.080   2.249  51.117  1.00  0.00    -0.344 OA
HETATM   20  O4  UNL     1      24.474   1.352  51.940  1.00  0.00    -0.348 OA
HETATM   21  C22 UNL     1      24.409   2.437  51.028  1.00  0.00     0.202 C 
HETATM   22  C21 UNL     1      23.147   2.212  50.188  1.00  0.00     0.202 C 
BRANCH  16  23
HETATM   23  O2  UNL     1      19.637   1.180  52.206  1.00  0.00    -0.318 OA
BRANCH  23  24
HETATM   24  C3  UNL     1      18.921   0.796  51.091  1.00  0.00     0.266 C 
BRANCH  24  25
HETATM   25  O1  UNL     1      18.312  -0.467  51.298  1.00  0.00    -0.361 OA
BRANCH  25  26
HETATM   26  C2  UNL     1      17.384  -0.414  52.306  1.00  0.00     0.166 C 
HETATM   27  C1  UNL     1      17.475  -1.718  53.093  1.00  0.00     0.033 C 
ENDBRANCH  25  26
ENDBRANCH  24  25
BRANCH  24  28
HETATM   28  C4  UNL     1      17.899   1.821  50.728  1.00  0.00     0.056 C 
HETATM   29  C5  UNL     1      18.095   3.122  51.458  1.00  0.00     0.010 C 
ENDBRANCH  24  28
ENDBRANCH  23  24
ENDBRANCH  16  23
ENDBRANCH   1   9
TORSDOF 6
ENDMDL
MODEL 5
REMARK VINA RESULT:      -7.4      2.518      4.158
REMARK  6 active torsions:
REMARK  status: ('A' for Active; 'I' for Inactive)
REMARK    1  A    between atoms: C2_2  and  O1_3 
REMARK    2  A    between atoms: O1_3  and  C3_4 
REMARK    3  A    between atoms: C3_4  and  C4_5 
REMARK    4  A    between atoms: C3_4  and  O2_7 
REMARK    5  A    between atoms: O2_7  and  C6_8 
REMARK    6  A    between atoms: N2_14  and  C11_15 
ROOT
HETATM    1  C11 UNL     1      20.837   2.010  50.054  1.00  0.00     0.034 A 
HETATM    2  C12 UNL     1      21.213   1.566  48.850  1.00  0.00     0.027 A 
HETATM    3  C13 UNL     1      20.801   2.568  47.866  1.00  0.00     0.006 A 
HETATM    4  C14 UNL     1      20.193   3.581  48.494  1.00  0.00    -0.060 A 
HETATM    5  C15 UNL     1      19.633   4.791  47.834  1.00  0.00     0.045 C 
HETATM    6  C16 UNL     1      20.147   3.340  49.964  1.00  0.00     0.171 A 
HETATM    7  C17 UNL     1      20.798   4.369  50.745  1.00  0.00     0.074 C 
HETATM    8  N3  UNL     1      21.303   5.180  51.377  1.00  0.00    -0.196 NA
ENDROOT
BRANCH   1   9
HETATM    9  N2  UNL     1      21.047   1.338  51.290  1.00  0.00    -0.340 N 
HETATM   10  C10 UNL     1      19.924   0.608  51.765  1.00  0.00     0.111 C 
HETATM   11  C9  UNL     1      20.016  -0.267  52.752  1.00  0.00     0.134 C 
HETATM   12  N1  UNL     1      21.273  -0.472  53.373  1.00  0.00    -0.262 NA
HETATM   13  C8  UNL     1      22.319   0.215  53.001  1.00  0.00     0.066 C 
HETATM   14  C7  UNL     1      23.533  -0.167  53.731  1.00  0.00     0.069 C 
HETATM   15  C18 UNL     1      22.216   1.326  52.065  1.00  0.00     0.201 C 
HETATM   16  C6  UNL     1      24.669   0.365  53.236  1.00  0.00     0.110 C 
HETATM   17  C20 UNL     1      24.614   1.314  52.118  1.00  0.00     0.134 C 
HETATM   18  C19 UNL     1      23.490   1.768  51.536  1.00  0.00     0.111 C 
HETATM   19  O3  UNL     1      25.797   1.826  51.565  1.00  0.00    -0.344 OA
HETATM   20  O4  UNL     1      23.475   2.624  50.475  1.00  0.00    -0.348 OA
HETATM   21  C22 UNL     1      24.701   3.011  49.873  1.00  0.00     0.202 C 
HETATM   22  C21 UNL     1      25.717   3.127  51.014  1.00  0.00     0.202 C 
BRANCH  16  23
HETATM   23  O2  UNL     1      25.843   0.035  53.821  1.00  0.00    -0.318 OA
BRANCH  23  24
HETATM   24  C3  UNL     1      27.019  -0.459  53.295  1.00  0.00     0.266 C 
BRANCH  24  25
HETATM   25  O1  UNL     1      27.980  -0.657  54.318  1.00  0.00    -0.361 OA
BRANCH  25  26
HETATM   26  C2  UNL     1      28.882   0.376  54.361  1.00  0.00     0.166 C 
HETATM   27  C1  UNL     1      30.147  -0.081  53.640  1.00  0.00     0.033 C 
ENDBRANCH  25  26
ENDBRANCH  24  25
BRANCH  24  28
HETATM   28  C4  UNL     1      26.782  -1.725  52.541  1.00  0.00     0.056 C 
HETATM   29  C5  UNL     1      27.854  -2.753  52.779  1.00  0.00     0.010 C 
ENDBRANCH  24  28
ENDBRANCH  23  24
ENDBRANCH  16  23
ENDBRANCH   1   9
TORSDOF 6
ENDMDL
MODEL 6
REMARK VINA RESULT:      -7.2      1.731      2.701
REMARK  6 active torsions:
REMARK  status: ('A' for Active; 'I' for Inactive)
REMARK    1  A    between atoms: C2_2  and  O1_3 
REMARK    2  A    between atoms: O1_3  and  C3_4 
REMARK    3  A    between atoms: C3_4  and  C4_5 
REMARK    4  A    between atoms: C3_4  and  O2_7 
REMARK    5  A    between atoms: O2_7  and  C6_8 
REMARK    6  A    between atoms: N2_14  and  C11_15 
ROOT
HETATM    1  C11 UNL     1      24.213   6.439  48.999  1.00  0.00     0.034 A 
HETATM    2  C12 UNL     1      23.974   7.451  49.839  1.00  0.00     0.027 A 
HETATM    3  C13 UNL     1      23.126   8.413  49.135  1.00  0.00     0.006 A 
HETATM    4  C14 UNL     1      22.877   7.963  47.901  1.00  0.00    -0.060 A 
HETATM    5  C15 UNL     1      22.050   8.662  46.880  1.00  0.00     0.045 C 
HETATM    6  C16 UNL     1      23.543   6.649  47.672  1.00  0.00     0.171 A 
HETATM    7  C17 UNL     1      22.629   5.584  47.326  1.00  0.00     0.074 C 
HETATM    8  N3  UNL     1      21.918   4.732  47.041  1.00  0.00    -0.196 NA
ENDROOT
BRANCH   1   9
HETATM    9  N2  UNL     1      24.997   5.288  49.286  1.00  0.00    -0.340 N 
HETATM   10  C10 UNL     1      26.320   5.327  48.767  1.00  0.00     0.111 C 
HETATM   11  C9  UNL     1      27.253   4.469  49.145  1.00  0.00     0.134 C 
HETATM   12  N1  UNL     1      26.921   3.464  50.085  1.00  0.00    -0.262 NA
HETATM   13  C8  UNL     1      25.705   3.360  50.549  1.00  0.00     0.066 C 
HETATM   14  C7  UNL     1      25.568   2.287  51.540  1.00  0.00     0.069 C 
HETATM   15  C18 UNL     1      24.607   4.150  50.008  1.00  0.00     0.201 C 
HETATM   16  C6  UNL     1      24.389   2.283  52.195  1.00  0.00     0.110 C 
HETATM   17  C20 UNL     1      23.339   3.240  51.829  1.00  0.00     0.134 C 
HETATM   18  C19 UNL     1      23.414   4.136  50.830  1.00  0.00     0.111 C 
HETATM   19  O3  UNL     1      22.133   3.274  52.544  1.00  0.00    -0.344 OA
HETATM   20  O4  UNL     1      22.432   5.036  50.539  1.00  0.00    -0.348 OA
HETATM   21  C22 UNL     1      21.287   5.113  51.374  1.00  0.00     0.202 C 
HETATM   22  C21 UNL     1      20.987   3.678  51.819  1.00  0.00     0.202 C 
BRANCH  16  23
HETATM   23  O2  UNL     1      24.190   1.353  53.156  1.00  0.00    -0.318 OA
BRANCH  23  24
HETATM   24  C3  UNL     1      24.263  -0.024  53.125  1.00  0.00     0.266 C 
BRANCH  24  25
HETATM   25  O1  UNL     1      25.100  -0.505  54.163  1.00  0.00    -0.361 OA
BRANCH  25  26
HETATM   26  C2  UNL     1      26.424  -0.427  53.812  1.00  0.00     0.166 C 
HETATM   27  C1  UNL     1      26.618  -1.253  52.543  1.00  0.00     0.033 C 
ENDBRANCH  25  26
ENDBRANCH  24  25
BRANCH  24  28
HETATM   28  C4  UNL     1      22.906  -0.638  53.214  1.00  0.00     0.056 C 
HETATM   29  C5  UNL     1      22.513  -0.978  54.625  1.00  0.00     0.010 C 
ENDBRANCH  24  28
ENDBRANCH  23  24
ENDBRANCH  16  23
ENDBRANCH   1   9
TORSDOF 6
ENDMDL
MODEL 7
REMARK VINA RESULT:      -6.9      2.635      4.084
REMARK  6 active torsions:
REMARK  status: ('A' for Active; 'I' for Inactive)
REMARK    1  A    between atoms: C2_2  and  O1_3 
REMARK    2  A    between atoms: O1_3  and  C3_4 
REMARK    3  A    between atoms: C3_4  and  C4_5 
REMARK    4  A    between atoms: C3_4  and  O2_7 
REMARK    5  A    between atoms: O2_7  and  C6_8 
REMARK    6  A    between atoms: N2_14  and  C11_15 
ROOT
HETATM    1  C11 UNL     1      26.902   8.255  48.874  1.00  0.00     0.034 A 
HETATM    2  C12 UNL     1      27.035   8.914  50.030  1.00  0.00     0.027 A 
HETATM    3  C13 UNL     1      26.607  10.295  49.798  1.00  0.00     0.006 A 
HETATM    4  C14 UNL     1      26.232  10.433  48.522  1.00  0.00    -0.060 A 
HETATM    5  C15 UNL     1      25.733  11.690  47.902  1.00  0.00     0.045 C 
HETATM    6  C16 UNL     1      26.377   9.145  47.785  1.00  0.00     0.171 A 
HETATM    7  C17 UNL     1      25.143   8.661  47.206  1.00  0.00     0.074 C 
HETATM    8  N3  UNL     1      24.175   8.270  46.735  1.00  0.00    -0.196 NA
ENDROOT
BRANCH   1   9
HETATM    9  N2  UNL     1      27.208   6.883  48.661  1.00  0.00    -0.340 N 
HETATM   10  C10 UNL     1      28.480   6.643  48.073  1.00  0.00     0.111 C 
HETATM   11  C9  UNL     1      29.025   5.440  48.035  1.00  0.00     0.134 C 
HETATM   12  N1  UNL     1      28.311   4.345  48.581  1.00  0.00    -0.262 NA
HETATM   13  C8  UNL     1      27.118   4.512  49.085  1.00  0.00     0.066 C 
HETATM   14  C7  UNL     1      26.560   3.271  49.636  1.00  0.00     0.069 C 
HETATM   15  C18 UNL     1      26.402   5.774  48.962  1.00  0.00     0.201 C 
HETATM   16  C6  UNL     1      25.429   3.442  50.349  1.00  0.00     0.110 C 
HETATM   17  C20 UNL     1      24.809   4.768  50.445  1.00  0.00     0.134 C 
HETATM   18  C19 UNL     1      25.247   5.880  49.828  1.00  0.00     0.111 C 
HETATM   19  O3  UNL     1      23.662   4.959  51.230  1.00  0.00    -0.344 OA
HETATM   20  O4  UNL     1      24.666   7.105  49.967  1.00  0.00    -0.348 OA
HETATM   21  C22 UNL     1      23.587   7.268  50.874  1.00  0.00     0.202 C 
HETATM   22  C21 UNL     1      22.772   5.972  50.803  1.00  0.00     0.202 C 
BRANCH  16  23
HETATM   23  O2  UNL     1      24.865   2.358  50.930  1.00  0.00    -0.318 OA
BRANCH  23  24
HETATM   24  C3  UNL     1      25.141   1.710  52.116  1.00  0.00     0.266 C 
BRANCH  24  25
HETATM   25  O1  UNL     1      26.192   2.360  52.809  1.00  0.00    -0.361 OA
BRANCH  25  26
HETATM   26  C2  UNL     1      27.284   1.539  52.940  1.00  0.00     0.166 C 
HETATM   27  C1  UNL     1      28.424   2.370  53.522  1.00  0.00     0.033 C 
ENDBRANCH  25  26
ENDBRANCH  24  25
BRANCH  24  28
HETATM   28  C4  UNL     1      23.923   1.614  52.973  1.00  0.00     0.056 C 
HETATM   29  C5  UNL     1      23.307   0.242  52.958  1.00  0.00     0.010 C 
ENDBRANCH  24  28
ENDBRANCH  23  24
ENDBRANCH  16  23
ENDBRANCH   1   9
TORSDOF 6
ENDMDL
MODEL 8
REMARK VINA RESULT:      -6.8      2.967      6.390
REMARK  6 active torsions:
REMARK  status: ('A' for Active; 'I' for Inactive)
REMARK    1  A    between atoms: C2_2  and  O1_3 
REMARK    2  A    between atoms: O1_3  and  C3_4 
REMARK    3  A    between atoms: C3_4  and  C4_5 
REMARK    4  A    between atoms: C3_4  and  O2_7 
REMARK    5  A    between atoms: O2_7  and  C6_8 
REMARK    6  A    between atoms: N2_14  and  C11_15 
ROOT
HETATM    1  C11 UNL     1      21.460   1.971  50.422  1.00  0.00     0.034 A 
HETATM    2  C12 UNL     1      21.476   0.674  50.102  1.00  0.00     0.027 A 
HETATM    3  C13 UNL     1      21.106  -0.078  51.303  1.00  0.00     0.006 A 
HETATM    4  C14 UNL     1      20.878   0.777  52.306  1.00  0.00    -0.060 A 
HETATM    5  C15 UNL     1      20.479   0.396  53.688  1.00  0.00     0.045 C 
HETATM    6  C16 UNL     1      21.078   2.184  51.858  1.00  0.00     0.171 A 
HETATM    7  C17 UNL     1      19.907   3.018  52.014  1.00  0.00     0.074 C 
HETATM    8  N3  UNL     1      18.990   3.693  52.139  1.00  0.00    -0.196 NA
ENDROOT
BRANCH   1   9
HETATM    9  N2  UNL     1      21.758   3.048  49.542  1.00  0.00    -0.340 N 
HETATM   10  C10 UNL     1      20.627   3.617  48.897  1.00  0.00     0.111 C 
HETATM   11  C9  UNL     1      20.687   4.768  48.250  1.00  0.00     0.134 C 
HETATM   12  N1  UNL     1      21.926   5.452  48.179  1.00  0.00    -0.262 NA
HETATM   13  C8  UNL     1      23.002   4.940  48.714  1.00  0.00     0.066 C 
HETATM   14  C7  UNL     1      24.173   5.812  48.573  1.00  0.00     0.069 C 
HETATM   15  C18 UNL     1      23.021   3.587  49.254  1.00  0.00     0.201 C 
HETATM   16  C6  UNL     1      25.246   5.421  49.289  1.00  0.00     0.110 C 
HETATM   17  C20 UNL     1      25.208   4.166  50.049  1.00  0.00     0.134 C 
HETATM   18  C19 UNL     1      24.182   3.298  50.070  1.00  0.00     0.111 C 
HETATM   19  O3  UNL     1      26.303   3.783  50.838  1.00  0.00    -0.344 OA
HETATM   20  O4  UNL     1      24.166   2.156  50.816  1.00  0.00    -0.348 OA
HETATM   21  C22 UNL     1      25.245   1.883  51.695  1.00  0.00     0.202 C 
HETATM   22  C21 UNL     1      26.508   2.392  50.992  1.00  0.00     0.202 C 
BRANCH  16  23
HETATM   23  O2  UNL     1      26.359   6.188  49.252  1.00  0.00    -0.318 OA
BRANCH  23  24
HETATM   24  C3  UNL     1      27.350   6.314  48.302  1.00  0.00     0.266 C 
BRANCH  24  25
HETATM   25  O1  UNL     1      28.020   7.556  48.438  1.00  0.00    -0.361 OA
BRANCH  25  26
HETATM   26  C2  UNL     1      27.470   8.510  47.620  1.00  0.00     0.166 C 
HETATM   27  C1  UNL     1      28.079   8.340  46.231  1.00  0.00     0.033 C 
ENDBRANCH  25  26
ENDBRANCH  24  25
BRANCH  24  28
HETATM   28  C4  UNL     1      28.318   5.181  48.379  1.00  0.00     0.056 C 
HETATM   29  C5  UNL     1      29.743   5.618  48.175  1.00  0.00     0.010 C 
ENDBRANCH  24  28
ENDBRANCH  23  24
ENDBRANCH  16  23
ENDBRANCH   1   9
TORSDOF 6
ENDMDL
MODEL 9
REMARK VINA RESULT:      -6.8      3.048      8.171
REMARK  6 active torsions:
REMARK  status: ('A' for Active; 'I' for Inactive)
REMARK    1  A    between atoms: C2_2  and  O1_3 
REMARK    2  A    between atoms: O1_3  and  C3_4 
REMARK    3  A    between atoms: C3_4  and  C4_5 
REMARK    4  A    between atoms: C3_4  and  O2_7 
REMARK    5  A    between atoms: O2_7  and  C6_8 
REMARK    6  A    between atoms: N2_14  and  C11_15 
ROOT
HETATM    1  C11 UNL     1      25.635   0.283  53.798  1.00  0.00     0.034 A 
HETATM    2  C12 UNL     1      26.151   1.509  53.936  1.00  0.00     0.027 A 
HETATM    3  C13 UNL     1      27.604   1.365  54.028  1.00  0.00     0.006 A 
HETATM    4  C14 UNL     1      27.926   0.069  53.945  1.00  0.00    -0.060 A 
HETATM    5  C15 UNL     1      29.308  -0.480  53.999  1.00  0.00     0.045 C 
HETATM    6  C16 UNL     1      26.704  -0.770  53.789  1.00  0.00     0.171 A 
HETATM    7  C17 UNL     1      26.697  -1.572  52.584  1.00  0.00     0.074 C 
HETATM    8  N3  UNL     1      26.682  -2.219  51.639  1.00  0.00    -0.196 NA
ENDROOT
BRANCH   1   9
HETATM    9  N2  UNL     1      24.253  -0.028  53.672  1.00  0.00    -0.340 N 
HETATM   10  C10 UNL     1      23.733  -0.847  54.711  1.00  0.00     0.111 C 
HETATM   11  C9  UNL     1      22.435  -1.024  54.888  1.00  0.00     0.134 C 
HETATM   12  N1  UNL     1      21.528  -0.392  54.002  1.00  0.00    -0.262 NA
HETATM   13  C8  UNL     1      21.965   0.328  53.004  1.00  0.00     0.066 C 
HETATM   14  C7  UNL     1      20.877   0.931  52.225  1.00  0.00     0.069 C 
HETATM   15  C18 UNL     1      23.378   0.380  52.654  1.00  0.00     0.201 C 
HETATM   16  C6  UNL     1      21.283   1.845  51.321  1.00  0.00     0.110 C 
HETATM   17  C20 UNL     1      22.714   2.097  51.117  1.00  0.00     0.134 C 
HETATM   18  C19 UNL     1      23.716   1.447  51.735  1.00  0.00     0.111 C 
HETATM   19  O3  UNL     1      23.138   3.085  50.217  1.00  0.00    -0.344 OA
HETATM   20  O4  UNL     1      25.036   1.730  51.548  1.00  0.00    -0.348 OA
HETATM   21  C22 UNL     1      25.405   2.824  50.724  1.00  0.00     0.202 C 
HETATM   22  C21 UNL     1      24.383   2.862  49.583  1.00  0.00     0.202 C 
BRANCH  16  23
HETATM   23  O2  UNL     1      20.345   2.484  50.586  1.00  0.00    -0.318 OA
BRANCH  23  24
HETATM   24  C3  UNL     1      19.558   3.582  50.863  1.00  0.00     0.266 C 
BRANCH  24  25
HETATM   25  O1  UNL     1      18.708   3.323  51.967  1.00  0.00    -0.361 OA
BRANCH  25  26
HETATM   26  C2  UNL     1      17.440   2.998  51.553  1.00  0.00     0.166 C 
HETATM   27  C1  UNL     1      16.550   4.217  51.778  1.00  0.00     0.033 C 
ENDBRANCH  25  26
ENDBRANCH  24  25
BRANCH  24  28
HETATM   28  C4  UNL     1      20.394   4.794  51.113  1.00  0.00     0.056 C 
HETATM   29  C5  UNL     1      20.660   5.585  49.861  1.00  0.00     0.010 C 
ENDBRANCH  24  28
ENDBRANCH  23  24
ENDBRANCH  16  23
ENDBRANCH   1   9
TORSDOF 6
ENDMDL
