MODEL 1
REMARK VINA RESULT:      -9.3      0.000      0.000
REMARK  5 active torsions:
REMARK  status: ('A' for Active; 'I' for Inactive)
REMARK    1  A    between atoms: C2_2  and  C19_25 
REMARK    2  A    between atoms: C3_3  and  N1_5 
REMARK    3  A    between atoms: N1_5  and  C4_6 
REMARK    4  A    between atoms: C9_12  and  C10_13 
REMARK    5  A    between atoms: C10_13  and  C11_14 
ROOT
HETATM    1  C4  UNL     1      27.563   5.866  48.432  1.00  0.00     0.036 A 
HETATM    2  C5  UNL     1      26.608   6.833  48.666  1.00  0.00     0.032 A 
HETATM    3  C6  UNL     1      25.515   6.524  49.471  1.00  0.00     0.036 A 
HETATM    4  C7  UNL     1      25.462   5.236  49.995  1.00  0.00     0.085 A 
HETATM    5  N2  UNL     1      24.420   4.920  50.772  1.00  0.00    -0.257 NA
HETATM    6  C8  UNL     1      24.322   3.684  51.303  1.00  0.00     0.144 A 
HETATM    7  C9  UNL     1      25.278   2.721  51.068  1.00  0.00     0.057 A 
HETATM    8  N3  UNL     1      26.327   3.033  50.289  1.00  0.00    -0.249 NA
HETATM    9  C17 UNL     1      26.423   4.280  49.754  1.00  0.00     0.088 A 
HETATM   10  C18 UNL     1      27.509   4.588  48.953  1.00  0.00     0.063 A 
ENDROOT
BRANCH   1  11
HETATM   11  N1  UNL     1      28.623   6.313  47.594  1.00  0.00    -0.337 N 
HETATM   12  H3  UNL     1      28.862   6.846  46.730  1.00  0.00     0.168 HD
BRANCH  11  13
HETATM   13  C3  UNL     1      29.921   5.929  48.024  1.00  0.00     0.149 A 
HETATM   14  C2  UNL     1      31.077   6.522  48.672  1.00  0.00     0.019 A 
HETATM   15  C1  UNL     1      32.004   5.588  48.793  1.00  0.00     0.218 A 
HETATM   16  O1  UNL     1      30.761   4.967  48.100  1.00  0.00    -0.331 OA
BRANCH  14  17
HETATM   17  C19 UNL     1      31.347   7.896  49.170  1.00  0.00     0.136 C 
HETATM   18  C20 UNL     1      30.143   8.782  49.200  1.00  0.00     0.197 C 
HETATM   19  O2  UNL     1      29.854   9.444  48.032  1.00  0.00    -0.387 OA
HETATM   20  C21 UNL     1      30.731   9.273  46.998  1.00  0.00     0.186 C 
HETATM   21  C22 UNL     1      32.182   9.294  47.376  1.00  0.00     0.140 C 
HETATM   22  N4  UNL     1      32.466   8.506  48.529  1.00  0.00    -0.409 N 
HETATM   23  H20 UNL     1      33.283   7.893  48.489  1.00  0.00     0.154 HD
ENDBRANCH  14  17
ENDBRANCH  11  13
ENDBRANCH   1  11
BRANCH   7  24
HETATM   24  C10 UNL     1      25.069   1.406  51.700  1.00  0.00     0.099 C 
BRANCH  24  25
HETATM   25  C11 UNL     1      26.282   0.874  52.381  1.00  0.00    -0.051 A 
HETATM   26  C12 UNL     1      26.486  -0.508  52.320  1.00  0.00     0.011 A 
HETATM   27  C13 UNL     1      27.559  -1.161  52.898  1.00  0.00     0.044 A 
HETATM   28  C14 UNL     1      28.484  -0.378  53.580  1.00  0.00     0.138 A 
HETATM   29  F1  UNL     1      29.568  -0.973  54.173  1.00  0.00    -0.204 F 
HETATM   30  C15 UNL     1      28.309   0.989  53.657  1.00  0.00     0.073 A 
HETATM   31 CL1  UNL     1      29.455   2.012  54.510  1.00  0.00    -0.081 Cl
HETATM   32  C16 UNL     1      27.225   1.612  53.068  1.00  0.00     0.034 A 
ENDBRANCH  24  25
ENDBRANCH   7  24
TORSDOF 5
ENDMDL
MODEL 2
REMARK VINA RESULT:      -9.2      1.334      2.174
REMARK  5 active torsions:
REMARK  status: ('A' for Active; 'I' for Inactive)
REMARK    1  A    between atoms: C2_2  and  C19_25 
REMARK    2  A    between atoms: C3_3  and  N1_5 
REMARK    3  A    between atoms: N1_5  and  C4_6 
REMARK    4  A    between atoms: C9_12  and  C10_13 
REMARK    5  A    between atoms: C10_13  and  C11_14 
ROOT
HETATM    1  C4  UNL     1      28.044   6.142  48.215  1.00  0.00     0.036 A 
HETATM    2  C5  UNL     1      27.091   7.115  48.433  1.00  0.00     0.032 A 
HETATM    3  C6  UNL     1      25.958   6.797  49.178  1.00  0.00     0.036 A 
HETATM    4  C7  UNL     1      25.865   5.495  49.659  1.00  0.00     0.085 A 
HETATM    5  N2  UNL     1      24.784   5.170  50.377  1.00  0.00    -0.257 NA
HETATM    6  C8  UNL     1      24.646   3.921  50.865  1.00  0.00     0.144 A 
HETATM    7  C9  UNL     1      25.600   2.952  50.646  1.00  0.00     0.057 A 
HETATM    8  N3  UNL     1      26.688   3.272  49.926  1.00  0.00    -0.249 NA
HETATM    9  C17 UNL     1      26.825   4.533  49.434  1.00  0.00     0.088 A 
HETATM   10  C18 UNL     1      27.950   4.850  48.694  1.00  0.00     0.063 A 
ENDROOT
BRANCH   1  11
HETATM   11  N1  UNL     1      29.147   6.599  47.441  1.00  0.00    -0.337 N 
HETATM   12  H3  UNL     1      29.543   6.674  46.479  1.00  0.00     0.168 HD
BRANCH  11  13
HETATM   13  C3  UNL     1      30.182   7.219  48.191  1.00  0.00     0.149 A 
HETATM   14  C2  UNL     1      31.470   6.876  48.765  1.00  0.00     0.019 A 
HETATM   15  C1  UNL     1      31.952   7.950  49.366  1.00  0.00     0.218 A 
HETATM   16  O1  UNL     1      30.572   8.303  48.747  1.00  0.00    -0.331 OA
BRANCH  14  17
HETATM   17  C19 UNL     1      32.253   5.613  48.778  1.00  0.00     0.136 C 
HETATM   18  C20 UNL     1      33.735   5.813  48.768  1.00  0.00     0.197 C 
HETATM   19  O2  UNL     1      34.314   5.962  47.531  1.00  0.00    -0.387 OA
HETATM   20  C21 UNL     1      33.486   5.843  46.450  1.00  0.00     0.186 C 
HETATM   21  C22 UNL     1      32.478   4.736  46.530  1.00  0.00     0.140 C 
HETATM   22  N4  UNL     1      31.815   4.681  47.791  1.00  0.00    -0.409 N 
HETATM   23  H20 UNL     1      30.800   4.558  47.783  1.00  0.00     0.154 HD
ENDBRANCH  14  17
ENDBRANCH  11  13
ENDBRANCH   1  11
BRANCH   7  24
HETATM   24  C10 UNL     1      25.346   1.622  51.228  1.00  0.00     0.099 C 
BRANCH  24  25
HETATM   25  C11 UNL     1      26.473   1.109  52.055  1.00  0.00    -0.051 A 
HETATM   26  C12 UNL     1      26.625  -0.280  52.124  1.00  0.00     0.011 A 
HETATM   27  C13 UNL     1      27.617  -0.917  52.847  1.00  0.00     0.044 A 
HETATM   28  C14 UNL     1      28.511  -0.111  53.543  1.00  0.00     0.138 A 
HETATM   29  F1  UNL     1      29.515  -0.690  54.276  1.00  0.00    -0.204 F 
HETATM   30  C15 UNL     1      28.386   1.263  53.492  1.00  0.00     0.073 A 
HETATM   31 CL1  UNL     1      29.496   2.316  54.357  1.00  0.00    -0.081 Cl
HETATM   32  C16 UNL     1      27.383   1.870  52.761  1.00  0.00     0.034 A 
ENDBRANCH  24  25
ENDBRANCH   7  24
TORSDOF 5
ENDMDL
MODEL 3
REMARK VINA RESULT:      -9.0      1.835      2.718
REMARK  5 active torsions:
REMARK  status: ('A' for Active; 'I' for Inactive)
REMARK    1  A    between atoms: C2_2  and  C19_25 
REMARK    2  A    between atoms: C3_3  and  N1_5 
REMARK    3  A    between atoms: N1_5  and  C4_6 
REMARK    4  A    between atoms: C9_12  and  C10_13 
REMARK    5  A    between atoms: C10_13  and  C11_14 
ROOT
HETATM    1  C4  UNL     1      25.004   4.921  49.283  1.00  0.00     0.036 A 
HETATM    2  C5  UNL     1      23.783   4.775  48.658  1.00  0.00     0.032 A 
HETATM    3  C6  UNL     1      22.928   3.757  49.073  1.00  0.00     0.036 A 
HETATM    4  C7  UNL     1      23.374   2.943  50.110  1.00  0.00     0.085 A 
HETATM    5  N2  UNL     1      22.566   1.960  50.523  1.00  0.00    -0.257 NA
HETATM    6  C8  UNL     1      22.952   1.144  51.525  1.00  0.00     0.144 A 
HETATM    7  C9  UNL     1      24.170   1.293  52.148  1.00  0.00     0.057 A 
HETATM    8  N3  UNL     1      24.986   2.279  51.737  1.00  0.00    -0.249 NA
HETATM    9  C17 UNL     1      24.595   3.101  50.726  1.00  0.00     0.088 A 
HETATM   10  C18 UNL     1      25.444   4.113  50.313  1.00  0.00     0.063 A 
ENDROOT
BRANCH   1  11
HETATM   11  N1  UNL     1      25.777   5.996  48.763  1.00  0.00    -0.337 N 
HETATM   12  H3  UNL     1      25.751   6.986  48.435  1.00  0.00     0.168 HD
BRANCH  11  13
HETATM   13  C3  UNL     1      27.155   5.703  48.580  1.00  0.00     0.149 A 
HETATM   14  C2  UNL     1      28.362   6.368  48.126  1.00  0.00     0.019 A 
HETATM   15  C1  UNL     1      29.360   5.504  48.202  1.00  0.00     0.218 A 
HETATM   16  O1  UNL     1      28.060   4.805  48.685  1.00  0.00    -0.331 OA
BRANCH  14  17
HETATM   17  C19 UNL     1      28.618   7.746  47.633  1.00  0.00     0.136 C 
HETATM   18  C20 UNL     1      29.622   8.507  48.439  1.00  0.00     0.197 C 
HETATM   19  O2  UNL     1      29.133   9.171  49.537  1.00  0.00    -0.387 OA
HETATM   20  C21 UNL     1      27.782   9.120  49.732  1.00  0.00     0.186 C 
HETATM   21  C22 UNL     1      26.947   9.274  48.496  1.00  0.00     0.140 C 
HETATM   22  N4  UNL     1      27.417   8.484  47.407  1.00  0.00    -0.409 N 
HETATM   23  H20 UNL     1      26.722   7.957  46.874  1.00  0.00     0.154 HD
ENDBRANCH  14  17
ENDBRANCH  11  13
ENDBRANCH   1  11
BRANCH   7  24
HETATM   24  C10 UNL     1      24.487   0.344  53.230  1.00  0.00     0.099 C 
BRANCH  24  25
HETATM   25  C11 UNL     1      25.936   0.007  53.321  1.00  0.00    -0.051 A 
HETATM   26  C12 UNL     1      26.333  -1.219  52.778  1.00  0.00     0.011 A 
HETATM   27  C13 UNL     1      27.636  -1.683  52.780  1.00  0.00     0.044 A 
HETATM   28  C14 UNL     1      28.599  -0.865  53.362  1.00  0.00     0.138 A 
HETATM   29  F1  UNL     1      29.907  -1.275  53.392  1.00  0.00    -0.204 F 
HETATM   30  C15 UNL     1      28.235   0.352  53.905  1.00  0.00     0.073 A 
HETATM   31 CL1  UNL     1      29.421   1.413  54.649  1.00  0.00    -0.081 Cl
HETATM   32  C16 UNL     1      26.923   0.786  53.888  1.00  0.00     0.034 A 
ENDBRANCH  24  25
ENDBRANCH   7  24
TORSDOF 5
ENDMDL
MODEL 4
REMARK VINA RESULT:      -8.9      4.078      7.974
REMARK  5 active torsions:
REMARK  status: ('A' for Active; 'I' for Inactive)
REMARK    1  A    between atoms: C2_2  and  C19_25 
REMARK    2  A    between atoms: C3_3  and  N1_5 
REMARK    3  A    between atoms: N1_5  and  C4_6 
REMARK    4  A    between atoms: C9_12  and  C10_13 
REMARK    5  A    between atoms: C10_13  and  C11_14 
ROOT
HETATM    1  C4  UNL     1      23.512   2.452  51.432  1.00  0.00     0.036 A 
HETATM    2  C5  UNL     1      23.127   3.209  52.518  1.00  0.00     0.032 A 
HETATM    3  C6  UNL     1      23.394   4.575  52.520  1.00  0.00     0.036 A 
HETATM    4  C7  UNL     1      24.042   5.092  51.402  1.00  0.00     0.085 A 
HETATM    5  N2  UNL     1      24.307   6.403  51.384  1.00  0.00    -0.257 NA
HETATM    6  C8  UNL     1      24.933   6.952  50.324  1.00  0.00     0.144 A 
HETATM    7  C9  UNL     1      25.314   6.194  49.240  1.00  0.00     0.057 A 
HETATM    8  N3  UNL     1      25.051   4.877  49.251  1.00  0.00    -0.249 NA
HETATM    9  C17 UNL     1      24.419   4.325  50.323  1.00  0.00     0.088 A 
HETATM   10  C18 UNL     1      24.154   2.966  50.323  1.00  0.00     0.063 A 
ENDROOT
BRANCH   1  11
HETATM   11  N1  UNL     1      23.180   1.074  51.560  1.00  0.00    -0.337 N 
HETATM   12  H3  UNL     1      22.642   0.283  51.144  1.00  0.00     0.168 HD
BRANCH  11  13
HETATM   13  C3  UNL     1      23.771   0.422  52.675  1.00  0.00     0.149 A 
HETATM   14  C2  UNL     1      25.070  -0.079  53.084  1.00  0.00     0.019 A 
HETATM   15  C1  UNL     1      24.948  -0.599  54.293  1.00  0.00     0.218 A 
HETATM   16  O1  UNL     1      23.563  -0.058  53.842  1.00  0.00    -0.331 OA
BRANCH  14  17
HETATM   17  C19 UNL     1      26.393  -0.095  52.407  1.00  0.00     0.136 C 
HETATM   18  C20 UNL     1      27.542  -0.382  53.319  1.00  0.00     0.197 C 
HETATM   19  O2  UNL     1      28.078   0.701  53.972  1.00  0.00    -0.387 OA
HETATM   20  C21 UNL     1      27.548   1.923  53.666  1.00  0.00     0.186 C 
HETATM   21  C22 UNL     1      27.267   2.157  52.212  1.00  0.00     0.140 C 
HETATM   22  N4  UNL     1      26.609   1.055  51.591  1.00  0.00    -0.409 N 
HETATM   23  H20 UNL     1      25.816   1.265  50.982  1.00  0.00     0.154 HD
ENDBRANCH  14  17
ENDBRANCH  11  13
ENDBRANCH   1  11
BRANCH   7  24
HETATM   24  C10 UNL     1      25.992   6.900  48.137  1.00  0.00     0.099 C 
BRANCH  24  25
HETATM   25  C11 UNL     1      27.469   6.992  48.309  1.00  0.00    -0.051 A 
HETATM   26  C12 UNL     1      28.197   5.808  48.151  1.00  0.00     0.011 A 
HETATM   27  C13 UNL     1      29.572   5.720  48.277  1.00  0.00     0.044 A 
HETATM   28  C14 UNL     1      30.256   6.893  48.580  1.00  0.00     0.138 A 
HETATM   29  F1  UNL     1      31.620   6.864  48.717  1.00  0.00    -0.204 F 
HETATM   30  C15 UNL     1      29.563   8.076  48.741  1.00  0.00     0.073 A 
HETATM   31 CL1  UNL     1      30.392   9.577  49.123  1.00  0.00    -0.081 Cl
HETATM   32  C16 UNL     1      28.188   8.130  48.609  1.00  0.00     0.034 A 
ENDBRANCH  24  25
ENDBRANCH   7  24
TORSDOF 5
ENDMDL
MODEL 5
REMARK VINA RESULT:      -8.8      3.091      3.821
REMARK  5 active torsions:
REMARK  status: ('A' for Active; 'I' for Inactive)
REMARK    1  A    between atoms: C2_2  and  C19_25 
REMARK    2  A    between atoms: C3_3  and  N1_5 
REMARK    3  A    between atoms: N1_5  and  C4_6 
REMARK    4  A    between atoms: C9_12  and  C10_13 
REMARK    5  A    between atoms: C10_13  and  C11_14 
ROOT
HETATM    1  C4  UNL     1      25.993   6.129  49.804  1.00  0.00     0.036 A 
HETATM    2  C5  UNL     1      25.298   7.065  50.541  1.00  0.00     0.032 A 
HETATM    3  C6  UNL     1      24.135   6.678  51.200  1.00  0.00     0.036 A 
HETATM    4  C7  UNL     1      23.747   5.349  51.068  1.00  0.00     0.085 A 
HETATM    5  N2  UNL     1      22.632   4.958  51.695  1.00  0.00    -0.257 NA
HETATM    6  C8  UNL     1      22.214   3.680  51.598  1.00  0.00     0.144 A 
HETATM    7  C9  UNL     1      22.911   2.747  50.863  1.00  0.00     0.057 A 
HETATM    8  N3  UNL     1      24.032   3.134  50.231  1.00  0.00    -0.249 NA
HETATM    9  C17 UNL     1      24.451   4.424  50.330  1.00  0.00     0.088 A 
HETATM   10  C18 UNL     1      25.608   4.810  49.674  1.00  0.00     0.063 A 
ENDROOT
BRANCH   1  11
HETATM   11  N1  UNL     1      27.161   6.656  49.183  1.00  0.00    -0.337 N 
HETATM   12  H3  UNL     1      28.192   6.549  49.074  1.00  0.00     0.168 HD
BRANCH  11  13
HETATM   13  C3  UNL     1      26.933   7.787  48.354  1.00  0.00     0.149 A 
HETATM   14  C2  UNL     1      27.228   9.208  48.342  1.00  0.00     0.019 A 
HETATM   15  C1  UNL     1      26.715   9.724  47.238  1.00  0.00     0.218 A 
HETATM   16  O1  UNL     1      26.407   8.203  47.265  1.00  0.00    -0.331 OA
BRANCH  14  17
HETATM   17  C19 UNL     1      27.950  10.087  49.299  1.00  0.00     0.136 C 
HETATM   18  C20 UNL     1      28.415  11.379  48.709  1.00  0.00     0.197 C 
HETATM   19  O2  UNL     1      29.633  11.349  48.076  1.00  0.00    -0.387 OA
HETATM   20  C21 UNL     1      30.313  10.164  48.114  1.00  0.00     0.186 C 
HETATM   21  C22 UNL     1      30.284   9.448  49.432  1.00  0.00     0.140 C 
HETATM   22  N4  UNL     1      28.981   9.401  50.008  1.00  0.00    -0.409 N 
HETATM   23  H20 UNL     1      28.671   8.507  50.394  1.00  0.00     0.154 HD
ENDBRANCH  14  17
ENDBRANCH  11  13
ENDBRANCH   1  11
BRANCH   7  24
HETATM   24  C10 UNL     1      22.361   1.380  50.827  1.00  0.00     0.099 C 
BRANCH  24  25
HETATM   25  C11 UNL     1      22.614   0.605  52.073  1.00  0.00    -0.051 A 
HETATM   26  C12 UNL     1      21.506   0.006  52.680  1.00  0.00     0.011 A 
HETATM   27  C13 UNL     1      21.567  -0.746  53.839  1.00  0.00     0.044 A 
HETATM   28  C14 UNL     1      22.818  -0.906  54.425  1.00  0.00     0.138 A 
HETATM   29  F1  UNL     1      22.938  -1.641  55.576  1.00  0.00    -0.204 F 
HETATM   30  C15 UNL     1      23.930  -0.325  53.848  1.00  0.00     0.073 A 
HETATM   31 CL1  UNL     1      25.528  -0.504  54.558  1.00  0.00    -0.081 Cl
HETATM   32  C16 UNL     1      23.835   0.421  52.689  1.00  0.00     0.034 A 
ENDBRANCH  24  25
ENDBRANCH   7  24
TORSDOF 5
ENDMDL
MODEL 6
REMARK VINA RESULT:      -8.7      1.659      2.000
REMARK  5 active torsions:
REMARK  status: ('A' for Active; 'I' for Inactive)
REMARK    1  A    between atoms: C2_2  and  C19_25 
REMARK    2  A    between atoms: C3_3  and  N1_5 
REMARK    3  A    between atoms: N1_5  and  C4_6 
REMARK    4  A    between atoms: C9_12  and  C10_13 
REMARK    5  A    between atoms: C10_13  and  C11_14 
ROOT
HETATM    1  C4  UNL     1      25.540   6.365  49.007  1.00  0.00     0.036 A 
HETATM    2  C5  UNL     1      24.727   7.175  49.772  1.00  0.00     0.032 A 
HETATM    3  C6  UNL     1      24.046   6.623  50.853  1.00  0.00     0.036 A 
HETATM    4  C7  UNL     1      24.238   5.266  51.092  1.00  0.00     0.085 A 
HETATM    5  N2  UNL     1      23.592   4.716  52.127  1.00  0.00    -0.257 NA
HETATM    6  C8  UNL     1      23.744   3.404  52.400  1.00  0.00     0.144 A 
HETATM    7  C9  UNL     1      24.558   2.599  51.636  1.00  0.00     0.057 A 
HETATM    8  N3  UNL     1      25.210   3.145  50.595  1.00  0.00    -0.249 NA
HETATM    9  C17 UNL     1      25.054   4.469  50.321  1.00  0.00     0.088 A 
HETATM   10  C18 UNL     1      25.730   5.019  49.246  1.00  0.00     0.063 A 
ENDROOT
BRANCH   1  11
HETATM   11  N1  UNL     1      26.175   7.055  47.937  1.00  0.00    -0.337 N 
HETATM   12  H3  UNL     1      26.023   7.559  47.036  1.00  0.00     0.168 HD
BRANCH  11  13
HETATM   13  C3  UNL     1      27.588   7.150  48.046  1.00  0.00     0.149 A 
HETATM   14  C2  UNL     1      28.580   7.989  48.694  1.00  0.00     0.019 A 
HETATM   15  C1  UNL     1      29.777   7.523  48.385  1.00  0.00     0.218 A 
HETATM   16  O1  UNL     1      28.706   6.634  47.698  1.00  0.00    -0.331 OA
BRANCH  14  17
HETATM   17  C19 UNL     1      28.458   9.185  49.569  1.00  0.00     0.136 C 
HETATM   18  C20 UNL     1      27.436  10.175  49.110  1.00  0.00     0.197 C 
HETATM   19  O2  UNL     1      27.865  11.100  48.190  1.00  0.00    -0.387 OA
HETATM   20  C21 UNL     1      29.187  11.056  47.848  1.00  0.00     0.186 C 
HETATM   21  C22 UNL     1      30.139  10.830  48.985  1.00  0.00     0.140 C 
HETATM   22  N4  UNL     1      29.719   9.786  49.860  1.00  0.00    -0.409 N 
HETATM   23  H20 UNL     1      30.424   9.107  50.154  1.00  0.00     0.154 HD
ENDBRANCH  14  17
ENDBRANCH  11  13
ENDBRANCH   1  11
BRANCH   7  24
HETATM   24  C10 UNL     1      24.650   1.181  52.026  1.00  0.00     0.099 C 
BRANCH  24  25
HETATM   25  C11 UNL     1      25.992   0.792  52.543  1.00  0.00    -0.051 A 
HETATM   26  C12 UNL     1      26.329  -0.563  52.467  1.00  0.00     0.011 A 
HETATM   27  C13 UNL     1      27.532  -1.090  52.902  1.00  0.00     0.044 A 
HETATM   28  C14 UNL     1      28.453  -0.201  53.445  1.00  0.00     0.138 A 
HETATM   29  F1  UNL     1      29.662  -0.668  53.892  1.00  0.00    -0.204 F 
HETATM   30  C15 UNL     1      28.147   1.143  53.532  1.00  0.00     0.073 A 
HETATM   31 CL1  UNL     1      29.284   2.298  54.212  1.00  0.00    -0.081 Cl
HETATM   32  C16 UNL     1      26.935   1.637  53.089  1.00  0.00     0.034 A 
ENDBRANCH  24  25
ENDBRANCH   7  24
TORSDOF 5
ENDMDL
MODEL 7
REMARK VINA RESULT:      -8.7      1.874      2.272
REMARK  5 active torsions:
REMARK  status: ('A' for Active; 'I' for Inactive)
REMARK    1  A    between atoms: C2_2  and  C19_25 
REMARK    2  A    between atoms: C3_3  and  N1_5 
REMARK    3  A    between atoms: N1_5  and  C4_6 
REMARK    4  A    between atoms: C9_12  and  C10_13 
REMARK    5  A    between atoms: C10_13  and  C11_14 
ROOT
HETATM    1  C4  UNL     1      27.460   6.522  48.589  1.00  0.00     0.036 A 
HETATM    2  C5  UNL     1      26.975   7.595  49.306  1.00  0.00     0.032 A 
HETATM    3  C6  UNL     1      25.866   7.414  50.128  1.00  0.00     0.036 A 
HETATM    4  C7  UNL     1      25.314   6.138  50.170  1.00  0.00     0.085 A 
HETATM    5  N2  UNL     1      24.247   5.944  50.954  1.00  0.00    -0.257 NA
HETATM    6  C8  UNL     1      23.676   4.725  51.029  1.00  0.00     0.144 A 
HETATM    7  C9  UNL     1      24.163   3.655  50.314  1.00  0.00     0.057 A 
HETATM    8  N3  UNL     1      25.234   3.843  49.524  1.00  0.00    -0.249 NA
HETATM    9  C17 UNL     1      25.809   5.074  49.450  1.00  0.00     0.088 A 
HETATM   10  C18 UNL     1      26.911   5.255  48.633  1.00  0.00     0.063 A 
ENDROOT
BRANCH   1  11
HETATM   11  N1  UNL     1      28.593   6.844  47.791  1.00  0.00    -0.337 N 
HETATM   12  H3  UNL     1      28.929   7.377  46.960  1.00  0.00     0.168 HD
BRANCH  11  13
HETATM   13  C3  UNL     1      29.809   6.245  48.218  1.00  0.00     0.149 A 
HETATM   14  C2  UNL     1      31.067   6.641  48.823  1.00  0.00     0.019 A 
HETATM   15  C1  UNL     1      31.811   5.558  48.970  1.00  0.00     0.218 A 
HETATM   16  O1  UNL     1      30.460   5.149  48.323  1.00  0.00    -0.331 OA
BRANCH  14  17
HETATM   17  C19 UNL     1      31.595   7.960  49.258  1.00  0.00     0.136 C 
HETATM   18  C20 UNL     1      30.568   9.046  49.295  1.00  0.00     0.197 C 
HETATM   19  O2  UNL     1      30.352   9.711  48.113  1.00  0.00    -0.387 OA
HETATM   20  C21 UNL     1      31.142   9.355  47.057  1.00  0.00     0.186 C 
HETATM   21  C22 UNL     1      32.589   9.131  47.383  1.00  0.00     0.140 C 
HETATM   22  N4  UNL     1      32.777   8.341  48.555  1.00  0.00    -0.409 N 
HETATM   23  H20 UNL     1      33.471   7.593  48.511  1.00  0.00     0.154 HD
ENDBRANCH  14  17
ENDBRANCH  11  13
ENDBRANCH   1  11
BRANCH   7  24
HETATM   24  C10 UNL     1      23.460   2.370  50.473  1.00  0.00     0.099 C 
BRANCH  24  25
HETATM   25  C11 UNL     1      23.980   1.542  51.598  1.00  0.00    -0.051 A 
HETATM   26  C12 UNL     1      25.366   1.534  51.787  1.00  0.00     0.011 A 
HETATM   27  C13 UNL     1      26.010   0.820  52.781  1.00  0.00     0.044 A 
HETATM   28  C14 UNL     1      25.213   0.068  53.638  1.00  0.00     0.138 A 
HETATM   29  F1  UNL     1      25.799  -0.659  54.641  1.00  0.00    -0.204 F 
HETATM   30  C15 UNL     1      23.842   0.058  53.475  1.00  0.00     0.073 A 
HETATM   31 CL1  UNL     1      22.802  -0.879  54.537  1.00  0.00    -0.081 Cl
HETATM   32  C16 UNL     1      23.230   0.783  52.470  1.00  0.00     0.034 A 
ENDBRANCH  24  25
ENDBRANCH   7  24
TORSDOF 5
ENDMDL
MODEL 8
REMARK VINA RESULT:      -8.6      2.626      3.199
REMARK  5 active torsions:
REMARK  status: ('A' for Active; 'I' for Inactive)
REMARK    1  A    between atoms: C2_2  and  C19_25 
REMARK    2  A    between atoms: C3_3  and  N1_5 
REMARK    3  A    between atoms: N1_5  and  C4_6 
REMARK    4  A    between atoms: C9_12  and  C10_13 
REMARK    5  A    between atoms: C10_13  and  C11_14 
ROOT
HETATM    1  C4  UNL     1      25.892   6.323  49.346  1.00  0.00     0.036 A 
HETATM    2  C5  UNL     1      25.425   7.176  50.324  1.00  0.00     0.032 A 
HETATM    3  C6  UNL     1      24.460   6.717  51.217  1.00  0.00     0.036 A 
HETATM    4  C7  UNL     1      24.027   5.405  51.058  1.00  0.00     0.085 A 
HETATM    5  N2  UNL     1      23.101   4.945  51.906  1.00  0.00    -0.257 NA
HETATM    6  C8  UNL     1      22.648   3.680  51.793  1.00  0.00     0.144 A 
HETATM    7  C9  UNL     1      23.118   2.831  50.817  1.00  0.00     0.057 A 
HETATM    8  N3  UNL     1      24.048   3.286  49.961  1.00  0.00    -0.249 NA
HETATM    9  C17 UNL     1      24.503   4.563  50.077  1.00  0.00     0.088 A 
HETATM   10  C18 UNL     1      25.462   5.021  49.190  1.00  0.00     0.063 A 
ENDROOT
BRANCH   1  11
HETATM   11  N1  UNL     1      26.873   6.918  48.503  1.00  0.00    -0.337 N 
HETATM   12  H3  UNL     1      27.100   7.743  47.908  1.00  0.00     0.168 HD
BRANCH  11  13
HETATM   13  C3  UNL     1      28.061   6.155  48.345  1.00  0.00     0.149 A 
HETATM   14  C2  UNL     1      29.423   6.339  47.878  1.00  0.00     0.019 A 
HETATM   15  C1  UNL     1      30.057   5.186  47.997  1.00  0.00     0.218 A 
HETATM   16  O1  UNL     1      28.597   5.003  48.493  1.00  0.00    -0.331 OA
BRANCH  14  17
HETATM   17  C19 UNL     1      30.141   7.522  47.335  1.00  0.00     0.136 C 
HETATM   18  C20 UNL     1      31.631   7.402  47.374  1.00  0.00     0.197 C 
HETATM   19  O2  UNL     1      32.235   7.784  48.546  1.00  0.00    -0.387 OA
HETATM   20  C21 UNL     1      31.419   8.292  49.518  1.00  0.00     0.186 C 
HETATM   21  C22 UNL     1      30.355   9.233  49.037  1.00  0.00     0.140 C 
HETATM   22  N4  UNL     1      29.671   8.753  47.882  1.00  0.00    -0.409 N 
HETATM   23  H20 UNL     1      28.652   8.827  47.875  1.00  0.00     0.154 HD
ENDBRANCH  14  17
ENDBRANCH  11  13
ENDBRANCH   1  11
BRANCH   7  24
HETATM   24  C10 UNL     1      22.552   1.470  50.788  1.00  0.00     0.099 C 
BRANCH  24  25
HETATM   25  C11 UNL     1      22.805   0.694  52.034  1.00  0.00    -0.051 A 
HETATM   26  C12 UNL     1      21.693   0.114  52.652  1.00  0.00     0.011 A 
HETATM   27  C13 UNL     1      21.753  -0.636  53.813  1.00  0.00     0.044 A 
HETATM   28  C14 UNL     1      23.007  -0.813  54.388  1.00  0.00     0.138 A 
HETATM   29  F1  UNL     1      23.125  -1.547  55.540  1.00  0.00    -0.204 F 
HETATM   30  C15 UNL     1      24.122  -0.251  53.799  1.00  0.00     0.073 A 
HETATM   31 CL1  UNL     1      25.723  -0.453  54.495  1.00  0.00    -0.081 Cl
HETATM   32  C16 UNL     1      24.028   0.493  52.639  1.00  0.00     0.034 A 
ENDBRANCH  24  25
ENDBRANCH   7  24
TORSDOF 5
ENDMDL
MODEL 9
REMARK VINA RESULT:      -8.6      3.785      8.360
REMARK  5 active torsions:
REMARK  status: ('A' for Active; 'I' for Inactive)
REMARK    1  A    between atoms: C2_2  and  C19_25 
REMARK    2  A    between atoms: C3_3  and  N1_5 
REMARK    3  A    between atoms: N1_5  and  C4_6 
REMARK    4  A    between atoms: C9_12  and  C10_13 
REMARK    5  A    between atoms: C10_13  and  C11_14 
ROOT
HETATM    1  C4  UNL     1      25.823   3.011  50.784  1.00  0.00     0.036 A 
HETATM    2  C5  UNL     1      24.551   3.381  51.169  1.00  0.00     0.032 A 
HETATM    3  C6  UNL     1      24.027   4.583  50.703  1.00  0.00     0.036 A 
HETATM    4  C7  UNL     1      24.838   5.343  49.867  1.00  0.00     0.085 A 
HETATM    5  N2  UNL     1      24.351   6.502  49.409  1.00  0.00    -0.257 NA
HETATM    6  C8  UNL     1      25.099   7.275  48.595  1.00  0.00     0.144 A 
HETATM    7  C9  UNL     1      26.367   6.903  48.211  1.00  0.00     0.057 A 
HETATM    8  N3  UNL     1      26.862   5.740  48.668  1.00  0.00    -0.249 NA
HETATM    9  C17 UNL     1      26.106   4.962  49.489  1.00  0.00     0.088 A 
HETATM   10  C18 UNL     1      26.627   3.766  49.953  1.00  0.00     0.063 A 
ENDROOT
BRANCH   1  11
HETATM   11  N1  UNL     1      26.236   1.763  51.330  1.00  0.00    -0.337 N 
HETATM   12  H3  UNL     1      26.061   0.735  51.338  1.00  0.00     0.168 HD
BRANCH  11  13
HETATM   13  C3  UNL     1      27.318   1.845  52.247  1.00  0.00     0.149 A 
HETATM   14  C2  UNL     1      27.970   1.015  53.243  1.00  0.00     0.019 A 
HETATM   15  C1  UNL     1      28.963   1.709  53.770  1.00  0.00     0.218 A 
HETATM   16  O1  UNL     1      28.255   2.586  52.702  1.00  0.00    -0.331 OA
BRANCH  14  17
HETATM   17  C19 UNL     1      27.709  -0.370  53.715  1.00  0.00     0.136 C 
HETATM   18  C20 UNL     1      26.869  -1.185  52.784  1.00  0.00     0.197 C 
HETATM   19  O2  UNL     1      25.510  -1.058  52.931  1.00  0.00    -0.387 OA
HETATM   20  C21 UNL     1      25.077  -0.258  53.951  1.00  0.00     0.186 C 
HETATM   21  C22 UNL     1      25.827  -0.399  55.242  1.00  0.00     0.140 C 
HETATM   22  N4  UNL     1      27.241  -0.415  55.062  1.00  0.00    -0.409 N 
HETATM   23  H20 UNL     1      27.802   0.158  55.697  1.00  0.00     0.154 HD
ENDBRANCH  14  17
ENDBRANCH  11  13
ENDBRANCH   1  11
BRANCH   7  24
HETATM   24  C10 UNL     1      27.092   7.824  47.319  1.00  0.00     0.099 C 
BRANCH  24  25
HETATM   25  C11 UNL     1      28.548   7.923  47.621  1.00  0.00    -0.051 A 
HETATM   26  C12 UNL     1      28.910   8.675  48.743  1.00  0.00     0.011 A 
HETATM   27  C13 UNL     1      30.214   8.867  49.162  1.00  0.00     0.044 A 
HETATM   28  C14 UNL     1      31.216   8.267  48.407  1.00  0.00     0.138 A 
HETATM   29  F1  UNL     1      32.527   8.424  48.776  1.00  0.00    -0.204 F 
HETATM   30  C15 UNL     1      30.888   7.518  47.294  1.00  0.00     0.073 A 
HETATM   31 CL1  UNL     1      32.125   6.745  46.315  1.00  0.00    -0.081 Cl
HETATM   32  C16 UNL     1      29.574   7.346  46.902  1.00  0.00     0.034 A 
ENDBRANCH  24  25
ENDBRANCH   7  24
TORSDOF 5
ENDMDL
