MODEL 1
REMARK VINA RESULT:      -7.0      0.000      0.000
REMARK  7 active torsions:
REMARK  status: ('A' for Active; 'I' for Inactive)
REMARK    1  A    between atoms: C2_2  and  N1_3 
REMARK    2  A    between atoms: N1_3  and  C3_4 
REMARK    3  A    between atoms: N1_3  and  C5_6 
REMARK    4  A    between atoms: C5_6  and  N2_7 
REMARK       I    between atoms: N2_7  and  C6_8 
REMARK    5  A    between atoms: C6_8  and  C7_10 
REMARK    6  A    between atoms: C7_10  and  C8_11 
REMARK    7  A    between atoms: C8_11  and  C10_13 
ROOT
HETATM    1  C8  UNL     1      25.813  -0.130  53.488  1.00  0.00    -0.064 C 
HETATM    2  C9  UNL     1      26.640  -0.880  52.516  1.00  0.00     0.044 C 
ENDROOT
BRANCH   1   3
HETATM    3  C7  UNL     1      26.379   1.186  53.786  1.00  0.00     0.137 C 
BRANCH   3   4
HETATM    4  C6  UNL     1      26.662   1.968  52.527  1.00  0.00     0.222 C 
HETATM    5  N2  UNL     1      25.710   2.328  51.535  1.00  0.00    -0.336 N 
HETATM    6  H13 UNL     1      24.790   1.950  51.843  1.00  0.00     0.164 HD
HETATM    7  O1  UNL     1      27.911   2.238  52.529  1.00  0.00    -0.273 OA
BRANCH   5   8
HETATM    8  C5  UNL     1      26.425   3.061  50.526  1.00  0.00     0.397 C 
BRANCH   8   9
HETATM    9  N1  UNL     1      25.640   3.607  49.475  1.00  0.00     0.104 NA
BRANCH   9  10
HETATM   10  C2  UNL     1      24.251   3.781  49.727  1.00  0.00     0.270 C 
HETATM   11  C1  UNL     1      23.312   2.957  48.919  1.00  0.00     0.037 C 
ENDBRANCH   9  10
BRANCH   9  12
HETATM   12  C3  UNL     1      26.195   4.946  49.203  1.00  0.00     0.270 C 
HETATM   13  C4  UNL     1      27.592   4.847  48.666  1.00  0.00     0.037 C 
ENDBRANCH   9  12
ENDBRANCH   8   9
ENDBRANCH   5   8
ENDBRANCH   3   4
ENDBRANCH   1   3
BRANCH   1  14
HETATM   14  C10 UNL     1      24.683  -0.470  54.086  1.00  0.00    -0.025 A 
HETATM   15  C11 UNL     1      24.565  -1.213  55.319  1.00  0.00     0.010 A 
HETATM   16  C12 UNL     1      23.260  -1.304  55.468  1.00  0.00     0.004 A 
HETATM   17  C13 UNL     1      22.432  -0.707  54.430  1.00  0.00     0.138 A 
HETATM   18  N3  UNL     1      21.279  -0.002  54.717  1.00  0.00    -0.387 N 
HETATM   19  C17 UNL     1      23.425  -0.084  53.483  1.00  0.00    -0.021 A 
HETATM   20  C14 UNL     1      20.625   0.438  53.502  1.00  0.00     0.084 C 
HETATM   21  H22 UNL     1      20.781   0.282  55.587  1.00  0.00     0.159 HD
HETATM   22  C15 UNL     1      21.331   0.631  52.369  1.00  0.00     0.017 C 
HETATM   23  C16 UNL     1      22.783   0.353  52.441  1.00  0.00     0.012 C 
ENDBRANCH   1  14
TORSDOF 7
ENDMDL
MODEL 2
REMARK VINA RESULT:      -6.8      2.577      4.244
REMARK  7 active torsions:
REMARK  status: ('A' for Active; 'I' for Inactive)
REMARK    1  A    between atoms: C2_2  and  N1_3 
REMARK    2  A    between atoms: N1_3  and  C3_4 
REMARK    3  A    between atoms: N1_3  and  C5_6 
REMARK    4  A    between atoms: C5_6  and  N2_7 
REMARK       I    between atoms: N2_7  and  C6_8 
REMARK    5  A    between atoms: C6_8  and  C7_10 
REMARK    6  A    between atoms: C7_10  and  C8_11 
REMARK    7  A    between atoms: C8_11  and  C10_13 
ROOT
HETATM    1  C8  UNL     1      23.495   1.486  52.706  1.00  0.00    -0.064 C 
HETATM    2  C9  UNL     1      23.663   2.893  53.135  1.00  0.00     0.044 C 
ENDROOT
BRANCH   1   3
HETATM    3  C7  UNL     1      24.308   1.173  51.530  1.00  0.00     0.137 C 
BRANCH   3   4
HETATM    4  C6  UNL     1      25.775   1.091  51.874  1.00  0.00     0.222 C 
HETATM    5  N2  UNL     1      26.368   0.188  52.798  1.00  0.00    -0.336 N 
HETATM    6  H13 UNL     1      25.601  -0.399  53.187  1.00  0.00     0.164 HD
HETATM    7  O1  UNL     1      26.370   1.985  51.181  1.00  0.00    -0.273 OA
BRANCH   5   8
HETATM    8  C5  UNL     1      27.777   0.472  52.802  1.00  0.00     0.397 C 
BRANCH   8   9
HETATM    9  N1  UNL     1      28.502   0.024  53.940  1.00  0.00     0.104 NA
BRANCH   9  10
HETATM   10  C2  UNL     1      29.550  -0.911  53.713  1.00  0.00     0.270 C 
HETATM   11  C1  UNL     1      29.155  -2.259  53.220  1.00  0.00     0.037 C 
ENDBRANCH   9  10
BRANCH   9  12
HETATM   12  C3  UNL     1      29.124   1.225  54.528  1.00  0.00     0.270 C 
HETATM   13  C4  UNL     1      28.807   2.445  53.713  1.00  0.00     0.037 C 
ENDBRANCH   9  12
ENDBRANCH   8   9
ENDBRANCH   5   8
ENDBRANCH   3   4
ENDBRANCH   1   3
BRANCH   1  14
HETATM   14  C10 UNL     1      22.752   0.522  53.222  1.00  0.00    -0.025 A 
HETATM   15  C11 UNL     1      23.156  -0.399  54.259  1.00  0.00     0.010 A 
HETATM   16  C12 UNL     1      22.086  -1.155  54.396  1.00  0.00     0.004 A 
HETATM   17  C13 UNL     1      20.955  -0.865  53.526  1.00  0.00     0.138 A 
HETATM   18  N3  UNL     1      19.649  -0.897  53.974  1.00  0.00    -0.387 N 
HETATM   19  C17 UNL     1      21.402   0.337  52.733  1.00  0.00    -0.021 A 
HETATM   20  C14 UNL     1      18.724  -0.621  52.894  1.00  0.00     0.084 C 
HETATM   21  H22 UNL     1      19.183  -1.071  54.889  1.00  0.00     0.159 HD
HETATM   22  C15 UNL     1      19.108   0.109  51.826  1.00  0.00     0.017 C 
HETATM   23  C16 UNL     1      20.509   0.584  51.822  1.00  0.00     0.012 C 
ENDBRANCH   1  14
TORSDOF 7
ENDMDL
MODEL 3
REMARK VINA RESULT:      -6.7      1.564      2.182
REMARK  7 active torsions:
REMARK  status: ('A' for Active; 'I' for Inactive)
REMARK    1  A    between atoms: C2_2  and  N1_3 
REMARK    2  A    between atoms: N1_3  and  C3_4 
REMARK    3  A    between atoms: N1_3  and  C5_6 
REMARK    4  A    between atoms: C5_6  and  N2_7 
REMARK       I    between atoms: N2_7  and  C6_8 
REMARK    5  A    between atoms: C6_8  and  C7_10 
REMARK    6  A    between atoms: C7_10  and  C8_11 
REMARK    7  A    between atoms: C8_11  and  C10_13 
ROOT
HETATM    1  C8  UNL     1      24.886   0.500  53.025  1.00  0.00    -0.064 C 
HETATM    2  C9  UNL     1      26.067  -0.067  52.336  1.00  0.00     0.044 C 
ENDROOT
BRANCH   1   3
HETATM    3  C7  UNL     1      24.882   1.963  52.988  1.00  0.00     0.137 C 
BRANCH   3   4
HETATM    4  C6  UNL     1      25.281   2.486  51.630  1.00  0.00     0.222 C 
HETATM    5  N2  UNL     1      26.529   3.078  51.295  1.00  0.00    -0.336 N 
HETATM    6  H13 UNL     1      27.108   3.082  52.161  1.00  0.00     0.164 HD
HETATM    7  O1  UNL     1      24.286   2.295  50.851  1.00  0.00    -0.273 OA
BRANCH   5   8
HETATM    8  C5  UNL     1      26.460   3.423  49.902  1.00  0.00     0.397 C 
BRANCH   8   9
HETATM    9  N1  UNL     1      26.766   4.771  49.574  1.00  0.00     0.104 NA
BRANCH   9  10
HETATM   10  C2  UNL     1      27.748   4.986  48.567  1.00  0.00     0.270 C 
HETATM   11  C1  UNL     1      28.031   6.398  48.193  1.00  0.00     0.037 C 
ENDBRANCH   9  10
BRANCH   9  12
HETATM   12  C3  UNL     1      25.512   5.368  49.080  1.00  0.00     0.270 C 
HETATM   13  C4  UNL     1      24.729   5.977  50.206  1.00  0.00     0.037 C 
ENDBRANCH   9  12
ENDBRANCH   8   9
ENDBRANCH   5   8
ENDBRANCH   3   4
ENDBRANCH   1   3
BRANCH   1  14
HETATM   14  C10 UNL     1      23.881  -0.109  53.632  1.00  0.00    -0.025 A 
HETATM   15  C11 UNL     1      23.969  -0.892  54.842  1.00  0.00     0.010 A 
HETATM   16  C12 UNL     1      22.724  -1.288  55.012  1.00  0.00     0.004 A 
HETATM   17  C13 UNL     1      21.755  -0.871  54.009  1.00  0.00     0.138 A 
HETATM   18  N3  UNL     1      20.478  -0.460  54.340  1.00  0.00    -0.387 N 
HETATM   19  C17 UNL     1      22.553  -0.008  53.065  1.00  0.00    -0.021 A 
HETATM   20  C14 UNL     1      19.709  -0.151  53.152  1.00  0.00     0.084 C 
HETATM   21  H22 UNL     1      19.949  -0.324  55.227  1.00  0.00     0.159 HD
HETATM   22  C15 UNL     1      20.323   0.232  52.013  1.00  0.00     0.017 C 
HETATM   23  C16 UNL     1      21.801   0.296  52.050  1.00  0.00     0.012 C 
ENDBRANCH   1  14
TORSDOF 7
ENDMDL
MODEL 4
REMARK VINA RESULT:      -6.7      1.958      2.341
REMARK  7 active torsions:
REMARK  status: ('A' for Active; 'I' for Inactive)
REMARK    1  A    between atoms: C2_2  and  N1_3 
REMARK    2  A    between atoms: N1_3  and  C3_4 
REMARK    3  A    between atoms: N1_3  and  C5_6 
REMARK    4  A    between atoms: C5_6  and  N2_7 
REMARK       I    between atoms: N2_7  and  C6_8 
REMARK    5  A    between atoms: C6_8  and  C7_10 
REMARK    6  A    between atoms: C7_10  and  C8_11 
REMARK    7  A    between atoms: C8_11  and  C10_13 
ROOT
HETATM    1  C8  UNL     1      25.601  -0.140  53.459  1.00  0.00    -0.064 C 
HETATM    2  C9  UNL     1      26.447  -0.876  52.492  1.00  0.00     0.044 C 
ENDROOT
BRANCH   1   3
HETATM    3  C7  UNL     1      26.080   1.225  53.675  1.00  0.00     0.137 C 
BRANCH   3   4
HETATM    4  C6  UNL     1      25.323   2.221  52.832  1.00  0.00     0.222 C 
HETATM    5  N2  UNL     1      24.421   3.209  53.312  1.00  0.00    -0.336 N 
HETATM    6  H13 UNL     1      24.385   3.112  54.348  1.00  0.00     0.164 HD
HETATM    7  O1  UNL     1      25.647   2.000  51.616  1.00  0.00    -0.273 OA
BRANCH   5   8
HETATM    8  C5  UNL     1      23.940   3.921  52.160  1.00  0.00     0.397 C 
BRANCH   8   9
HETATM    9  N1  UNL     1      22.666   3.529  51.669  1.00  0.00     0.104 NA
BRANCH   9  10
HETATM   10  C2  UNL     1      21.541   4.276  52.116  1.00  0.00     0.270 C 
HETATM   11  C1  UNL     1      20.198   3.679  51.880  1.00  0.00     0.037 C 
ENDBRANCH   9  10
BRANCH   9  12
HETATM   12  C3  UNL     1      22.725   3.686  50.204  1.00  0.00     0.270 C 
HETATM   13  C4  UNL     1      22.799   2.349  49.525  1.00  0.00     0.037 C 
ENDBRANCH   9  12
ENDBRANCH   8   9
ENDBRANCH   5   8
ENDBRANCH   3   4
ENDBRANCH   1   3
BRANCH   1  14
HETATM   14  C10 UNL     1      24.520  -0.531  54.114  1.00  0.00    -0.025 A 
HETATM   15  C11 UNL     1      24.496  -1.177  55.405  1.00  0.00     0.010 A 
HETATM   16  C12 UNL     1      23.208  -1.374  55.598  1.00  0.00     0.004 A 
HETATM   17  C13 UNL     1      22.308  -0.940  54.539  1.00  0.00     0.138 A 
HETATM   18  N3  UNL     1      21.101  -0.320  54.801  1.00  0.00    -0.387 N 
HETATM   19  C17 UNL     1      23.220  -0.310  53.518  1.00  0.00    -0.021 A 
HETATM   20  C14 UNL     1      20.384  -0.042  53.574  1.00  0.00     0.084 C 
HETATM   21  H22 UNL     1      20.597  -0.012  55.659  1.00  0.00     0.159 HD
HETATM   22  C15 UNL     1      21.046   0.120  52.409  1.00  0.00     0.017 C 
HETATM   23  C16 UNL     1      22.518  -0.019  52.463  1.00  0.00     0.012 C 
ENDBRANCH   1  14
TORSDOF 7
ENDMDL
MODEL 5
REMARK VINA RESULT:      -6.7      2.456      5.947
REMARK  7 active torsions:
REMARK  status: ('A' for Active; 'I' for Inactive)
REMARK    1  A    between atoms: C2_2  and  N1_3 
REMARK    2  A    between atoms: N1_3  and  C3_4 
REMARK    3  A    between atoms: N1_3  and  C5_6 
REMARK    4  A    between atoms: C5_6  and  N2_7 
REMARK       I    between atoms: N2_7  and  C6_8 
REMARK    5  A    between atoms: C6_8  and  C7_10 
REMARK    6  A    between atoms: C7_10  and  C8_11 
REMARK    7  A    between atoms: C8_11  and  C10_13 
ROOT
HETATM    1  C8  UNL     1      26.123   2.432  52.251  1.00  0.00    -0.064 C 
HETATM    2  C9  UNL     1      25.889   2.975  50.894  1.00  0.00     0.044 C 
ENDROOT
BRANCH   1   3
HETATM    3  C7  UNL     1      25.021   2.744  53.162  1.00  0.00     0.137 C 
BRANCH   3   4
HETATM    4  C6  UNL     1      23.715   2.166  52.674  1.00  0.00     0.222 C 
HETATM    5  N2  UNL     1      23.454   0.794  52.412  1.00  0.00    -0.336 N 
HETATM    6  H13 UNL     1      24.330   0.271  52.619  1.00  0.00     0.164 HD
HETATM    7  O1  UNL     1      22.902   3.144  52.543  1.00  0.00    -0.273 OA
BRANCH   5   8
HETATM    8  C5  UNL     1      22.089   0.713  51.969  1.00  0.00     0.397 C 
BRANCH   8   9
HETATM    9  N1  UNL     1      21.313  -0.342  52.521  1.00  0.00     0.104 NA
BRANCH   9  10
HETATM   10  C2  UNL     1      21.902  -1.098  53.573  1.00  0.00     0.270 C 
HETATM   11  C1  UNL     1      21.634  -0.640  54.963  1.00  0.00     0.037 C 
ENDBRANCH   9  10
BRANCH   9  12
HETATM   12  C3  UNL     1      20.102   0.289  53.078  1.00  0.00     0.270 C 
HETATM   13  C4  UNL     1      18.863  -0.344  52.514  1.00  0.00     0.037 C 
ENDBRANCH   9  12
ENDBRANCH   8   9
ENDBRANCH   5   8
ENDBRANCH   3   4
ENDBRANCH   1   3
BRANCH   1  14
HETATM   14  C10 UNL     1      27.140   1.731  52.723  1.00  0.00    -0.025 A 
HETATM   15  C11 UNL     1      28.299   2.265  53.401  1.00  0.00     0.010 A 
HETATM   16  C12 UNL     1      29.007   1.181  53.642  1.00  0.00     0.004 A 
HETATM   17  C13 UNL     1      28.461  -0.084  53.174  1.00  0.00     0.138 A 
HETATM   18  N3  UNL     1      28.528  -1.242  53.925  1.00  0.00    -0.387 N 
HETATM   19  C17 UNL     1      27.133   0.292  52.569  1.00  0.00    -0.021 A 
HETATM   20  C14 UNL     1      27.957  -2.361  53.203  1.00  0.00     0.084 C 
HETATM   21  H22 UNL     1      28.885  -1.493  54.870  1.00  0.00     0.159 HD
HETATM   22  C15 UNL     1      27.018  -2.163  52.254  1.00  0.00     0.017 C 
HETATM   23  C16 UNL     1      26.632  -0.759  51.991  1.00  0.00     0.012 C 
ENDBRANCH   1  14
TORSDOF 7
ENDMDL
MODEL 6
REMARK VINA RESULT:      -6.7      2.446      4.381
REMARK  7 active torsions:
REMARK  status: ('A' for Active; 'I' for Inactive)
REMARK    1  A    between atoms: C2_2  and  N1_3 
REMARK    2  A    between atoms: N1_3  and  C3_4 
REMARK    3  A    between atoms: N1_3  and  C5_6 
REMARK    4  A    between atoms: C5_6  and  N2_7 
REMARK       I    between atoms: N2_7  and  C6_8 
REMARK    5  A    between atoms: C6_8  and  C7_10 
REMARK    6  A    between atoms: C7_10  and  C8_11 
REMARK    7  A    between atoms: C8_11  and  C10_13 
ROOT
HETATM    1  C8  UNL     1      24.699   2.341  52.512  1.00  0.00    -0.064 C 
HETATM    2  C9  UNL     1      24.161   3.634  52.993  1.00  0.00     0.044 C 
ENDROOT
BRANCH   1   3
HETATM    3  C7  UNL     1      24.638   2.233  51.054  1.00  0.00     0.137 C 
BRANCH   3   4
HETATM    4  C6  UNL     1      25.585   3.198  50.385  1.00  0.00     0.222 C 
HETATM    5  N2  UNL     1      25.230   4.432  49.776  1.00  0.00    -0.336 N 
HETATM    6  H13 UNL     1      24.199   4.539  49.879  1.00  0.00     0.164 HD
HETATM    7  O1  UNL     1      26.755   2.691  50.472  1.00  0.00    -0.273 OA
BRANCH   5   8
HETATM    8  C5  UNL     1      26.447   5.008  49.273  1.00  0.00     0.397 C 
BRANCH   8   9
HETATM    9  N1  UNL     1      26.358   6.343  48.796  1.00  0.00     0.104 NA
BRANCH   9  10
HETATM   10  C2  UNL     1      25.830   7.316  49.690  1.00  0.00     0.270 C 
HETATM   11  C1  UNL     1      26.706   8.472  50.022  1.00  0.00     0.037 C 
ENDBRANCH   9  10
BRANCH   9  12
HETATM   12  C3  UNL     1      27.737   6.759  48.482  1.00  0.00     0.270 C 
HETATM   13  C4  UNL     1      28.619   5.565  48.262  1.00  0.00     0.037 C 
ENDBRANCH   9  12
ENDBRANCH   8   9
ENDBRANCH   5   8
ENDBRANCH   3   4
ENDBRANCH   1   3
BRANCH   1  14
HETATM   14  C10 UNL     1      25.209   1.327  53.191  1.00  0.00    -0.025 A 
HETATM   15  C11 UNL     1      24.497   0.142  53.610  1.00  0.00     0.010 A 
HETATM   16  C12 UNL     1      25.428  -0.531  54.254  1.00  0.00     0.004 A 
HETATM   17  C13 UNL     1      26.743   0.085  54.350  1.00  0.00     0.138 A 
HETATM   18  N3  UNL     1      27.912  -0.639  54.209  1.00  0.00    -0.387 N 
HETATM   19  C17 UNL     1      26.605   1.366  53.569  1.00  0.00    -0.021 A 
HETATM   20  C14 UNL     1      29.071   0.207  54.400  1.00  0.00     0.084 C 
HETATM   21  H22 UNL     1      28.148  -1.632  54.000  1.00  0.00     0.159 HD
HETATM   22  C15 UNL     1      29.005   1.534  54.162  1.00  0.00     0.017 C 
HETATM   23  C16 UNL     1      27.695   2.059  53.719  1.00  0.00     0.012 C 
ENDBRANCH   1  14
TORSDOF 7
ENDMDL
MODEL 7
REMARK VINA RESULT:      -6.6      2.544      4.314
REMARK  7 active torsions:
REMARK  status: ('A' for Active; 'I' for Inactive)
REMARK    1  A    between atoms: C2_2  and  N1_3 
REMARK    2  A    between atoms: N1_3  and  C3_4 
REMARK    3  A    between atoms: N1_3  and  C5_6 
REMARK    4  A    between atoms: C5_6  and  N2_7 
REMARK       I    between atoms: N2_7  and  C6_8 
REMARK    5  A    between atoms: C6_8  and  C7_10 
REMARK    6  A    between atoms: C7_10  and  C8_11 
REMARK    7  A    between atoms: C8_11  and  C10_13 
ROOT
HETATM    1  C8  UNL     1      23.875   1.688  52.392  1.00  0.00    -0.064 C 
HETATM    2  C9  UNL     1      23.099   1.345  51.179  1.00  0.00     0.044 C 
ENDROOT
BRANCH   1   3
HETATM    3  C7  UNL     1      23.767   3.108  52.727  1.00  0.00     0.137 C 
BRANCH   3   4
HETATM    4  C6  UNL     1      24.016   3.984  51.524  1.00  0.00     0.222 C 
HETATM    5  N2  UNL     1      25.265   4.173  50.871  1.00  0.00    -0.336 N 
HETATM    6  H13 UNL     1      25.966   3.596  51.380  1.00  0.00     0.164 HD
HETATM    7  O1  UNL     1      22.897   4.517  51.213  1.00  0.00    -0.273 OA
BRANCH   5   8
HETATM    8  C5  UNL     1      25.027   5.083  49.785  1.00  0.00     0.397 C 
BRANCH   8   9
HETATM    9  N1  UNL     1      25.757   6.302  49.818  1.00  0.00     0.104 NA
BRANCH   9  10
HETATM   10  C2  UNL     1      26.801   6.458  48.865  1.00  0.00     0.270 C 
HETATM   11  C1  UNL     1      27.622   5.254  48.561  1.00  0.00     0.037 C 
ENDBRANCH   9  10
BRANCH   9  12
HETATM   12  C3  UNL     1      24.778   7.373  49.557  1.00  0.00     0.270 C 
HETATM   13  C4  UNL     1      24.081   7.782  50.822  1.00  0.00     0.037 C 
ENDBRANCH   9  12
ENDBRANCH   8   9
ENDBRANCH   5   8
ENDBRANCH   3   4
ENDBRANCH   1   3
BRANCH   1  14
HETATM   14  C10 UNL     1      24.609   0.918  53.179  1.00  0.00    -0.025 A 
HETATM   15  C11 UNL     1      24.157  -0.268  53.869  1.00  0.00     0.010 A 
HETATM   16  C12 UNL     1      25.239  -0.644  54.519  1.00  0.00     0.004 A 
HETATM   17  C13 UNL     1      26.424   0.187  54.368  1.00  0.00     0.138 A 
HETATM   18  N3  UNL     1      27.691  -0.347  54.232  1.00  0.00    -0.387 N 
HETATM   19  C17 UNL     1      25.999   1.258  53.396  1.00  0.00    -0.021 A 
HETATM   20  C14 UNL     1      28.688   0.700  54.152  1.00  0.00     0.084 C 
HETATM   21  H22 UNL     1      28.088  -1.308  54.175  1.00  0.00     0.159 HD
HETATM   22  C15 UNL     1      28.365   1.928  53.696  1.00  0.00     0.017 C 
HETATM   23  C16 UNL     1      26.953   2.137  53.309  1.00  0.00     0.012 C 
ENDBRANCH   1  14
TORSDOF 7
ENDMDL
MODEL 8
REMARK VINA RESULT:      -6.3      2.839      5.486
REMARK  7 active torsions:
REMARK  status: ('A' for Active; 'I' for Inactive)
REMARK    1  A    between atoms: C2_2  and  N1_3 
REMARK    2  A    between atoms: N1_3  and  C3_4 
REMARK    3  A    between atoms: N1_3  and  C5_6 
REMARK    4  A    between atoms: C5_6  and  N2_7 
REMARK       I    between atoms: N2_7  and  C6_8 
REMARK    5  A    between atoms: C6_8  and  C7_10 
REMARK    6  A    between atoms: C7_10  and  C8_11 
REMARK    7  A    between atoms: C8_11  and  C10_13 
ROOT
HETATM    1  C8  UNL     1      24.786   2.438  52.223  1.00  0.00    -0.064 C 
HETATM    2  C9  UNL     1      24.960   2.671  50.772  1.00  0.00     0.044 C 
ENDROOT
BRANCH   1   3
HETATM    3  C7  UNL     1      23.977   3.484  52.850  1.00  0.00     0.137 C 
BRANCH   3   4
HETATM    4  C6  UNL     1      22.546   3.442  52.374  1.00  0.00     0.222 C 
HETATM    5  N2  UNL     1      21.705   2.296  52.353  1.00  0.00    -0.336 N 
HETATM    6  H13 UNL     1      22.264   1.500  52.725  1.00  0.00     0.164 HD
HETATM    7  O1  UNL     1      22.245   4.625  51.997  1.00  0.00    -0.273 OA
BRANCH   5   8
HETATM    8  C5  UNL     1      20.440   2.726  51.823  1.00  0.00     0.397 C 
BRANCH   8   9
HETATM    9  N1  UNL     1      19.977   2.034  50.672  1.00  0.00     0.104 NA
BRANCH   9  10
HETATM   10  C2  UNL     1      20.682   2.255  49.456  1.00  0.00     0.270 C 
HETATM   11  C1  UNL     1      21.396   1.088  48.870  1.00  0.00     0.037 C 
ENDBRANCH   9  10
BRANCH   9  12
HETATM   12  C3  UNL     1      20.099   0.597  50.979  1.00  0.00     0.270 C 
HETATM   13  C4  UNL     1      18.867   0.092  51.672  1.00  0.00     0.037 C 
ENDBRANCH   9  12
ENDBRANCH   8   9
ENDBRANCH   5   8
ENDBRANCH   3   4
ENDBRANCH   1   3
BRANCH   1  14
HETATM   14  C10 UNL     1      25.233   1.456  52.987  1.00  0.00    -0.025 A 
HETATM   15  C11 UNL     1      24.466   0.323  53.450  1.00  0.00     0.010 A 
HETATM   16  C12 UNL     1      25.346  -0.335  54.177  1.00  0.00     0.004 A 
HETATM   17  C13 UNL     1      26.676   0.246  54.290  1.00  0.00     0.138 A 
HETATM   18  N3  UNL     1      27.825  -0.521  54.246  1.00  0.00    -0.387 N 
HETATM   19  C17 UNL     1      26.613   1.477  53.422  1.00  0.00    -0.021 A 
HETATM   20  C14 UNL     1      29.003   0.301  54.433  1.00  0.00     0.084 C 
HETATM   21  H22 UNL     1      28.037  -1.531  54.113  1.00  0.00     0.159 HD
HETATM   22  C15 UNL     1      28.991   1.610  54.107  1.00  0.00     0.017 C 
HETATM   23  C16 UNL     1      27.718   2.145  53.574  1.00  0.00     0.012 C 
ENDBRANCH   1  14
TORSDOF 7
ENDMDL
MODEL 9
REMARK VINA RESULT:      -6.3      2.798      5.499
REMARK  7 active torsions:
REMARK  status: ('A' for Active; 'I' for Inactive)
REMARK    1  A    between atoms: C2_2  and  N1_3 
REMARK    2  A    between atoms: N1_3  and  C3_4 
REMARK    3  A    between atoms: N1_3  and  C5_6 
REMARK    4  A    between atoms: C5_6  and  N2_7 
REMARK       I    between atoms: N2_7  and  C6_8 
REMARK    5  A    between atoms: C6_8  and  C7_10 
REMARK    6  A    between atoms: C7_10  and  C8_11 
REMARK    7  A    between atoms: C8_11  and  C10_13 
ROOT
HETATM    1  C8  UNL     1      24.594   2.264  52.566  1.00  0.00    -0.064 C 
HETATM    2  C9  UNL     1      23.971   3.509  53.069  1.00  0.00     0.044 C 
ENDROOT
BRANCH   1   3
HETATM    3  C7  UNL     1      24.554   2.185  51.106  1.00  0.00     0.137 C 
BRANCH   3   4
HETATM    4  C6  UNL     1      23.154   1.939  50.601  1.00  0.00     0.222 C 
HETATM    5  N2  UNL     1      22.285   0.894  51.017  1.00  0.00    -0.336 N 
HETATM    6  H13 UNL     1      22.799   0.336  51.731  1.00  0.00     0.164 HD
HETATM    7  O1  UNL     1      22.908   2.845  49.733  1.00  0.00    -0.273 OA
BRANCH   5   8
HETATM    8  C5  UNL     1      21.066   1.051  50.272  1.00  0.00     0.397 C 
BRANCH   8   9
HETATM    9  N1  UNL     1      19.887   1.252  51.038  1.00  0.00     0.104 NA
BRANCH   9  10
HETATM   10  C2  UNL     1      19.983   1.045  52.443  1.00  0.00     0.270 C 
HETATM   11  C1  UNL     1      19.469  -0.248  52.970  1.00  0.00     0.037 C 
ENDBRANCH   9  10
BRANCH   9  12
HETATM   12  C3  UNL     1      19.506   2.663  50.841  1.00  0.00     0.270 C 
HETATM   13  C4  UNL     1      20.046   3.522  51.947  1.00  0.00     0.037 C 
ENDBRANCH   9  12
ENDBRANCH   8   9
ENDBRANCH   5   8
ENDBRANCH   3   4
ENDBRANCH   1   3
BRANCH   1  14
HETATM   14  C10 UNL     1      25.162   1.270  53.228  1.00  0.00    -0.025 A 
HETATM   15  C11 UNL     1      24.508   0.060  53.668  1.00  0.00     0.010 A 
HETATM   16  C12 UNL     1      25.482  -0.579  54.284  1.00  0.00     0.004 A 
HETATM   17  C13 UNL     1      26.776   0.085  54.340  1.00  0.00     0.138 A 
HETATM   18  N3  UNL     1      27.965  -0.595  54.162  1.00  0.00    -0.387 N 
HETATM   19  C17 UNL     1      26.567   1.361  53.564  1.00  0.00    -0.021 A 
HETATM   20  C14 UNL     1      29.098   0.293  54.318  1.00  0.00     0.084 C 
HETATM   21  H22 UNL     1      28.231  -1.578  53.946  1.00  0.00     0.159 HD
HETATM   22  C15 UNL     1      28.976   1.616  54.082  1.00  0.00     0.017 C 
HETATM   23  C16 UNL     1      27.634   2.093  53.680  1.00  0.00     0.012 C 
ENDBRANCH   1  14
TORSDOF 7
ENDMDL
