MODEL 1
REMARK VINA RESULT:      -9.0      0.000      0.000
REMARK  5 active torsions:
REMARK  status: ('A' for Active; 'I' for Inactive)
REMARK    1  A    between atoms: C6_7  and  O1_8 
REMARK    2  A    between atoms: C14_20  and  O2_21 
REMARK    3  A    between atoms: O2_21  and  C15_22 
REMARK    4  A    between atoms: C15_22  and  C16_23 
REMARK    5  A    between atoms: C16_23  and  N5_24 
ROOT
HETATM    1  C1  UNL     1      25.317   8.797  50.239  1.00  0.00     0.047 C 
HETATM    2  C2  UNL     1      25.024   7.348  49.937  1.00  0.00     0.244 C 
HETATM    3  C3  UNL     1      24.527   6.658  51.158  1.00  0.00     0.006 C 
HETATM    4  C4  UNL     1      23.631   5.738  51.441  1.00  0.00     0.001 C 
HETATM    5  C5  UNL     1      22.807   4.806  52.208  1.00  0.00     0.309 C 
HETATM    6  N1  UNL     1      23.004   3.426  51.806  1.00  0.00     0.174 N 
HETATM    7  C6  UNL     1      22.313   3.025  50.640  1.00  0.00     0.388 C 
HETATM    8  C7  UNL     1      23.174   2.559  49.518  1.00  0.00     0.055 C 
HETATM    9  C8  UNL     1      24.362   3.116  49.350  1.00  0.00     0.115 C 
HETATM   10  N2  UNL     1      24.948   3.698  50.535  1.00  0.00    -0.250 N 
HETATM   11  N3  UNL     1      25.909   4.685  50.469  1.00  0.00    -0.298 N 
HETATM   12  C9  UNL     1      26.169   5.319  49.249  1.00  0.00     0.342 C 
HETATM   13  C10 UNL     1      27.529   4.852  48.761  1.00  0.00     0.104 C 
HETATM   14  C11 UNL     1      28.291   5.975  48.164  1.00  0.00    -0.010 C 
HETATM   15 BR1  UNL     1      30.138   5.465  47.883  1.00  0.00    -0.056 Br
HETATM   16  C12 UNL     1      27.947   7.205  47.802  1.00  0.00     0.018 C 
HETATM   17  C13 UNL     1      26.500   7.361  48.105  1.00  0.00     0.304 C 
HETATM   18  N4  UNL     1      26.234   6.757  49.404  1.00  0.00     0.124 N 
HETATM   19  C14 UNL     1      24.437   3.147  51.804  1.00  0.00     0.492 C 
HETATM   20  H13 UNL     1      26.726   4.401  51.030  1.00  0.00     0.183 HD
ENDROOT
BRANCH  19  21
HETATM   21  O2  UNL     1      24.572   1.790  51.740  1.00  0.00    -0.339 OA
BRANCH  21  22
HETATM   22  C15 UNL     1      25.800   1.308  52.097  1.00  0.00     0.202 C 
BRANCH  22  23
HETATM   23  C16 UNL     1      25.777   0.879  53.541  1.00  0.00     0.298 C 
BRANCH  23  24
HETATM   24  N5  UNL     1      26.890   0.032  53.814  1.00  0.00     0.090 N 
HETATM   25  C17 UNL     1      27.917   0.636  54.588  1.00  0.00     0.272 C 
HETATM   26  C18 UNL     1      29.225   0.559  53.835  1.00  0.00     0.030 C 
HETATM   27  C19 UNL     1      29.554  -0.916  53.638  1.00  0.00     0.003 C 
HETATM   28  C20 UNL     1      28.410  -1.705  53.089  1.00  0.00     0.030 C 
HETATM   29  C21 UNL     1      27.322  -0.723  52.691  1.00  0.00     0.272 C 
ENDBRANCH  23  24
ENDBRANCH  22  23
ENDBRANCH  21  22
ENDBRANCH  19  21
BRANCH   7  30
HETATM   30  O1  UNL     1      21.511   4.025  50.084  1.00  0.00    -0.365 OA
HETATM   31  H10 UNL     1      20.608   3.685  49.848  1.00  0.00     0.212 HD
ENDBRANCH   7  30
TORSDOF 5
ENDMDL
MODEL 2
REMARK VINA RESULT:      -8.4      2.010      2.701
REMARK  5 active torsions:
REMARK  status: ('A' for Active; 'I' for Inactive)
REMARK    1  A    between atoms: C6_7  and  O1_8 
REMARK    2  A    between atoms: C14_20  and  O2_21 
REMARK    3  A    between atoms: O2_21  and  C15_22 
REMARK    4  A    between atoms: C15_22  and  C16_23 
REMARK    5  A    between atoms: C16_23  and  N5_24 
ROOT
HETATM    1  C1  UNL     1      21.904   7.215  50.847  1.00  0.00     0.047 C 
HETATM    2  C2  UNL     1      21.980   5.742  50.529  1.00  0.00     0.244 C 
HETATM    3  C3  UNL     1      21.601   4.936  51.721  1.00  0.00     0.006 C 
HETATM    4  C4  UNL     1      20.937   3.826  51.956  1.00  0.00     0.001 C 
HETATM    5  C5  UNL     1      20.320   2.714  52.676  1.00  0.00     0.309 C 
HETATM    6  N1  UNL     1      20.861   1.427  52.284  1.00  0.00     0.174 N 
HETATM    7  C6  UNL     1      20.347   0.889  51.083  1.00  0.00     0.388 C 
HETATM    8  C7  UNL     1      21.350   0.657  50.008  1.00  0.00     0.055 C 
HETATM    9  C8  UNL     1      22.378   1.482  49.903  1.00  0.00     0.115 C 
HETATM   10  N2  UNL     1      22.747   2.171  51.119  1.00  0.00    -0.250 N 
HETATM   11  N3  UNL     1      23.446   3.360  51.104  1.00  0.00    -0.298 N 
HETATM   12  C9  UNL     1      23.610   4.054  49.900  1.00  0.00     0.342 C 
HETATM   13  C10 UNL     1      25.066   3.931  49.485  1.00  0.00     0.104 C 
HETATM   14  C11 UNL     1      25.567   5.210  48.930  1.00  0.00    -0.010 C 
HETATM   15 BR1  UNL     1      27.494   5.159  48.747  1.00  0.00    -0.056 Br
HETATM   16  C12 UNL     1      24.959   6.328  48.552  1.00  0.00     0.018 C 
HETATM   17  C13 UNL     1      23.503   6.131  48.777  1.00  0.00     0.304 C 
HETATM   18  N4  UNL     1      23.323   5.463  50.061  1.00  0.00     0.124 N 
HETATM   19  C14 UNL     1      22.318   1.497  52.358  1.00  0.00     0.492 C 
HETATM   20  H13 UNL     1      24.278   3.271  51.708  1.00  0.00     0.183 HD
ENDROOT
BRANCH  19  21
HETATM   21  O2  UNL     1      22.775   0.212  52.299  1.00  0.00    -0.339 OA
BRANCH  21  22
HETATM   22  C15 UNL     1      23.535  -0.186  53.364  1.00  0.00     0.202 C 
BRANCH  22  23
HETATM   23  C16 UNL     1      24.767   0.675  53.459  1.00  0.00     0.298 C 
BRANCH  23  24
HETATM   24  N5  UNL     1      25.914  -0.140  53.685  1.00  0.00     0.090 N 
HETATM   25  C17 UNL     1      26.825   0.373  54.647  1.00  0.00     0.272 C 
HETATM   26  C18 UNL     1      28.193   0.512  54.020  1.00  0.00     0.030 C 
HETATM   27  C19 UNL     1      28.647  -0.881  53.600  1.00  0.00     0.003 C 
HETATM   28  C20 UNL     1      27.616  -1.624  52.815  1.00  0.00     0.030 C 
HETATM   29  C21 UNL     1      26.494  -0.652  52.493  1.00  0.00     0.272 C 
ENDBRANCH  23  24
ENDBRANCH  22  23
ENDBRANCH  21  22
ENDBRANCH  19  21
BRANCH   7  30
HETATM   30  O1  UNL     1      19.359   1.676  50.486  1.00  0.00    -0.365 OA
HETATM   31  H10 UNL     1      18.448   1.318  50.656  1.00  0.00     0.212 HD
ENDBRANCH   7  30
TORSDOF 5
ENDMDL
MODEL 3
REMARK VINA RESULT:      -8.2      2.865      4.619
REMARK  5 active torsions:
REMARK  status: ('A' for Active; 'I' for Inactive)
REMARK    1  A    between atoms: C6_7  and  O1_8 
REMARK    2  A    between atoms: C14_20  and  O2_21 
REMARK    3  A    between atoms: O2_21  and  C15_22 
REMARK    4  A    between atoms: C15_22  and  C16_23 
REMARK    5  A    between atoms: C16_23  and  N5_24 
ROOT
HETATM    1  C1  UNL     1      28.325   5.185  48.427  1.00  0.00     0.047 C 
HETATM    2  C2  UNL     1      27.045   5.093  49.221  1.00  0.00     0.244 C 
HETATM    3  C3  UNL     1      26.710   3.669  49.496  1.00  0.00     0.006 C 
HETATM    4  C4  UNL     1      26.198   2.980  50.491  1.00  0.00     0.001 C 
HETATM    5  C5  UNL     1      25.702   1.851  51.276  1.00  0.00     0.309 C 
HETATM    6  N1  UNL     1      24.305   1.993  51.638  1.00  0.00     0.174 N 
HETATM    7  C6  UNL     1      24.043   2.833  52.744  1.00  0.00     0.388 C 
HETATM    8  C7  UNL     1      23.185   4.015  52.457  1.00  0.00     0.055 C 
HETATM    9  C8  UNL     1      23.271   4.595  51.271  1.00  0.00     0.115 C 
HETATM   10  N2  UNL     1      23.740   3.748  50.199  1.00  0.00    -0.250 N 
HETATM   11  N3  UNL     1      24.317   4.263  49.057  1.00  0.00    -0.298 N 
HETATM   12  C9  UNL     1      24.681   5.613  49.012  1.00  0.00     0.342 C 
HETATM   13  C10 UNL     1      23.719   6.326  48.078  1.00  0.00     0.104 C 
HETATM   14  C11 UNL     1      24.432   7.319  47.240  1.00  0.00    -0.010 C 
HETATM   15 BR1  UNL     1      23.283   7.951  45.815  1.00  0.00    -0.056 Br
HETATM   16  C12 UNL     1      25.657   7.828  47.293  1.00  0.00     0.018 C 
HETATM   17  C13 UNL     1      26.339   7.204  48.457  1.00  0.00     0.304 C 
HETATM   18  N4  UNL     1      26.014   5.783  48.473  1.00  0.00     0.124 N 
HETATM   19  C14 UNL     1      23.546   2.305  50.430  1.00  0.00     0.492 C 
HETATM   20  H13 UNL     1      23.830   3.884  48.231  1.00  0.00     0.183 HD
ENDROOT
BRANCH  19  21
HETATM   21  O2  UNL     1      22.228   2.117  50.735  1.00  0.00    -0.339 OA
BRANCH  21  22
HETATM   22  C15 UNL     1      21.664   0.985  50.218  1.00  0.00     0.202 C 
BRANCH  22  23
HETATM   23  C16 UNL     1      20.639   0.443  51.179  1.00  0.00     0.298 C 
BRANCH  23  24
HETATM   24  N5  UNL     1      21.202   0.339  52.484  1.00  0.00     0.090 N 
HETATM   25  C17 UNL     1      22.244  -0.619  52.604  1.00  0.00     0.272 C 
HETATM   26  C18 UNL     1      21.890  -1.614  53.686  1.00  0.00     0.030 C 
HETATM   27  C19 UNL     1      21.770  -0.844  54.995  1.00  0.00     0.003 C 
HETATM   28  C20 UNL     1      20.908   0.371  54.886  1.00  0.00     0.030 C 
HETATM   29  C21 UNL     1      20.234   0.337  53.525  1.00  0.00     0.272 C 
ENDBRANCH  23  24
ENDBRANCH  22  23
ENDBRANCH  21  22
ENDBRANCH  19  21
BRANCH   7  30
HETATM   30  O1  UNL     1      25.191   3.360  53.340  1.00  0.00    -0.365 OA
HETATM   31  H10 UNL     1      25.225   3.164  54.313  1.00  0.00     0.212 HD
ENDBRANCH   7  30
TORSDOF 5
ENDMDL
MODEL 4
REMARK VINA RESULT:      -7.8      3.841      7.436
REMARK  5 active torsions:
REMARK  status: ('A' for Active; 'I' for Inactive)
REMARK    1  A    between atoms: C6_7  and  O1_8 
REMARK    2  A    between atoms: C14_20  and  O2_21 
REMARK    3  A    between atoms: O2_21  and  C15_22 
REMARK    4  A    between atoms: C15_22  and  C16_23 
REMARK    5  A    between atoms: C16_23  and  N5_24 
ROOT
HETATM    1  C1  UNL     1      18.931  -1.891  53.494  1.00  0.00     0.047 C 
HETATM    2  C2  UNL     1      19.404  -0.502  53.143  1.00  0.00     0.244 C 
HETATM    3  C3  UNL     1      18.962  -0.139  51.769  1.00  0.00     0.006 C 
HETATM    4  C4  UNL     1      18.530   0.940  51.155  1.00  0.00     0.001 C 
HETATM    5  C5  UNL     1      18.035   1.822  50.100  1.00  0.00     0.309 C 
HETATM    6  N1  UNL     1      18.924   2.940  49.844  1.00  0.00     0.174 N 
HETATM    7  C6  UNL     1      18.820   4.021  50.749  1.00  0.00     0.388 C 
HETATM    8  C7  UNL     1      20.061   4.338  51.507  1.00  0.00     0.055 C 
HETATM    9  C8  UNL     1      20.874   3.351  51.844  1.00  0.00     0.115 C 
HETATM   10  N2  UNL     1      20.803   2.175  51.007  1.00  0.00    -0.250 N 
HETATM   11  N3  UNL     1      21.204   0.933  51.453  1.00  0.00    -0.298 N 
HETATM   12  C9  UNL     1      21.468   0.736  52.813  1.00  0.00     0.342 C 
HETATM   13  C10 UNL     1      22.969   0.572  52.978  1.00  0.00     0.104 C 
HETATM   14  C11 UNL     1      23.280  -0.485  53.969  1.00  0.00    -0.010 C 
HETATM   15 BR1  UNL     1      25.161  -0.939  53.905  1.00  0.00    -0.056 Br
HETATM   16  C12 UNL     1      22.535  -1.140  54.850  1.00  0.00     0.018 C 
HETATM   17  C13 UNL     1      21.147  -0.624  54.719  1.00  0.00     0.304 C 
HETATM   18  N4  UNL     1      20.844  -0.475  53.301  1.00  0.00     0.124 N 
HETATM   19  C14 UNL     1      20.275   2.420  49.653  1.00  0.00     0.492 C 
HETATM   20  H13 UNL     1      21.881   0.536  50.784  1.00  0.00     0.183 HD
ENDROOT
BRANCH  19  21
HETATM   21  O2  UNL     1      21.011   3.433  49.108  1.00  0.00    -0.339 OA
BRANCH  21  22
HETATM   22  C15 UNL     1      22.258   3.080  48.674  1.00  0.00     0.202 C 
BRANCH  22  23
HETATM   23  C16 UNL     1      23.171   4.277  48.725  1.00  0.00     0.298 C 
BRANCH  23  24
HETATM   24  N5  UNL     1      24.185   4.074  49.705  1.00  0.00     0.090 N 
HETATM   25  C17 UNL     1      25.420   4.717  49.421  1.00  0.00     0.272 C 
HETATM   26  C18 UNL     1      26.528   3.690  49.402  1.00  0.00     0.030 C 
HETATM   27  C19 UNL     1      26.601   3.068  50.792  1.00  0.00     0.003 C 
HETATM   28  C20 UNL     1      25.271   2.619  51.305  1.00  0.00     0.030 C 
HETATM   29  C21 UNL     1      24.275   2.732  50.163  1.00  0.00     0.272 C 
ENDBRANCH  23  24
ENDBRANCH  22  23
ENDBRANCH  21  22
ENDBRANCH  19  21
BRANCH   7  30
HETATM   30  O1  UNL     1      17.836   3.850  51.726  1.00  0.00    -0.365 OA
HETATM   31  H10 UNL     1      17.737   2.898  51.987  1.00  0.00     0.212 HD
ENDBRANCH   7  30
TORSDOF 5
ENDMDL
MODEL 5
REMARK VINA RESULT:      -7.7      3.698      5.772
REMARK  5 active torsions:
REMARK  status: ('A' for Active; 'I' for Inactive)
REMARK    1  A    between atoms: C6_7  and  O1_8 
REMARK    2  A    between atoms: C14_20  and  O2_21 
REMARK    3  A    between atoms: O2_21  and  C15_22 
REMARK    4  A    between atoms: C15_22  and  C16_23 
REMARK    5  A    between atoms: C16_23  and  N5_24 
ROOT
HETATM    1  C1  UNL     1      20.557   3.304  46.831  1.00  0.00     0.047 C 
HETATM    2  C2  UNL     1      21.013   3.323  48.269  1.00  0.00     0.244 C 
HETATM    3  C3  UNL     1      22.438   2.903  48.364  1.00  0.00     0.006 C 
HETATM    4  C4  UNL     1      23.490   3.239  49.076  1.00  0.00     0.001 C 
HETATM    5  C5  UNL     1      24.859   3.261  49.588  1.00  0.00     0.309 C 
HETATM    6  N1  UNL     1      24.930   2.953  51.003  1.00  0.00     0.174 N 
HETATM    7  C6  UNL     1      24.622   4.021  51.877  1.00  0.00     0.388 C 
HETATM    8  C7  UNL     1      23.459   3.792  52.778  1.00  0.00     0.055 C 
HETATM    9  C8  UNL     1      22.445   3.064  52.341  1.00  0.00     0.115 C 
HETATM   10  N2  UNL     1      22.765   2.118  51.296  1.00  0.00    -0.250 N 
HETATM   11  N3  UNL     1      21.809   1.632  50.429  1.00  0.00    -0.298 N 
HETATM   12  C9  UNL     1      20.544   2.229  50.387  1.00  0.00     0.342 C 
HETATM   13  C10 UNL     1      19.551   1.263  51.009  1.00  0.00     0.104 C 
HETATM   14  C11 UNL     1      18.277   1.252  50.252  1.00  0.00    -0.010 C 
HETATM   15 BR1  UNL     1      17.165  -0.228  50.819  1.00  0.00    -0.056 Br
HETATM   16  C12 UNL     1      17.786   2.041  49.304  1.00  0.00     0.018 C 
HETATM   17  C13 UNL     1      18.803   3.095  49.043  1.00  0.00     0.304 C 
HETATM   18  N4  UNL     1      20.119   2.469  49.024  1.00  0.00     0.124 N 
HETATM   19  C14 UNL     1      24.184   1.721  51.245  1.00  0.00     0.492 C 
HETATM   20  H13 UNL     1      21.839   0.602  50.435  1.00  0.00     0.183 HD
ENDROOT
BRANCH  19  21
HETATM   21  O2  UNL     1      24.530   1.292  52.494  1.00  0.00    -0.339 OA
BRANCH  21  22
HETATM   22  C15 UNL     1      25.633   0.486  52.550  1.00  0.00     0.202 C 
BRANCH  22  23
HETATM   23  C16 UNL     1      25.902   0.091  53.978  1.00  0.00     0.298 C 
BRANCH  23  24
HETATM   24  N5  UNL     1      27.204  -0.478  54.089  1.00  0.00     0.090 N 
HETATM   25  C17 UNL     1      28.150   0.336  54.768  1.00  0.00     0.272 C 
HETATM   26  C18 UNL     1      29.342   0.578  53.871  1.00  0.00     0.030 C 
HETATM   27  C19 UNL     1      29.974  -0.777  53.574  1.00  0.00     0.003 C 
HETATM   28  C20 UNL     1      28.985  -1.801  53.124  1.00  0.00     0.030 C 
HETATM   29  C21 UNL     1      27.661  -1.093  52.892  1.00  0.00     0.272 C 
ENDBRANCH  23  24
ENDBRANCH  22  23
ENDBRANCH  21  22
ENDBRANCH  19  21
BRANCH   7  30
HETATM   30  O1  UNL     1      24.339   5.223  51.225  1.00  0.00    -0.365 OA
HETATM   31  H10 UNL     1      24.226   5.095  50.246  1.00  0.00     0.212 HD
ENDBRANCH   7  30
TORSDOF 5
ENDMDL
MODEL 6
REMARK VINA RESULT:      -7.6      2.876      5.739
REMARK  5 active torsions:
REMARK  status: ('A' for Active; 'I' for Inactive)
REMARK    1  A    between atoms: C6_7  and  O1_8 
REMARK    2  A    between atoms: C14_20  and  O2_21 
REMARK    3  A    between atoms: O2_21  and  C15_22 
REMARK    4  A    between atoms: C15_22  and  C16_23 
REMARK    5  A    between atoms: C16_23  and  N5_24 
ROOT
HETATM    1  C1  UNL     1      26.624   6.286  48.471  1.00  0.00     0.047 C 
HETATM    2  C2  UNL     1      26.036   5.647  49.705  1.00  0.00     0.244 C 
HETATM    3  C3  UNL     1      26.061   4.165  49.580  1.00  0.00     0.006 C 
HETATM    4  C4  UNL     1      26.275   3.140  50.375  1.00  0.00     0.001 C 
HETATM    5  C5  UNL     1      26.427   1.762  50.838  1.00  0.00     0.309 C 
HETATM    6  N1  UNL     1      25.474   1.413  51.875  1.00  0.00     0.174 N 
HETATM    7  C6  UNL     1      25.802   1.851  53.178  1.00  0.00     0.388 C 
HETATM    8  C7  UNL     1      24.820   2.777  53.805  1.00  0.00     0.055 C 
HETATM    9  C8  UNL     1      24.160   3.626  53.035  1.00  0.00     0.115 C 
HETATM   10  N2  UNL     1      24.021   3.232  51.652  1.00  0.00    -0.250 N 
HETATM   11  N3  UNL     1      23.795   4.149  50.647  1.00  0.00    -0.298 N 
HETATM   12  C9  UNL     1      23.932   5.516  50.912  1.00  0.00     0.342 C 
HETATM   13  C10 UNL     1      22.544   6.133  50.914  1.00  0.00     0.104 C 
HETATM   14  C11 UNL     1      22.553   7.459  50.251  1.00  0.00    -0.010 C 
HETATM   15 BR1  UNL     1      20.743   8.067  49.930  1.00  0.00    -0.056 Br
HETATM   16  C12 UNL     1      23.534   8.263  49.860  1.00  0.00     0.018 C 
HETATM   17  C13 UNL     1      24.815   7.594  50.212  1.00  0.00     0.304 C 
HETATM   18  N4  UNL     1      24.700   6.179  49.880  1.00  0.00     0.124 N 
HETATM   19  C14 UNL     1      24.138   1.781  51.415  1.00  0.00     0.492 C 
HETATM   20  H13 UNL     1      22.967   3.860  50.105  1.00  0.00     0.183 HD
ENDROOT
BRANCH  19  21
HETATM   21  O2  UNL     1      23.252   1.162  52.250  1.00  0.00    -0.339 OA
BRANCH  21  22
HETATM   22  C15 UNL     1      21.933   1.372  51.961  1.00  0.00     0.202 C 
BRANCH  22  23
HETATM   23  C16 UNL     1      21.517   0.488  50.815  1.00  0.00     0.298 C 
BRANCH  23  24
HETATM   24  N5  UNL     1      20.995   1.282  49.753  1.00  0.00     0.090 N 
HETATM   25  C17 UNL     1      21.670   1.129  48.513  1.00  0.00     0.272 C 
HETATM   26  C18 UNL     1      22.164   2.477  48.039  1.00  0.00     0.030 C 
HETATM   27  C19 UNL     1      20.943   3.366  47.834  1.00  0.00     0.003 C 
HETATM   28  C20 UNL     1      20.008   3.359  48.999  1.00  0.00     0.030 C 
HETATM   29  C21 UNL     1      20.693   2.618  50.134  1.00  0.00     0.272 C 
ENDBRANCH  23  24
ENDBRANCH  22  23
ENDBRANCH  21  22
ENDBRANCH  19  21
BRANCH   7  30
HETATM   30  O1  UNL     1      27.026   2.519  53.260  1.00  0.00    -0.365 OA
HETATM   31  H10 UNL     1      27.638   2.089  53.913  1.00  0.00     0.212 HD
ENDBRANCH   7  30
TORSDOF 5
ENDMDL
MODEL 7
REMARK VINA RESULT:      -7.5      2.755      6.013
REMARK  5 active torsions:
REMARK  status: ('A' for Active; 'I' for Inactive)
REMARK    1  A    between atoms: C6_7  and  O1_8 
REMARK    2  A    between atoms: C14_20  and  O2_21 
REMARK    3  A    between atoms: O2_21  and  C15_22 
REMARK    4  A    between atoms: C15_22  and  C16_23 
REMARK    5  A    between atoms: C16_23  and  N5_24 
ROOT
HETATM    1  C1  UNL     1      28.024   5.097  48.467  1.00  0.00     0.047 C 
HETATM    2  C2  UNL     1      26.843   4.881  49.382  1.00  0.00     0.244 C 
HETATM    3  C3  UNL     1      26.679   3.433  49.680  1.00  0.00     0.006 C 
HETATM    4  C4  UNL     1      26.337   2.700  50.717  1.00  0.00     0.001 C 
HETATM    5  C5  UNL     1      26.035   1.531  51.539  1.00  0.00     0.309 C 
HETATM    6  N1  UNL     1      24.673   1.536  52.037  1.00  0.00     0.174 N 
HETATM    7  C6  UNL     1      24.439   2.350  53.169  1.00  0.00     0.388 C 
HETATM    8  C7  UNL     1      23.445   3.441  52.975  1.00  0.00     0.055 C 
HETATM    9  C8  UNL     1      23.356   4.022  51.789  1.00  0.00     0.115 C 
HETATM   10  N2  UNL     1      23.799   3.221  50.671  1.00  0.00    -0.250 N 
HETATM   11  N3  UNL     1      24.208   3.786  49.481  1.00  0.00    -0.298 N 
HETATM   12  C9  UNL     1      24.431   5.165  49.409  1.00  0.00     0.342 C 
HETATM   13  C10 UNL     1      23.316   5.776  48.578  1.00  0.00     0.104 C 
HETATM   14  C11 UNL     1      23.842   6.831  47.680  1.00  0.00    -0.010 C 
HETATM   15 BR1  UNL     1      22.502   7.342  46.378  1.00  0.00    -0.056 Br
HETATM   16  C12 UNL     1      25.010   7.459  47.616  1.00  0.00     0.018 C 
HETATM   17  C13 UNL     1      25.862   6.910  48.703  1.00  0.00     0.304 C 
HETATM   18  N4  UNL     1      25.681   5.464  48.743  1.00  0.00     0.124 N 
HETATM   19  C14 UNL     1      23.772   1.767  50.911  1.00  0.00     0.492 C 
HETATM   20  H13 UNL     1      23.682   3.357  48.705  1.00  0.00     0.183 HD
ENDROOT
BRANCH  19  21
HETATM   21  O2  UNL     1      22.515   1.451  51.344  1.00  0.00    -0.339 OA
BRANCH  21  22
HETATM   22  C15 UNL     1      21.631   1.100  50.363  1.00  0.00     0.202 C 
BRANCH  22  23
HETATM   23  C16 UNL     1      20.249   1.572  50.732  1.00  0.00     0.298 C 
BRANCH  23  24
HETATM   24  N5  UNL     1      20.098   2.948  50.394  1.00  0.00     0.090 N 
HETATM   25  C17 UNL     1      19.292   3.693  51.295  1.00  0.00     0.272 C 
HETATM   26  C18 UNL     1      18.155   4.338  50.536  1.00  0.00     0.030 C 
HETATM   27  C19 UNL     1      18.767   5.289  49.515  1.00  0.00     0.003 C 
HETATM   28  C20 UNL     1      19.851   4.660  48.702  1.00  0.00     0.030 C 
HETATM   29  C21 UNL     1      19.856   3.173  49.012  1.00  0.00     0.272 C 
ENDBRANCH  23  24
ENDBRANCH  22  23
ENDBRANCH  21  22
ENDBRANCH  19  21
BRANCH   7  30
HETATM   30  O1  UNL     1      25.582   2.990  53.653  1.00  0.00    -0.365 OA
HETATM   31  H10 UNL     1      25.721   3.874  53.223  1.00  0.00     0.212 HD
ENDBRANCH   7  30
TORSDOF 5
ENDMDL
MODEL 8
REMARK VINA RESULT:      -7.4      3.200      6.900
REMARK  5 active torsions:
REMARK  status: ('A' for Active; 'I' for Inactive)
REMARK    1  A    between atoms: C6_7  and  O1_8 
REMARK    2  A    between atoms: C14_20  and  O2_21 
REMARK    3  A    between atoms: O2_21  and  C15_22 
REMARK    4  A    between atoms: C15_22  and  C16_23 
REMARK    5  A    between atoms: C16_23  and  N5_24 
ROOT
HETATM    1  C1  UNL     1      21.174   0.563  49.697  1.00  0.00     0.047 C 
HETATM    2  C2  UNL     1      21.855   1.810  50.206  1.00  0.00     0.244 C 
HETATM    3  C3  UNL     1      22.443   2.576  49.074  1.00  0.00     0.006 C 
HETATM    4  C4  UNL     1      22.590   3.840  48.746  1.00  0.00     0.001 C 
HETATM    5  C5  UNL     1      22.967   5.035  47.993  1.00  0.00     0.309 C 
HETATM    6  N1  UNL     1      23.879   5.892  48.726  1.00  0.00     0.174 N 
HETATM    7  C6  UNL     1      23.284   6.732  49.694  1.00  0.00     0.388 C 
HETATM    8  C7  UNL     1      23.746   6.518  51.093  1.00  0.00     0.055 C 
HETATM    9  C8  UNL     1      24.074   5.296  51.479  1.00  0.00     0.115 C 
HETATM   10  N2  UNL     1      24.486   4.401  50.422  1.00  0.00    -0.250 N 
HETATM   11  N3  UNL     1      24.414   3.030  50.552  1.00  0.00    -0.298 N 
HETATM   12  C9  UNL     1      23.711   2.472  51.626  1.00  0.00     0.342 C 
HETATM   13  C10 UNL     1      24.725   1.868  52.583  1.00  0.00     0.104 C 
HETATM   14  C11 UNL     1      24.241   0.574  53.119  1.00  0.00    -0.010 C 
HETATM   15 BR1  UNL     1      25.671  -0.356  54.036  1.00  0.00    -0.056 Br
HETATM   16  C12 UNL     1      23.059  -0.029  53.086  1.00  0.00     0.018 C 
HETATM   17  C13 UNL     1      22.132   0.866  52.344  1.00  0.00     0.304 C 
HETATM   18  N4  UNL     1      22.839   1.403  51.188  1.00  0.00     0.124 N 
HETATM   19  C14 UNL     1      24.988   5.076  49.211  1.00  0.00     0.492 C 
HETATM   20  H13 UNL     1      25.334   2.620  50.333  1.00  0.00     0.183 HD
ENDROOT
BRANCH  19  21
HETATM   21  O2  UNL     1      25.968   5.941  49.606  1.00  0.00    -0.339 OA
BRANCH  21  22
HETATM   22  C15 UNL     1      26.814   6.356  48.616  1.00  0.00     0.202 C 
BRANCH  22  23
HETATM   23  C16 UNL     1      27.976   5.404  48.508  1.00  0.00     0.298 C 
BRANCH  23  24
HETATM   24  N5  UNL     1      29.046   6.019  47.795  1.00  0.00     0.090 N 
HETATM   25  C17 UNL     1      30.338   5.544  48.142  1.00  0.00     0.272 C 
HETATM   26  C18 UNL     1      31.198   6.704  48.589  1.00  0.00     0.030 C 
HETATM   27  C19 UNL     1      31.321   7.663  47.411  1.00  0.00     0.003 C 
HETATM   28  C20 UNL     1      30.006   7.997  46.785  1.00  0.00     0.030 C 
HETATM   29  C21 UNL     1      28.914   7.429  47.676  1.00  0.00     0.272 C 
ENDBRANCH  23  24
ENDBRANCH  22  23
ENDBRANCH  21  22
ENDBRANCH  19  21
BRANCH   7  30
HETATM   30  O1  UNL     1      21.893   6.627  49.757  1.00  0.00    -0.365 OA
HETATM   31  H10 UNL     1      21.592   6.204  50.603  1.00  0.00     0.212 HD
ENDBRANCH   7  30
TORSDOF 5
ENDMDL
MODEL 9
REMARK VINA RESULT:      -7.3      5.935      8.171
REMARK  5 active torsions:
REMARK  status: ('A' for Active; 'I' for Inactive)
REMARK    1  A    between atoms: C6_7  and  O1_8 
REMARK    2  A    between atoms: C14_20  and  O2_21 
REMARK    3  A    between atoms: O2_21  and  C15_22 
REMARK    4  A    between atoms: C15_22  and  C16_23 
REMARK    5  A    between atoms: C16_23  and  N5_24 
ROOT
HETATM    1  C1  UNL     1      26.015   8.599  44.609  1.00  0.00     0.047 C 
HETATM    2  C2  UNL     1      26.885   8.722  45.836  1.00  0.00     0.244 C 
HETATM    3  C3  UNL     1      28.307   8.451  45.489  1.00  0.00     0.006 C 
HETATM    4  C4  UNL     1      29.484   8.921  45.838  1.00  0.00     0.001 C 
HETATM    5  C5  UNL     1      30.933   9.101  45.902  1.00  0.00     0.309 C 
HETATM    6  N1  UNL     1      31.467   8.860  47.229  1.00  0.00     0.174 N 
HETATM    7  C6  UNL     1      31.328   9.926  48.146  1.00  0.00     0.388 C 
HETATM    8  C7  UNL     1      30.529   9.620  49.364  1.00  0.00     0.055 C 
HETATM    9  C8  UNL     1      29.515   8.776  49.267  1.00  0.00     0.115 C 
HETATM   10  N2  UNL     1      29.600   7.825  48.183  1.00  0.00    -0.250 N 
HETATM   11  N3  UNL     1      28.482   7.210  47.658  1.00  0.00    -0.298 N 
HETATM   12  C9  UNL     1      27.209   7.675  48.004  1.00  0.00     0.342 C 
HETATM   13  C10 UNL     1      26.565   6.640  48.910  1.00  0.00     0.104 C 
HETATM   14  C11 UNL     1      25.129   6.471  48.584  1.00  0.00    -0.010 C 
HETATM   15 BR1  UNL     1      24.411   4.910  49.479  1.00  0.00    -0.056 Br
HETATM   16  C12 UNL     1      24.289   7.167  47.828  1.00  0.00     0.018 C 
HETATM   17  C13 UNL     1      25.056   8.305  47.257  1.00  0.00     0.304 C 
HETATM   18  N4  UNL     1      26.363   7.814  46.837  1.00  0.00     0.124 N 
HETATM   19  C14 UNL     1      30.969   7.570  47.699  1.00  0.00     0.492 C 
HETATM   20  H13 UNL     1      28.624   6.189  47.662  1.00  0.00     0.183 HD
ENDROOT
BRANCH  19  21
HETATM   21  O2  UNL     1      31.726   7.230  48.783  1.00  0.00    -0.339 OA
BRANCH  21  22
HETATM   22  C15 UNL     1      32.308   5.995  48.724  1.00  0.00     0.202 C 
BRANCH  22  23
HETATM   23  C16 UNL     1      31.588   5.140  47.714  1.00  0.00     0.298 C 
BRANCH  23  24
HETATM   24  N5  UNL     1      32.526   4.358  46.981  1.00  0.00     0.090 N 
HETATM   25  C17 UNL     1      32.987   3.198  47.658  1.00  0.00     0.272 C 
HETATM   26  C18 UNL     1      34.495   3.237  47.753  1.00  0.00     0.030 C 
HETATM   27  C19 UNL     1      35.044   3.233  46.331  1.00  0.00     0.003 C 
HETATM   28  C20 UNL     1      34.395   4.248  45.448  1.00  0.00     0.030 C 
HETATM   29  C21 UNL     1      33.522   5.131  46.324  1.00  0.00     0.272 C 
ENDBRANCH  23  24
ENDBRANCH  22  23
ENDBRANCH  21  22
ENDBRANCH  19  21
BRANCH   7  30
HETATM   30  O1  UNL     1      30.730  11.066  47.603  1.00  0.00    -0.365 OA
HETATM   31  H10 UNL     1      29.739  11.019  47.643  1.00  0.00     0.212 HD
ENDBRANCH   7  30
TORSDOF 5
ENDMDL
