MODEL 1
REMARK VINA RESULT:      -7.9      0.000      0.000
REMARK  6 active torsions:
REMARK  status: ('A' for Active; 'I' for Inactive)
REMARK    1  A    between atoms: C3_4  and  N1_5 
REMARK    2  A    between atoms: N1_5  and  C4_6 
REMARK    3  A    between atoms: C10_15  and  C11_16 
REMARK    4  A    between atoms: C11_16  and  O1_17 
REMARK    5  A    between atoms: O1_17  and  C12_18 
REMARK    6  A    between atoms: C12_18  and  C13_19 
ROOT
HETATM    1  F1  UNL     1      22.985   2.195  49.195  1.00  0.00    -0.205 F 
HETATM    2  C1  UNL     1      23.307   2.589  50.466  1.00  0.00     0.127 A 
HETATM    3  C2  UNL     1      24.661   2.435  50.764  1.00  0.00     0.072 A 
HETATM    4  C3  UNL     1      25.123   2.799  52.027  1.00  0.00     0.036 A 
HETATM    5  C8  UNL     1      24.225   3.303  52.946  1.00  0.00     0.030 A 
HETATM    6  C9  UNL     1      22.885   3.460  52.659  1.00  0.00     0.014 A 
HETATM    7  C10 UNL     1      22.413   3.103  51.417  1.00  0.00     0.004 A 
ENDROOT
BRANCH   4   8
HETATM    8  N1  UNL     1      26.468   2.612  52.342  1.00  0.00    -0.341 N 
HETATM    9  H2  UNL     1      27.075   3.412  52.074  1.00  0.00     0.167 HD
BRANCH   8  10
HETATM   10  C4  UNL     1      27.096   1.499  52.964  1.00  0.00     0.132 A 
HETATM   11  C5  UNL     1      26.920   0.175  52.547  1.00  0.00     0.095 A 
HETATM   12  C6  UNL     1      27.558  -0.887  53.142  1.00  0.00     0.131 A 
HETATM   13 CL1  UNL     1      27.270  -2.524  52.533  1.00  0.00    -0.062 Cl
HETATM   14  N2  UNL     1      28.374  -0.648  54.155  1.00  0.00    -0.230 NA
HETATM   15  C7  UNL     1      28.569   0.635  54.591  1.00  0.00     0.236 A 
HETATM   16  N3  UNL     1      27.935   1.655  53.993  1.00  0.00    -0.224 NA
ENDBRANCH   8  10
ENDBRANCH   4   8
BRANCH   7  17
HETATM   17  C11 UNL     1      21.035   3.135  50.806  1.00  0.00     0.209 C 
BRANCH  17  18
HETATM   18  O1  UNL     1      20.175   2.547  51.695  1.00  0.00    -0.382 OA
BRANCH  18  19
HETATM   19  C12 UNL     1      20.053   1.185  51.617  1.00  0.00     0.206 C 
BRANCH  19  20
HETATM   20  C13 UNL     1      20.852   0.485  52.644  1.00  0.00    -0.035 A 
HETATM   21  C14 UNL     1      21.961  -0.216  52.266  1.00  0.00     0.009 A 
HETATM   22  C15 UNL     1      22.790  -0.920  53.122  1.00  0.00     0.001 A 
HETATM   23  C16 UNL     1      22.434  -0.887  54.471  1.00  0.00     0.000 A 
HETATM   24  C17 UNL     1      21.320  -0.190  54.896  1.00  0.00     0.001 A 
HETATM   25  C18 UNL     1      20.528   0.498  53.978  1.00  0.00     0.009 A 
ENDBRANCH  19  20
ENDBRANCH  18  19
ENDBRANCH  17  18
ENDBRANCH   7  17
TORSDOF 6
ENDMDL
MODEL 2
REMARK VINA RESULT:      -7.5      2.747      5.004
REMARK  6 active torsions:
REMARK  status: ('A' for Active; 'I' for Inactive)
REMARK    1  A    between atoms: C3_4  and  N1_5 
REMARK    2  A    between atoms: N1_5  and  C4_6 
REMARK    3  A    between atoms: C10_15  and  C11_16 
REMARK    4  A    between atoms: C11_16  and  O1_17 
REMARK    5  A    between atoms: O1_17  and  C12_18 
REMARK    6  A    between atoms: C12_18  and  C13_19 
ROOT
HETATM    1  F1  UNL     1      23.063   1.945  49.762  1.00  0.00    -0.205 F 
HETATM    2  C1  UNL     1      23.493   2.445  50.963  1.00  0.00     0.127 A 
HETATM    3  C2  UNL     1      24.206   1.515  51.721  1.00  0.00     0.072 A 
HETATM    4  C3  UNL     1      24.701   1.895  52.967  1.00  0.00     0.036 A 
HETATM    5  C8  UNL     1      24.472   3.181  53.412  1.00  0.00     0.030 A 
HETATM    6  C9  UNL     1      23.769   4.105  52.669  1.00  0.00     0.014 A 
HETATM    7  C10 UNL     1      23.272   3.745  51.438  1.00  0.00     0.004 A 
ENDROOT
BRANCH   4   8
HETATM    8  N1  UNL     1      25.382   0.959  53.745  1.00  0.00    -0.341 N 
HETATM    9  H2  UNL     1      24.761   0.389  54.353  1.00  0.00     0.167 HD
BRANCH   8  10
HETATM   10  C4  UNL     1      26.778   0.696  53.810  1.00  0.00     0.132 A 
HETATM   11  C5  UNL     1      27.347  -0.548  53.517  1.00  0.00     0.095 A 
HETATM   12  C6  UNL     1      28.702  -0.777  53.558  1.00  0.00     0.131 A 
HETATM   13 CL1  UNL     1      29.321  -2.388  53.163  1.00  0.00    -0.062 Cl
HETATM   14  N2  UNL     1      29.504   0.222  53.890  1.00  0.00    -0.230 NA
HETATM   15  C7  UNL     1      28.980   1.451  54.185  1.00  0.00     0.236 A 
HETATM   16  N3  UNL     1      27.654   1.650  54.137  1.00  0.00    -0.224 NA
ENDBRANCH   8  10
ENDBRANCH   4   8
BRANCH   7  17
HETATM   17  C11 UNL     1      22.468   4.497  50.407  1.00  0.00     0.209 C 
BRANCH  17  18
HETATM   18  O1  UNL     1      23.168   5.630  50.083  1.00  0.00    -0.382 OA
BRANCH  18  19
HETATM   19  C12 UNL     1      23.636   5.714  48.799  1.00  0.00     0.206 C 
BRANCH  19  20
HETATM   20  C13 UNL     1      25.110   5.639  48.728  1.00  0.00    -0.035 A 
HETATM   21  C14 UNL     1      25.812   6.712  48.260  1.00  0.00     0.009 A 
HETATM   22  C15 UNL     1      27.190   6.771  48.134  1.00  0.00     0.001 A 
HETATM   23  C16 UNL     1      27.881   5.625  48.529  1.00  0.00     0.000 A 
HETATM   24  C17 UNL     1      27.210   4.517  49.008  1.00  0.00     0.001 A 
HETATM   25  C18 UNL     1      25.820   4.526  49.107  1.00  0.00     0.009 A 
ENDBRANCH  19  20
ENDBRANCH  18  19
ENDBRANCH  17  18
ENDBRANCH   7  17
TORSDOF 6
ENDMDL
MODEL 3
REMARK VINA RESULT:      -7.2      3.091      5.259
REMARK  6 active torsions:
REMARK  status: ('A' for Active; 'I' for Inactive)
REMARK    1  A    between atoms: C3_4  and  N1_5 
REMARK    2  A    between atoms: N1_5  and  C4_6 
REMARK    3  A    between atoms: C10_15  and  C11_16 
REMARK    4  A    between atoms: C11_16  and  O1_17 
REMARK    5  A    between atoms: O1_17  and  C12_18 
REMARK    6  A    between atoms: C12_18  and  C13_19 
ROOT
HETATM    1  F1  UNL     1      23.903   4.907  53.256  1.00  0.00    -0.205 F 
HETATM    2  C1  UNL     1      23.617   3.905  52.365  1.00  0.00     0.127 A 
HETATM    3  C2  UNL     1      24.199   2.684  52.707  1.00  0.00     0.072 A 
HETATM    4  C3  UNL     1      23.988   1.579  51.884  1.00  0.00     0.036 A 
HETATM    5  C8  UNL     1      23.208   1.728  50.755  1.00  0.00     0.030 A 
HETATM    6  C9  UNL     1      22.629   2.931  50.411  1.00  0.00     0.014 A 
HETATM    7  C10 UNL     1      22.829   4.031  51.213  1.00  0.00     0.004 A 
ENDROOT
BRANCH   4   8
HETATM    8  N1  UNL     1      24.597   0.366  52.200  1.00  0.00    -0.341 N 
HETATM    9  H2  UNL     1      24.232  -0.440  51.654  1.00  0.00     0.167 HD
BRANCH   8  10
HETATM   10  C4  UNL     1      25.622   0.099  53.149  1.00  0.00     0.132 A 
HETATM   11  C5  UNL     1      26.975  -0.025  52.815  1.00  0.00     0.095 A 
HETATM   12  C6  UNL     1      27.956  -0.255  53.749  1.00  0.00     0.131 A 
HETATM   13 CL1  UNL     1      29.641  -0.390  53.223  1.00  0.00    -0.062 Cl
HETATM   14  N2  UNL     1      27.607  -0.366  55.021  1.00  0.00    -0.230 NA
HETATM   15  C7  UNL     1      26.292  -0.252  55.383  1.00  0.00     0.236 A 
HETATM   16  N3  UNL     1      25.352  -0.027  54.452  1.00  0.00    -0.224 NA
ENDBRANCH   8  10
ENDBRANCH   4   8
BRANCH   7  17
HETATM   17  C11 UNL     1      22.360   5.461  51.113  1.00  0.00     0.209 C 
BRANCH  17  18
HETATM   18  O1  UNL     1      23.386   6.197  50.581  1.00  0.00    -0.382 OA
BRANCH  18  19
HETATM   19  C12 UNL     1      23.650   6.005  49.251  1.00  0.00     0.206 C 
BRANCH  19  20
HETATM   20  C13 UNL     1      25.091   5.825  48.979  1.00  0.00    -0.035 A 
HETATM   21  C14 UNL     1      25.692   4.644  49.310  1.00  0.00     0.009 A 
HETATM   22  C15 UNL     1      27.030   4.349  49.118  1.00  0.00     0.001 A 
HETATM   23  C16 UNL     1      27.795   5.361  48.535  1.00  0.00     0.000 A 
HETATM   24  C17 UNL     1      27.227   6.571  48.185  1.00  0.00     0.001 A 
HETATM   25  C18 UNL     1      25.870   6.801  48.408  1.00  0.00     0.009 A 
ENDBRANCH  19  20
ENDBRANCH  18  19
ENDBRANCH  17  18
ENDBRANCH   7  17
TORSDOF 6
ENDMDL
MODEL 4
REMARK VINA RESULT:      -7.2      5.431      6.713
REMARK  6 active torsions:
REMARK  status: ('A' for Active; 'I' for Inactive)
REMARK    1  A    between atoms: C3_4  and  N1_5 
REMARK    2  A    between atoms: N1_5  and  C4_6 
REMARK    3  A    between atoms: C10_15  and  C11_16 
REMARK    4  A    between atoms: C11_16  and  O1_17 
REMARK    5  A    between atoms: O1_17  and  C12_18 
REMARK    6  A    between atoms: C12_18  and  C13_19 
ROOT
HETATM    1  F1  UNL     1      26.664   2.398  49.993  1.00  0.00    -0.205 F 
HETATM    2  C1  UNL     1      26.379   3.697  49.665  1.00  0.00     0.127 A 
HETATM    3  C2  UNL     1      27.407   4.324  48.959  1.00  0.00     0.072 A 
HETATM    4  C3  UNL     1      27.247   5.651  48.564  1.00  0.00     0.036 A 
HETATM    5  C8  UNL     1      26.073   6.303  48.882  1.00  0.00     0.030 A 
HETATM    6  C9  UNL     1      25.053   5.692  49.579  1.00  0.00     0.014 A 
HETATM    7  C10 UNL     1      25.197   4.383  49.977  1.00  0.00     0.004 A 
ENDROOT
BRANCH   4   8
HETATM    8  N1  UNL     1      28.285   6.293  47.890  1.00  0.00    -0.341 N 
HETATM    9  H2  UNL     1      28.167   6.307  46.858  1.00  0.00     0.167 HD
BRANCH   8  10
HETATM   10  C4  UNL     1      29.450   6.910  48.421  1.00  0.00     0.132 A 
HETATM   11  C5  UNL     1      29.562   8.284  48.656  1.00  0.00     0.095 A 
HETATM   12  C6  UNL     1      30.687   8.860  49.197  1.00  0.00     0.131 A 
HETATM   13 CL1  UNL     1      30.725  10.610  49.460  1.00  0.00    -0.062 Cl
HETATM   14  N2  UNL     1      31.710   8.081  49.509  1.00  0.00    -0.230 NA
HETATM   15  C7  UNL     1      31.635   6.732  49.291  1.00  0.00     0.236 A 
HETATM   16  N3  UNL     1      30.526   6.193  48.762  1.00  0.00    -0.224 NA
ENDBRANCH   8  10
ENDBRANCH   4   8
BRANCH   7  17
HETATM   17  C11 UNL     1      24.297   3.450  50.748  1.00  0.00     0.209 C 
BRANCH  17  18
HETATM   18  O1  UNL     1      24.526   3.663  52.082  1.00  0.00    -0.382 OA
BRANCH  18  19
HETATM   19  C12 UNL     1      24.333   2.592  52.913  1.00  0.00     0.206 C 
BRANCH  19  20
HETATM   20  C13 UNL     1      25.479   1.658  52.908  1.00  0.00    -0.035 A 
HETATM   21  C14 UNL     1      26.705   2.102  53.314  1.00  0.00     0.009 A 
HETATM   22  C15 UNL     1      27.858   1.338  53.351  1.00  0.00     0.001 A 
HETATM   23  C16 UNL     1      27.718   0.013  52.934  1.00  0.00     0.000 A 
HETATM   24  C17 UNL     1      26.497  -0.477  52.515  1.00  0.00     0.001 A 
HETATM   25  C18 UNL     1      25.375   0.350  52.503  1.00  0.00     0.009 A 
ENDBRANCH  19  20
ENDBRANCH  18  19
ENDBRANCH  17  18
ENDBRANCH   7  17
TORSDOF 6
ENDMDL
MODEL 5
REMARK VINA RESULT:      -7.2      4.613      7.417
REMARK  6 active torsions:
REMARK  status: ('A' for Active; 'I' for Inactive)
REMARK    1  A    between atoms: C3_4  and  N1_5 
REMARK    2  A    between atoms: N1_5  and  C4_6 
REMARK    3  A    between atoms: C10_15  and  C11_16 
REMARK    4  A    between atoms: C11_16  and  O1_17 
REMARK    5  A    between atoms: O1_17  and  C12_18 
REMARK    6  A    between atoms: C12_18  and  C13_19 
ROOT
HETATM    1  F1  UNL     1      21.426   2.963  51.839  1.00  0.00    -0.205 F 
HETATM    2  C1  UNL     1      21.769   1.757  52.392  1.00  0.00     0.127 A 
HETATM    3  C2  UNL     1      20.686   1.086  52.963  1.00  0.00     0.072 A 
HETATM    4  C3  UNL     1      20.897  -0.155  53.561  1.00  0.00     0.036 A 
HETATM    5  C8  UNL     1      22.172  -0.683  53.568  1.00  0.00     0.030 A 
HETATM    6  C9  UNL     1      23.247  -0.027  53.006  1.00  0.00     0.014 A 
HETATM    7  C10 UNL     1      23.055   1.199  52.413  1.00  0.00     0.004 A 
ENDROOT
BRANCH   4   8
HETATM    8  N1  UNL     1      19.827  -0.812  54.165  1.00  0.00    -0.341 N 
HETATM    9  H2  UNL     1      19.941  -0.943  55.190  1.00  0.00     0.167 HD
BRANCH   8  10
HETATM   10  C4  UNL     1      18.635  -1.313  53.574  1.00  0.00     0.132 A 
HETATM   11  C5  UNL     1      18.142  -2.604  53.794  1.00  0.00     0.095 A 
HETATM   12  C6  UNL     1      16.972  -3.061  53.236  1.00  0.00     0.131 A 
HETATM   13 CL1  UNL     1      16.433  -4.712  53.583  1.00  0.00    -0.062 Cl
HETATM   14  N2  UNL     1      16.281  -2.247  52.455  1.00  0.00    -0.230 NA
HETATM   15  C7  UNL     1      16.735  -0.978  52.217  1.00  0.00     0.236 A 
HETATM   16  N3  UNL     1      17.880  -0.554  52.774  1.00  0.00    -0.224 NA
ENDBRANCH   8  10
ENDBRANCH   4   8
BRANCH   7  17
HETATM   17  C11 UNL     1      24.000   2.160  51.736  1.00  0.00     0.209 C 
BRANCH  17  18
HETATM   18  O1  UNL     1      25.160   1.481  51.471  1.00  0.00    -0.382 OA
BRANCH  18  19
HETATM   19  C12 UNL     1      26.329   2.139  51.744  1.00  0.00     0.206 C 
BRANCH  19  20
HETATM   20  C13 UNL     1      27.272   1.317  52.531  1.00  0.00    -0.035 A 
HETATM   21  C14 UNL     1      27.158  -0.044  52.501  1.00  0.00     0.009 A 
HETATM   22  C15 UNL     1      27.967  -0.928  53.194  1.00  0.00     0.001 A 
HETATM   23  C16 UNL     1      28.968  -0.346  53.973  1.00  0.00     0.000 A 
HETATM   24  C17 UNL     1      29.118   1.026  54.032  1.00  0.00     0.001 A 
HETATM   25  C18 UNL     1      28.266   1.858  53.307  1.00  0.00     0.009 A 
ENDBRANCH  19  20
ENDBRANCH  18  19
ENDBRANCH  17  18
ENDBRANCH   7  17
TORSDOF 6
ENDMDL
MODEL 6
REMARK VINA RESULT:      -7.2      3.990      6.360
REMARK  6 active torsions:
REMARK  status: ('A' for Active; 'I' for Inactive)
REMARK    1  A    between atoms: C3_4  and  N1_5 
REMARK    2  A    between atoms: N1_5  and  C4_6 
REMARK    3  A    between atoms: C10_15  and  C11_16 
REMARK    4  A    between atoms: C11_16  and  O1_17 
REMARK    5  A    between atoms: O1_17  and  C12_18 
REMARK    6  A    between atoms: C12_18  and  C13_19 
ROOT
HETATM    1  F1  UNL     1      23.827   3.697  48.973  1.00  0.00    -0.205 F 
HETATM    2  C1  UNL     1      23.830   3.543  50.334  1.00  0.00     0.127 A 
HETATM    3  C2  UNL     1      24.113   2.238  50.739  1.00  0.00     0.072 A 
HETATM    4  C3  UNL     1      24.146   1.943  52.101  1.00  0.00     0.036 A 
HETATM    5  C8  UNL     1      23.901   2.955  53.008  1.00  0.00     0.030 A 
HETATM    6  C9  UNL     1      23.622   4.247  52.616  1.00  0.00     0.014 A 
HETATM    7  C10 UNL     1      23.584   4.553  51.275  1.00  0.00     0.004 A 
ENDROOT
BRANCH   4   8
HETATM    8  N1  UNL     1      24.392   0.634  52.511  1.00  0.00    -0.341 N 
HETATM    9  H2  UNL     1      25.197   0.188  52.027  1.00  0.00     0.167 HD
BRANCH   8  10
HETATM   10  C4  UNL     1      23.699  -0.147  53.476  1.00  0.00     0.132 A 
HETATM   11  C5  UNL     1      22.345  -0.483  53.377  1.00  0.00     0.095 A 
HETATM   12  C6  UNL     1      21.699  -1.263  54.305  1.00  0.00     0.131 A 
HETATM   13 CL1  UNL     1      19.982  -1.634  54.083  1.00  0.00    -0.062 Cl
HETATM   14  N2  UNL     1      22.387  -1.716  55.341  1.00  0.00    -0.230 NA
HETATM   15  C7  UNL     1      23.713  -1.406  55.471  1.00  0.00     0.236 A 
HETATM   16  N3  UNL     1      24.322  -0.643  54.550  1.00  0.00    -0.224 NA
ENDBRANCH   8  10
ENDBRANCH   4   8
BRANCH   7  17
HETATM   17  C11 UNL     1      23.301   5.834  50.533  1.00  0.00     0.209 C 
BRANCH  17  18
HETATM   18  O1  UNL     1      24.492   6.493  50.376  1.00  0.00    -0.382 OA
BRANCH  18  19
HETATM   19  C12 UNL     1      24.822   6.863  49.099  1.00  0.00     0.206 C 
BRANCH  19  20
HETATM   20  C13 UNL     1      26.230   6.561  48.768  1.00  0.00    -0.035 A 
HETATM   21  C14 UNL     1      26.669   5.269  48.829  1.00  0.00     0.009 A 
HETATM   22  C15 UNL     1      27.959   4.851  48.553  1.00  0.00     0.001 A 
HETATM   23  C16 UNL     1      28.854   5.857  48.185  1.00  0.00     0.000 A 
HETATM   24  C17 UNL     1      28.452   7.176  48.111  1.00  0.00     0.001 A 
HETATM   25  C18 UNL     1      27.135   7.527  48.403  1.00  0.00     0.009 A 
ENDBRANCH  19  20
ENDBRANCH  18  19
ENDBRANCH  17  18
ENDBRANCH   7  17
TORSDOF 6
ENDMDL
MODEL 7
REMARK VINA RESULT:      -7.1      4.747      6.778
REMARK  6 active torsions:
REMARK  status: ('A' for Active; 'I' for Inactive)
REMARK    1  A    between atoms: C3_4  and  N1_5 
REMARK    2  A    between atoms: N1_5  and  C4_6 
REMARK    3  A    between atoms: C10_15  and  C11_16 
REMARK    4  A    between atoms: C11_16  and  O1_17 
REMARK    5  A    between atoms: O1_17  and  C12_18 
REMARK    6  A    between atoms: C12_18  and  C13_19 
ROOT
HETATM    1  F1  UNL     1      23.553   4.458  51.770  1.00  0.00    -0.205 F 
HETATM    2  C1  UNL     1      24.638   4.173  50.983  1.00  0.00     0.127 A 
HETATM    3  C2  UNL     1      25.046   5.251  50.197  1.00  0.00     0.072 A 
HETATM    4  C3  UNL     1      26.140   5.095  49.348  1.00  0.00     0.036 A 
HETATM    5  C8  UNL     1      26.789   3.877  49.314  1.00  0.00     0.030 A 
HETATM    6  C9  UNL     1      26.393   2.807  50.088  1.00  0.00     0.014 A 
HETATM    7  C10 UNL     1      25.313   2.945  50.930  1.00  0.00     0.004 A 
ENDROOT
BRANCH   4   8
HETATM    8  N1  UNL     1      26.529   6.157  48.534  1.00  0.00    -0.341 N 
HETATM    9  H2  UNL     1      25.787   6.474  47.878  1.00  0.00     0.167 HD
BRANCH   8  10
HETATM   10  C4  UNL     1      27.775   6.839  48.486  1.00  0.00     0.132 A 
HETATM   11  C5  UNL     1      28.934   6.301  47.915  1.00  0.00     0.095 A 
HETATM   12  C6  UNL     1      30.123   6.987  47.852  1.00  0.00     0.131 A 
HETATM   13 CL1  UNL     1      31.530   6.217  47.103  1.00  0.00    -0.062 Cl
HETATM   14  N2  UNL     1      30.177   8.210  48.355  1.00  0.00    -0.230 NA
HETATM   15  C7  UNL     1      29.063   8.767  48.923  1.00  0.00     0.236 A 
HETATM   16  N3  UNL     1      27.913   8.077  48.971  1.00  0.00    -0.224 NA
ENDBRANCH   8  10
ENDBRANCH   4   8
BRANCH   7  17
HETATM   17  C11 UNL     1      24.633   1.987  51.875  1.00  0.00     0.209 C 
BRANCH  17  18
HETATM   18  O1  UNL     1      25.359   0.825  51.881  1.00  0.00    -0.382 OA
BRANCH  18  19
HETATM   19  C12 UNL     1      25.643   0.289  53.108  1.00  0.00     0.206 C 
BRANCH  19  20
HETATM   20  C13 UNL     1      27.077  -0.034  53.267  1.00  0.00    -0.035 A 
HETATM   21  C14 UNL     1      27.945   0.948  53.647  1.00  0.00     0.009 A 
HETATM   22  C15 UNL     1      29.308   0.784  53.824  1.00  0.00     0.001 A 
HETATM   23  C16 UNL     1      29.797  -0.502  53.587  1.00  0.00     0.000 A 
HETATM   24  C17 UNL     1      28.953  -1.525  53.201  1.00  0.00     0.001 A 
HETATM   25  C18 UNL     1      27.589  -1.288  53.041  1.00  0.00     0.009 A 
ENDBRANCH  19  20
ENDBRANCH  18  19
ENDBRANCH  17  18
ENDBRANCH   7  17
TORSDOF 6
ENDMDL
MODEL 8
REMARK VINA RESULT:      -7.0      5.219      6.424
REMARK  6 active torsions:
REMARK  status: ('A' for Active; 'I' for Inactive)
REMARK    1  A    between atoms: C3_4  and  N1_5 
REMARK    2  A    between atoms: N1_5  and  C4_6 
REMARK    3  A    between atoms: C10_15  and  C11_16 
REMARK    4  A    between atoms: C11_16  and  O1_17 
REMARK    5  A    between atoms: O1_17  and  C12_18 
REMARK    6  A    between atoms: C12_18  and  C13_19 
ROOT
HETATM    1  F1  UNL     1      26.779   2.547  49.670  1.00  0.00    -0.205 F 
HETATM    2  C1  UNL     1      26.522   3.870  49.424  1.00  0.00     0.127 A 
HETATM    3  C2  UNL     1      27.566   4.520  48.767  1.00  0.00     0.072 A 
HETATM    4  C3  UNL     1      27.434   5.872  48.457  1.00  0.00     0.036 A 
HETATM    5  C8  UNL     1      26.271   6.526  48.809  1.00  0.00     0.030 A 
HETATM    6  C9  UNL     1      25.234   5.891  49.458  1.00  0.00     0.014 A 
HETATM    7  C10 UNL     1      25.350   4.557  49.773  1.00  0.00     0.004 A 
ENDROOT
BRANCH   4   8
HETATM    8  N1  UNL     1      28.490   6.536  47.832  1.00  0.00    -0.341 N 
HETATM    9  H2  UNL     1      28.235   6.958  46.917  1.00  0.00     0.167 HD
BRANCH   8  10
HETATM   10  C4  UNL     1      29.830   6.701  48.275  1.00  0.00     0.132 A 
HETATM   11  C5  UNL     1      30.855   5.787  48.007  1.00  0.00     0.095 A 
HETATM   12  C6  UNL     1      32.152   5.978  48.419  1.00  0.00     0.131 A 
HETATM   13 CL1  UNL     1      33.376   4.761  48.023  1.00  0.00    -0.062 Cl
HETATM   14  N2  UNL     1      32.446   7.074  49.100  1.00  0.00    -0.230 NA
HETATM   15  C7  UNL     1      31.468   7.988  49.382  1.00  0.00     0.236 A 
HETATM   16  N3  UNL     1      30.209   7.780  48.968  1.00  0.00    -0.224 NA
ENDBRANCH   8  10
ENDBRANCH   4   8
BRANCH   7  17
HETATM   17  C11 UNL     1      24.426   3.594  50.476  1.00  0.00     0.209 C 
BRANCH  17  18
HETATM   18  O1  UNL     1      24.595   3.770  51.824  1.00  0.00    -0.382 OA
BRANCH  18  19
HETATM   19  C12 UNL     1      24.332   2.686  52.619  1.00  0.00     0.206 C 
BRANCH  19  20
HETATM   20  C13 UNL     1      25.470   1.746  52.689  1.00  0.00    -0.035 A 
HETATM   21  C14 UNL     1      26.697   2.208  53.072  1.00  0.00     0.009 A 
HETATM   22  C15 UNL     1      27.843   1.439  53.172  1.00  0.00     0.001 A 
HETATM   23  C16 UNL     1      27.695   0.089  52.850  1.00  0.00     0.000 A 
HETATM   24  C17 UNL     1      26.473  -0.420  52.458  1.00  0.00     0.001 A 
HETATM   25  C18 UNL     1      25.357   0.413  52.378  1.00  0.00     0.009 A 
ENDBRANCH  19  20
ENDBRANCH  18  19
ENDBRANCH  17  18
ENDBRANCH   7  17
TORSDOF 6
ENDMDL
MODEL 9
REMARK VINA RESULT:      -7.0      2.358      4.102
REMARK  6 active torsions:
REMARK  status: ('A' for Active; 'I' for Inactive)
REMARK    1  A    between atoms: C3_4  and  N1_5 
REMARK    2  A    between atoms: N1_5  and  C4_6 
REMARK    3  A    between atoms: C10_15  and  C11_16 
REMARK    4  A    between atoms: C11_16  and  O1_17 
REMARK    5  A    between atoms: O1_17  and  C12_18 
REMARK    6  A    between atoms: C12_18  and  C13_19 
ROOT
HETATM    1  F1  UNL     1      20.689  -1.420  54.346  1.00  0.00    -0.205 F 
HETATM    2  C1  UNL     1      21.688  -0.697  53.749  1.00  0.00     0.127 A 
HETATM    3  C2  UNL     1      22.937  -0.896  54.338  1.00  0.00     0.072 A 
HETATM    4  C3  UNL     1      24.043  -0.219  53.826  1.00  0.00     0.036 A 
HETATM    5  C8  UNL     1      23.866   0.628  52.750  1.00  0.00     0.030 A 
HETATM    6  C9  UNL     1      22.635   0.829  52.163  1.00  0.00     0.014 A 
HETATM    7  C10 UNL     1      21.534   0.169  52.658  1.00  0.00     0.004 A 
ENDROOT
BRANCH   4   8
HETATM    8  N1  UNL     1      25.286  -0.386  54.433  1.00  0.00    -0.341 N 
HETATM    9  H2  UNL     1      25.297  -1.120  55.169  1.00  0.00     0.167 HD
BRANCH   8  10
HETATM   10  C4  UNL     1      26.505   0.302  54.181  1.00  0.00     0.132 A 
HETATM   11  C5  UNL     1      27.725  -0.341  53.944  1.00  0.00     0.095 A 
HETATM   12  C6  UNL     1      28.887   0.340  53.675  1.00  0.00     0.131 A 
HETATM   13 CL1  UNL     1      30.378  -0.570  53.384  1.00  0.00    -0.062 Cl
HETATM   14  N2  UNL     1      28.854   1.662  53.638  1.00  0.00    -0.230 NA
HETATM   15  C7  UNL     1      27.678   2.324  53.867  1.00  0.00     0.236 A 
HETATM   16  N3  UNL     1      26.555   1.636  54.127  1.00  0.00    -0.224 NA
ENDBRANCH   8  10
ENDBRANCH   4   8
BRANCH   7  17
HETATM   17  C11 UNL     1      20.080   0.180  52.261  1.00  0.00     0.209 C 
BRANCH  17  18
HETATM   18  O1  UNL     1      20.024   0.129  50.893  1.00  0.00    -0.382 OA
BRANCH  18  19
HETATM   19  C12 UNL     1      19.537   1.241  50.259  1.00  0.00     0.206 C 
BRANCH  19  20
HETATM   20  C13 UNL     1      20.592   1.996  49.551  1.00  0.00    -0.035 A 
HETATM   21  C14 UNL     1      21.364   1.356  48.625  1.00  0.00     0.009 A 
HETATM   22  C15 UNL     1      22.387   1.941  47.898  1.00  0.00     0.001 A 
HETATM   23  C16 UNL     1      22.617   3.293  48.159  1.00  0.00     0.000 A 
HETATM   24  C17 UNL     1      21.858   3.978  49.088  1.00  0.00     0.001 A 
HETATM   25  C18 UNL     1      20.843   3.326  49.785  1.00  0.00     0.009 A 
ENDBRANCH  19  20
ENDBRANCH  18  19
ENDBRANCH  17  18
ENDBRANCH   7  17
TORSDOF 6
ENDMDL
