MODEL 1
REMARK VINA RESULT:      -9.7      0.000      0.000
REMARK  6 active torsions:
REMARK  status: ('A' for Active; 'I' for Inactive)
REMARK    1  A    between atoms: C2_2  and  C3_3 
REMARK    2  A    between atoms: C8_10  and  C9_11 
REMARK    3  A    between atoms: C18_21  and  N3_22 
REMARK    4  A    between atoms: C19_23  and  C20_24 
REMARK    5  A    between atoms: C20_24  and  C21_25 
REMARK    6  A    between atoms: C21_25  and  O3_27 
ROOT
HETATM    1  C3  UNL     1      24.725   0.593  52.682  1.00  0.00     0.026 C 
HETATM    2  C4  UNL     1      23.766  -0.030  53.326  1.00  0.00     0.043 A 
HETATM    3  C5  UNL     1      23.815  -0.828  54.543  1.00  0.00     0.256 A 
HETATM    4  O1  UNL     1      24.800  -1.100  55.267  1.00  0.00    -0.267 OA
HETATM    5  N1  UNL     1      22.534  -1.332  54.899  1.00  0.00    -0.322 N 
HETATM    6  C6  UNL     1      21.694  -0.828  53.874  1.00  0.00     0.047 A 
HETATM    7  C7  UNL     1      20.332  -0.966  53.649  1.00  0.00     0.042 A 
HETATM    8  C8  UNL     1      19.610  -0.427  52.607  1.00  0.00    -0.024 A 
HETATM    9  C15 UNL     1      20.303   0.329  51.687  1.00  0.00     0.013 A 
HETATM   10  C16 UNL     1      21.659   0.495  51.866  1.00  0.00     0.015 A 
HETATM   11  C17 UNL     1      22.361  -0.070  52.940  1.00  0.00     0.006 A 
HETATM   12  H5  UNL     1      22.233  -1.925  55.698  1.00  0.00     0.169 HD
ENDROOT
BRANCH   1  13
HETATM   13  C2  UNL     1      26.148   0.823  52.774  1.00  0.00     0.075 A 
HETATM   14  C1  UNL     1      26.813   1.573  51.629  1.00  0.00     0.048 C 
HETATM   15  N2  UNL     1      26.500   1.507  54.019  1.00  0.00    -0.360 N 
HETATM   16  C18 UNL     1      27.315   0.448  54.494  1.00  0.00     0.101 A 
HETATM   17  H14 UNL     1      26.322   2.420  54.531  1.00  0.00     0.162 HD
HETATM   18  C19 UNL     1      27.019  -0.221  53.366  1.00  0.00     0.004 A 
BRANCH  16  19
HETATM   19  N3  UNL     1      28.123   0.097  55.607  1.00  0.00    -0.385 N 
HETATM   20  H15 UNL     1      28.324   0.782  56.348  1.00  0.00     0.157 HD
HETATM   21  H16 UNL     1      28.390  -0.912  55.434  1.00  0.00     0.157 HD
ENDBRANCH  16  19
BRANCH  18  22
HETATM   22  C20 UNL     1      27.311  -1.529  52.677  1.00  0.00     0.150 C 
BRANCH  22  23
HETATM   23  C21 UNL     1      28.611  -2.094  53.123  1.00  0.00     0.143 C 
HETATM   24  O2  UNL     1      29.770  -1.642  53.414  1.00  0.00    -0.650 OA
BRANCH  23  25
HETATM   25  O3  UNL     1      28.569  -3.476  53.267  1.00  0.00    -0.776 OA
HETATM   26  H19 UNL     1      28.029  -4.096  52.646  1.00  0.00     0.167 HD
ENDBRANCH  23  25
ENDBRANCH  22  23
ENDBRANCH  18  22
ENDBRANCH   1  13
BRANCH   8  27
HETATM   27  C9  UNL     1      18.174  -0.658  52.499  1.00  0.00    -0.026 A 
HETATM   28  C10 UNL     1      17.344   0.285  51.878  1.00  0.00     0.012 A 
HETATM   29  C11 UNL     1      15.973   0.147  51.731  1.00  0.00     0.001 A 
HETATM   30  C12 UNL     1      15.391  -1.000  52.232  1.00  0.00     0.000 A 
HETATM   31  C13 UNL     1      16.199  -1.934  52.845  1.00  0.00     0.001 A 
HETATM   32  C14 UNL     1      17.549  -1.801  52.992  1.00  0.00     0.012 A 
ENDBRANCH   8  27
TORSDOF 6
ENDMDL
MODEL 2
REMARK VINA RESULT:      -9.4      1.963      2.543
REMARK  6 active torsions:
REMARK  status: ('A' for Active; 'I' for Inactive)
REMARK    1  A    between atoms: C2_2  and  C3_3 
REMARK    2  A    between atoms: C8_10  and  C9_11 
REMARK    3  A    between atoms: C18_21  and  N3_22 
REMARK    4  A    between atoms: C19_23  and  C20_24 
REMARK    5  A    between atoms: C20_24  and  C21_25 
REMARK    6  A    between atoms: C21_25  and  O3_27 
ROOT
HETATM    1  C3  UNL     1      23.795   0.130  53.235  1.00  0.00     0.026 C 
HETATM    2  C4  UNL     1      22.625  -0.324  53.621  1.00  0.00     0.043 A 
HETATM    3  C5  UNL     1      22.252  -1.067  54.816  1.00  0.00     0.256 A 
HETATM    4  O1  UNL     1      22.976  -1.442  55.768  1.00  0.00    -0.267 OA
HETATM    5  N1  UNL     1      20.864  -1.371  54.841  1.00  0.00    -0.322 N 
HETATM    6  C6  UNL     1      20.388  -0.800  53.633  1.00  0.00     0.047 A 
HETATM    7  C7  UNL     1      19.119  -0.756  53.073  1.00  0.00     0.042 A 
HETATM    8  C8  UNL     1      18.767  -0.168  51.878  1.00  0.00    -0.024 A 
HETATM    9  C15 UNL     1      19.769   0.442  51.158  1.00  0.00     0.013 A 
HETATM   10  C16 UNL     1      21.048   0.425  51.672  1.00  0.00     0.015 A 
HETATM   11  C17 UNL     1      21.370  -0.185  52.893  1.00  0.00     0.006 A 
HETATM   12  H5  UNL     1      20.290  -1.881  55.543  1.00  0.00     0.169 HD
ENDROOT
BRANCH   1  13
HETATM   13  C2  UNL     1      25.167   0.163  53.682  1.00  0.00     0.075 A 
HETATM   14  C1  UNL     1      25.545   1.215  54.713  1.00  0.00     0.048 C 
HETATM   15  N2  UNL     1      25.594  -1.139  54.197  1.00  0.00    -0.360 N 
HETATM   16  C18 UNL     1      26.613  -1.309  53.224  1.00  0.00     0.101 A 
HETATM   17  H14 UNL     1      25.362  -1.831  54.968  1.00  0.00     0.162 HD
HETATM   18  C19 UNL     1      26.256  -0.118  52.714  1.00  0.00     0.004 A 
BRANCH  16  19
HETATM   19  N3  UNL     1      27.615  -2.234  52.833  1.00  0.00    -0.385 N 
HETATM   20  H15 UNL     1      27.799  -2.419  51.837  1.00  0.00     0.157 HD
HETATM   21  H16 UNL     1      28.019  -2.590  53.743  1.00  0.00     0.157 HD
ENDBRANCH  16  19
BRANCH  18  22
HETATM   22  C20 UNL     1      26.631   0.834  51.607  1.00  0.00     0.150 C 
BRANCH  22  23
HETATM   23  C21 UNL     1      27.508   1.924  52.109  1.00  0.00     0.143 C 
HETATM   24  O2  UNL     1      28.428   2.047  52.986  1.00  0.00    -0.650 OA
BRANCH  23  25
HETATM   25  O3  UNL     1      27.278   3.133  51.460  1.00  0.00    -0.776 OA
HETATM   26  H19 UNL     1      26.463   3.307  50.856  1.00  0.00     0.167 HD
ENDBRANCH  23  25
ENDBRANCH  22  23
ENDBRANCH  18  22
ENDBRANCH   1  13
BRANCH   8  27
HETATM   27  C9  UNL     1      17.385  -0.201  51.413  1.00  0.00    -0.026 A 
HETATM   28  C10 UNL     1      17.093  -0.216  50.043  1.00  0.00     0.012 A 
HETATM   29  C11 UNL     1      15.813  -0.248  49.513  1.00  0.00     0.001 A 
HETATM   30  C12 UNL     1      14.756  -0.266  50.401  1.00  0.00     0.000 A 
HETATM   31  C13 UNL     1      15.033  -0.251  51.752  1.00  0.00     0.001 A 
HETATM   32  C14 UNL     1      16.292  -0.219  52.277  1.00  0.00     0.012 A 
ENDBRANCH   8  27
TORSDOF 6
ENDMDL
MODEL 3
REMARK VINA RESULT:      -9.4      5.688      7.487
REMARK  6 active torsions:
REMARK  status: ('A' for Active; 'I' for Inactive)
REMARK    1  A    between atoms: C2_2  and  C3_3 
REMARK    2  A    between atoms: C8_10  and  C9_11 
REMARK    3  A    between atoms: C18_21  and  N3_22 
REMARK    4  A    between atoms: C19_23  and  C20_24 
REMARK    5  A    between atoms: C20_24  and  C21_25 
REMARK    6  A    between atoms: C21_25  and  O3_27 
ROOT
HETATM    1  C3  UNL     1      25.443   6.355  49.645  1.00  0.00     0.026 C 
HETATM    2  C4  UNL     1      24.440   6.008  50.418  1.00  0.00     0.043 A 
HETATM    3  C5  UNL     1      23.332   6.801  50.932  1.00  0.00     0.256 A 
HETATM    4  O1  UNL     1      23.077   8.013  50.745  1.00  0.00    -0.267 OA
HETATM    5  N1  UNL     1      22.460   6.029  51.748  1.00  0.00    -0.322 N 
HETATM    6  C6  UNL     1      23.056   4.742  51.726  1.00  0.00     0.047 A 
HETATM    7  C7  UNL     1      22.688   3.547  52.328  1.00  0.00     0.042 A 
HETATM    8  C8  UNL     1      23.350   2.342  52.239  1.00  0.00    -0.024 A 
HETATM    9  C15 UNL     1      24.496   2.309  51.476  1.00  0.00     0.013 A 
HETATM   10  C16 UNL     1      24.903   3.471  50.857  1.00  0.00     0.015 A 
HETATM   11  C17 UNL     1      24.204   4.681  50.971  1.00  0.00     0.006 A 
HETATM   12  H5  UNL     1      21.592   6.291  52.256  1.00  0.00     0.169 HD
ENDROOT
BRANCH   1  13
HETATM   13  C2  UNL     1      25.959   7.517  48.961  1.00  0.00     0.075 A 
HETATM   14  C1  UNL     1      25.160   8.049  47.781  1.00  0.00     0.048 C 
HETATM   15  N2  UNL     1      26.179   8.629  49.887  1.00  0.00    -0.360 N 
HETATM   16  C18 UNL     1      27.576   8.692  49.646  1.00  0.00     0.101 A 
HETATM   17  H14 UNL     1      25.644   9.260  50.552  1.00  0.00     0.162 HD
HETATM   18  C19 UNL     1      27.424   7.669  48.786  1.00  0.00     0.004 A 
BRANCH  16  19
HETATM   19  N3  UNL     1      28.728   9.420  50.041  1.00  0.00    -0.385 N 
HETATM   20  H15 UNL     1      29.434   8.993  50.657  1.00  0.00     0.157 HD
HETATM   21  H16 UNL     1      28.620  10.362  49.573  1.00  0.00     0.157 HD
ENDBRANCH  16  19
BRANCH  18  22
HETATM   22  C20 UNL     1      28.229   6.806  47.850  1.00  0.00     0.150 C 
BRANCH  22  23
HETATM   23  C21 UNL     1      28.577   5.506  48.481  1.00  0.00     0.143 C 
HETATM   24  O2  UNL     1      28.038   4.354  48.596  1.00  0.00    -0.650 OA
BRANCH  23  25
HETATM   25  O3  UNL     1      29.814   5.538  49.118  1.00  0.00    -0.776 OA
HETATM   26  H19 UNL     1      29.991   6.058  49.989  1.00  0.00     0.167 HD
ENDBRANCH  23  25
ENDBRANCH  22  23
ENDBRANCH  18  22
ENDBRANCH   1  13
BRANCH   8  27
HETATM   27  C9  UNL     1      22.843   1.162  52.931  1.00  0.00    -0.026 A 
HETATM   28  C10 UNL     1      21.470   0.999  53.152  1.00  0.00     0.012 A 
HETATM   29  C11 UNL     1      20.902  -0.088  53.799  1.00  0.00     0.001 A 
HETATM   30  C12 UNL     1      21.754  -1.075  54.253  1.00  0.00     0.000 A 
HETATM   31  C13 UNL     1      23.108  -0.923  54.040  1.00  0.00     0.001 A 
HETATM   32  C14 UNL     1      23.669   0.145  53.405  1.00  0.00     0.012 A 
ENDBRANCH   8  27
TORSDOF 6
ENDMDL
MODEL 4
REMARK VINA RESULT:      -9.3      4.322      7.147
REMARK  6 active torsions:
REMARK  status: ('A' for Active; 'I' for Inactive)
REMARK    1  A    between atoms: C2_2  and  C3_3 
REMARK    2  A    between atoms: C8_10  and  C9_11 
REMARK    3  A    between atoms: C18_21  and  N3_22 
REMARK    4  A    between atoms: C19_23  and  C20_24 
REMARK    5  A    between atoms: C20_24  and  C21_25 
REMARK    6  A    between atoms: C21_25  and  O3_27 
ROOT
HETATM    1  C3  UNL     1      26.133   0.747  52.442  1.00  0.00     0.026 C 
HETATM    2  C4  UNL     1      25.177   1.436  51.865  1.00  0.00     0.043 A 
HETATM    3  C5  UNL     1      23.733   1.256  51.904  1.00  0.00     0.256 A 
HETATM    4  O1  UNL     1      23.063   0.390  52.514  1.00  0.00    -0.267 OA
HETATM    5  N1  UNL     1      23.054   2.232  51.124  1.00  0.00    -0.322 N 
HETATM    6  C6  UNL     1      24.113   3.018  50.601  1.00  0.00     0.047 A 
HETATM    7  C7  UNL     1      24.111   4.125  49.765  1.00  0.00     0.042 A 
HETATM    8  C8  UNL     1      25.212   4.819  49.314  1.00  0.00    -0.024 A 
HETATM    9  C15 UNL     1      26.448   4.375  49.730  1.00  0.00     0.013 A 
HETATM   10  C16 UNL     1      26.503   3.278  50.562  1.00  0.00     0.015 A 
HETATM   11  C17 UNL     1      25.359   2.596  51.001  1.00  0.00     0.006 A 
HETATM   12  H5  UNL     1      22.040   2.378  50.946  1.00  0.00     0.169 HD
ENDROOT
BRANCH   1  13
HETATM   13  C2  UNL     1      26.301  -0.396  53.308  1.00  0.00     0.075 A 
HETATM   14  C1  UNL     1      25.188  -0.694  54.302  1.00  0.00     0.048 C 
HETATM   15  N2  UNL     1      26.550  -1.617  52.540  1.00  0.00    -0.360 N 
HETATM   16  C18 UNL     1      27.832  -1.839  53.106  1.00  0.00     0.101 A 
HETATM   17  H14 UNL     1      26.087  -2.237  51.814  1.00  0.00     0.162 HD
HETATM   18  C19 UNL     1      27.650  -0.722  53.832  1.00  0.00     0.004 A 
BRANCH  16  19
HETATM   19  N3  UNL     1      28.919  -2.749  53.045  1.00  0.00    -0.385 N 
HETATM   20  H15 UNL     1      28.927  -3.597  53.629  1.00  0.00     0.157 HD
HETATM   21  H16 UNL     1      29.578  -2.329  52.334  1.00  0.00     0.157 HD
ENDBRANCH  16  19
BRANCH  18  22
HETATM   22  C20 UNL     1      28.348   0.120  54.869  1.00  0.00     0.150 C 
BRANCH  22  23
HETATM   23  C21 UNL     1      29.096   1.239  54.239  1.00  0.00     0.143 C 
HETATM   24  O2  UNL     1      29.030   2.514  54.235  1.00  0.00    -0.650 OA
BRANCH  23  25
HETATM   25  O3  UNL     1      30.147   0.795  53.444  1.00  0.00    -0.776 OA
HETATM   26  H19 UNL     1      30.480  -0.179  53.433  1.00  0.00     0.167 HD
ENDBRANCH  23  25
ENDBRANCH  22  23
ENDBRANCH  18  22
ENDBRANCH   1  13
BRANCH   8  27
HETATM   27  C9  UNL     1      25.057   5.971  48.433  1.00  0.00    -0.026 A 
HETATM   28  C10 UNL     1      26.144   6.810  48.156  1.00  0.00     0.012 A 
HETATM   29  C11 UNL     1      26.086   7.923  47.333  1.00  0.00     0.001 A 
HETATM   30  C12 UNL     1      24.872   8.220  46.748  1.00  0.00     0.000 A 
HETATM   31  C13 UNL     1      23.796   7.400  47.014  1.00  0.00     0.001 A 
HETATM   32  C14 UNL     1      23.849   6.304  47.825  1.00  0.00     0.012 A 
ENDBRANCH   8  27
TORSDOF 6
ENDMDL
MODEL 5
REMARK VINA RESULT:      -9.2      6.011      8.081
REMARK  6 active torsions:
REMARK  status: ('A' for Active; 'I' for Inactive)
REMARK    1  A    between atoms: C2_2  and  C3_3 
REMARK    2  A    between atoms: C8_10  and  C9_11 
REMARK    3  A    between atoms: C18_21  and  N3_22 
REMARK    4  A    between atoms: C19_23  and  C20_24 
REMARK    5  A    between atoms: C20_24  and  C21_25 
REMARK    6  A    between atoms: C21_25  and  O3_27 
ROOT
HETATM    1  C3  UNL     1      26.334   6.663  49.202  1.00  0.00     0.026 C 
HETATM    2  C4  UNL     1      25.362   6.315  50.011  1.00  0.00     0.043 A 
HETATM    3  C5  UNL     1      24.359   7.130  50.681  1.00  0.00     0.256 A 
HETATM    4  O1  UNL     1      24.191   8.371  50.632  1.00  0.00    -0.267 OA
HETATM    5  N1  UNL     1      23.484   6.346  51.481  1.00  0.00    -0.322 N 
HETATM    6  C6  UNL     1      23.970   5.028  51.291  1.00  0.00     0.047 A 
HETATM    7  C7  UNL     1      23.548   3.808  51.801  1.00  0.00     0.042 A 
HETATM    8  C8  UNL     1      24.102   2.572  51.546  1.00  0.00    -0.024 A 
HETATM    9  C15 UNL     1      25.187   2.533  50.699  1.00  0.00     0.013 A 
HETATM   10  C16 UNL     1      25.645   3.719  50.166  1.00  0.00     0.015 A 
HETATM   11  C17 UNL     1      25.056   4.959  50.449  1.00  0.00     0.006 A 
HETATM   12  H5  UNL     1      22.676   6.618  52.077  1.00  0.00     0.169 HD
ENDROOT
BRANCH   1  13
HETATM   13  C2  UNL     1      26.896   7.847  48.596  1.00  0.00     0.075 A 
HETATM   14  C1  UNL     1      26.151   8.453  47.416  1.00  0.00     0.048 C 
HETATM   15  N2  UNL     1      27.102   8.907  49.585  1.00  0.00    -0.360 N 
HETATM   16  C18 UNL     1      28.508   8.954  49.398  1.00  0.00     0.101 A 
HETATM   17  H14 UNL     1      26.554   9.515  50.261  1.00  0.00     0.162 HD
HETATM   18  C19 UNL     1      28.369   7.980  48.482  1.00  0.00     0.004 A 
BRANCH  16  19
HETATM   19  N3  UNL     1      29.657   9.639  49.870  1.00  0.00    -0.385 N 
HETATM   20  H15 UNL     1      29.716  10.666  49.818  1.00  0.00     0.157 HD
HETATM   21  H16 UNL     1      30.297   8.874  50.220  1.00  0.00     0.157 HD
ENDBRANCH  16  19
BRANCH  18  22
HETATM   22  C20 UNL     1      29.193   7.148  47.533  1.00  0.00     0.150 C 
BRANCH  22  23
HETATM   23  C21 UNL     1      30.194   6.329  48.265  1.00  0.00     0.143 C 
HETATM   24  O2  UNL     1      31.464   6.196  48.266  1.00  0.00    -0.650 OA
BRANCH  23  25
HETATM   25  O3  UNL     1      29.607   5.478  49.196  1.00  0.00    -0.776 OA
HETATM   26  H19 UNL     1      28.597   5.282  49.229  1.00  0.00     0.167 HD
ENDBRANCH  23  25
ENDBRANCH  22  23
ENDBRANCH  18  22
ENDBRANCH   1  13
BRANCH   8  27
HETATM   27  C9  UNL     1      23.548   1.369  52.157  1.00  0.00    -0.026 A 
HETATM   28  C10 UNL     1      24.285   0.644  53.102  1.00  0.00     0.012 A 
HETATM   29  C11 UNL     1      23.838  -0.507  53.732  1.00  0.00     0.001 A 
HETATM   30  C12 UNL     1      22.579  -0.965  53.400  1.00  0.00     0.000 A 
HETATM   31  C13 UNL     1      21.845  -0.259  52.471  1.00  0.00     0.001 A 
HETATM   32  C14 UNL     1      22.283   0.874  51.849  1.00  0.00     0.012 A 
ENDBRANCH   8  27
TORSDOF 6
ENDMDL
MODEL 6
REMARK VINA RESULT:      -8.9      6.440      8.518
REMARK  6 active torsions:
REMARK  status: ('A' for Active; 'I' for Inactive)
REMARK    1  A    between atoms: C2_2  and  C3_3 
REMARK    2  A    between atoms: C8_10  and  C9_11 
REMARK    3  A    between atoms: C18_21  and  N3_22 
REMARK    4  A    between atoms: C19_23  and  C20_24 
REMARK    5  A    between atoms: C20_24  and  C21_25 
REMARK    6  A    between atoms: C21_25  and  O3_27 
ROOT
HETATM    1  C3  UNL     1      27.574   6.708  48.451  1.00  0.00     0.026 C 
HETATM    2  C4  UNL     1      26.319   6.491  48.766  1.00  0.00     0.043 A 
HETATM    3  C5  UNL     1      25.162   7.372  48.682  1.00  0.00     0.256 A 
HETATM    4  O1  UNL     1      25.102   8.556  48.278  1.00  0.00    -0.267 OA
HETATM    5  N1  UNL     1      23.975   6.735  49.135  1.00  0.00    -0.322 N 
HETATM    6  C6  UNL     1      24.425   5.441  49.502  1.00  0.00     0.047 A 
HETATM    7  C7  UNL     1      23.750   4.343  50.018  1.00  0.00     0.042 A 
HETATM    8  C8  UNL     1      24.294   3.120  50.342  1.00  0.00    -0.024 A 
HETATM    9  C15 UNL     1      25.646   2.958  50.136  1.00  0.00     0.013 A 
HETATM   10  C16 UNL     1      26.361   4.020  49.625  1.00  0.00     0.015 A 
HETATM   11  C17 UNL     1      25.773   5.252  49.307  1.00  0.00     0.006 A 
HETATM   12  H5  UNL     1      22.997   7.083  49.203  1.00  0.00     0.169 HD
ENDROOT
BRANCH   1  13
HETATM   13  C2  UNL     1      28.414   7.759  47.927  1.00  0.00     0.075 A 
HETATM   14  C1  UNL     1      28.175   8.197  46.490  1.00  0.00     0.048 C 
HETATM   15  N2  UNL     1      28.367   8.954  48.771  1.00  0.00    -0.360 N 
HETATM   16  C18 UNL     1      29.750   8.917  49.085  1.00  0.00     0.101 A 
HETATM   17  H14 UNL     1      27.679   9.682  49.122  1.00  0.00     0.162 HD
HETATM   18  C19 UNL     1      29.843   7.815  48.321  1.00  0.00     0.004 A 
BRANCH  16  19
HETATM   19  N3  UNL     1      30.727   9.624  49.833  1.00  0.00    -0.385 N 
HETATM   20  H15 UNL     1      30.954  10.602  49.609  1.00  0.00     0.157 HD
HETATM   21  H16 UNL     1      31.066   8.927  50.552  1.00  0.00     0.157 HD
ENDBRANCH  16  19
BRANCH  18  22
HETATM   22  C20 UNL     1      30.862   6.812  47.844  1.00  0.00     0.150 C 
BRANCH  22  23
HETATM   23  C21 UNL     1      31.537   6.144  48.987  1.00  0.00     0.143 C 
HETATM   24  O2  UNL     1      32.736   5.999  49.402  1.00  0.00    -0.650 OA
BRANCH  23  25
HETATM   25  O3  UNL     1      30.639   5.506  49.836  1.00  0.00    -0.776 OA
HETATM   26  H19 UNL     1      29.821   5.974  50.253  1.00  0.00     0.167 HD
ENDBRANCH  23  25
ENDBRANCH  22  23
ENDBRANCH  18  22
ENDBRANCH   1  13
BRANCH   8  27
HETATM   27  C9  UNL     1      23.457   2.053  50.879  1.00  0.00    -0.026 A 
HETATM   28  C10 UNL     1      22.305   1.638  50.199  1.00  0.00     0.012 A 
HETATM   29  C11 UNL     1      21.455   0.634  50.635  1.00  0.00     0.001 A 
HETATM   30  C12 UNL     1      21.771   0.003  51.822  1.00  0.00     0.000 A 
HETATM   31  C13 UNL     1      22.903   0.404  52.499  1.00  0.00     0.001 A 
HETATM   32  C14 UNL     1      23.742   1.392  52.073  1.00  0.00     0.012 A 
ENDBRANCH   8  27
TORSDOF 6
ENDMDL
MODEL 7
REMARK VINA RESULT:      -8.9      3.857      8.826
REMARK  6 active torsions:
REMARK  status: ('A' for Active; 'I' for Inactive)
REMARK    1  A    between atoms: C2_2  and  C3_3 
REMARK    2  A    between atoms: C8_10  and  C9_11 
REMARK    3  A    between atoms: C18_21  and  N3_22 
REMARK    4  A    between atoms: C19_23  and  C20_24 
REMARK    5  A    between atoms: C20_24  and  C21_25 
REMARK    6  A    between atoms: C21_25  and  O3_27 
ROOT
HETATM    1  C3  UNL     1      19.935   1.023  51.620  1.00  0.00     0.026 C 
HETATM    2  C4  UNL     1      21.167   1.373  51.331  1.00  0.00     0.043 A 
HETATM    3  C5  UNL     1      21.670   2.290  50.318  1.00  0.00     0.256 A 
HETATM    4  O1  UNL     1      21.030   2.969  49.482  1.00  0.00    -0.267 OA
HETATM    5  N1  UNL     1      23.089   2.378  50.339  1.00  0.00    -0.322 N 
HETATM    6  C6  UNL     1      23.450   1.493  51.387  1.00  0.00     0.047 A 
HETATM    7  C7  UNL     1      24.687   1.135  51.905  1.00  0.00     0.042 A 
HETATM    8  C8  UNL     1      24.924   0.254  52.937  1.00  0.00    -0.024 A 
HETATM    9  C15 UNL     1      23.827  -0.337  53.524  1.00  0.00     0.013 A 
HETATM   10  C16 UNL     1      22.575  -0.014  53.045  1.00  0.00     0.015 A 
HETATM   11  C17 UNL     1      22.372   0.887  51.990  1.00  0.00     0.006 A 
HETATM   12  H5  UNL     1      23.747   2.933  49.756  1.00  0.00     0.169 HD
ENDROOT
BRANCH   1  13
HETATM   13  C2  UNL     1      18.583   1.288  51.190  1.00  0.00     0.075 A 
HETATM   14  C1  UNL     1      18.026   2.682  51.442  1.00  0.00     0.048 C 
HETATM   15  N2  UNL     1      18.404   0.988  49.769  1.00  0.00    -0.360 N 
HETATM   16  C18 UNL     1      17.427  -0.015  49.994  1.00  0.00     0.101 A 
HETATM   17  H14 UNL     1      18.764   1.289  48.816  1.00  0.00     0.162 HD
HETATM   18  C19 UNL     1      17.557   0.223  51.311  1.00  0.00     0.004 A 
BRANCH  16  19
HETATM   19  N3  UNL     1      16.608  -0.931  49.284  1.00  0.00    -0.385 N 
HETATM   20  H15 UNL     1      15.710  -1.247  49.677  1.00  0.00     0.157 HD
HETATM   21  H16 UNL     1      17.142  -1.131  48.394  1.00  0.00     0.157 HD
ENDBRANCH  16  19
BRANCH  18  22
HETATM   22  C20 UNL     1      17.007  -0.234  52.637  1.00  0.00     0.150 C 
BRANCH  22  23
HETATM   23  C21 UNL     1      17.666  -1.488  53.089  1.00  0.00     0.143 C 
HETATM   24  O2  UNL     1      17.434  -2.741  53.008  1.00  0.00    -0.650 OA
BRANCH  23  25
HETATM   25  O3  UNL     1      18.845  -1.247  53.785  1.00  0.00    -0.776 OA
HETATM   26  H19 UNL     1      19.766  -1.164  53.331  1.00  0.00     0.167 HD
ENDBRANCH  23  25
ENDBRANCH  22  23
ENDBRANCH  18  22
ENDBRANCH   1  13
BRANCH   8  27
HETATM   27  C9  UNL     1      26.286  -0.028  53.376  1.00  0.00    -0.026 A 
HETATM   28  C10 UNL     1      27.067  -0.981  52.712  1.00  0.00     0.012 A 
HETATM   29  C11 UNL     1      28.368  -1.311  53.060  1.00  0.00     0.001 A 
HETATM   30  C12 UNL     1      28.926  -0.650  54.136  1.00  0.00     0.000 A 
HETATM   31  C13 UNL     1      28.164   0.290  54.797  1.00  0.00     0.001 A 
HETATM   32  C14 UNL     1      26.884   0.616  54.458  1.00  0.00     0.012 A 
ENDBRANCH   8  27
TORSDOF 6
ENDMDL
MODEL 8
REMARK VINA RESULT:      -8.7      1.708      2.035
REMARK  6 active torsions:
REMARK  status: ('A' for Active; 'I' for Inactive)
REMARK    1  A    between atoms: C2_2  and  C3_3 
REMARK    2  A    between atoms: C8_10  and  C9_11 
REMARK    3  A    between atoms: C18_21  and  N3_22 
REMARK    4  A    between atoms: C19_23  and  C20_24 
REMARK    5  A    between atoms: C20_24  and  C21_25 
REMARK    6  A    between atoms: C21_25  and  O3_27 
ROOT
HETATM    1  C3  UNL     1      24.702   0.712  52.622  1.00  0.00     0.026 C 
HETATM    2  C4  UNL     1      23.612   1.432  52.494  1.00  0.00     0.043 A 
HETATM    3  C5  UNL     1      23.443   2.875  52.402  1.00  0.00     0.256 A 
HETATM    4  O1  UNL     1      24.317   3.773  52.417  1.00  0.00    -0.267 OA
HETATM    5  N1  UNL     1      22.076   3.244  52.276  1.00  0.00    -0.322 N 
HETATM    6  C6  UNL     1      21.404   1.995  52.295  1.00  0.00     0.047 A 
HETATM    7  C7  UNL     1      20.057   1.673  52.210  1.00  0.00     0.042 A 
HETATM    8  C8  UNL     1      19.508   0.410  52.240  1.00  0.00    -0.024 A 
HETATM    9  C15 UNL     1      20.378  -0.651  52.365  1.00  0.00     0.013 A 
HETATM   10  C16 UNL     1      21.728  -0.383  52.453  1.00  0.00     0.015 A 
HETATM   11  C17 UNL     1      22.250   0.918  52.420  1.00  0.00     0.006 A 
HETATM   12  H5  UNL     1      21.627   4.177  52.190  1.00  0.00     0.169 HD
ENDROOT
BRANCH   1  13
HETATM   13  C2  UNL     1      26.132   0.884  52.728  1.00  0.00     0.075 A 
HETATM   14  C1  UNL     1      26.844   1.565  51.569  1.00  0.00     0.048 C 
HETATM   15  N2  UNL     1      26.496   1.595  53.954  1.00  0.00    -0.360 N 
HETATM   16  C18 UNL     1      27.257   0.519  54.478  1.00  0.00     0.101 A 
HETATM   17  H14 UNL     1      26.350   2.532  54.432  1.00  0.00     0.162 HD
HETATM   18  C19 UNL     1      26.948  -0.175  53.369  1.00  0.00     0.004 A 
BRANCH  16  19
HETATM   19  N3  UNL     1      28.034   0.172  55.614  1.00  0.00    -0.385 N 
HETATM   20  H15 UNL     1      27.732  -0.581  56.247  1.00  0.00     0.157 HD
HETATM   21  H16 UNL     1      28.860   0.831  55.582  1.00  0.00     0.157 HD
ENDBRANCH  16  19
BRANCH  18  22
HETATM   22  C20 UNL     1      27.193  -1.517  52.730  1.00  0.00     0.150 C 
BRANCH  22  23
HETATM   23  C21 UNL     1      28.521  -2.063  53.115  1.00  0.00     0.143 C 
HETATM   24  O2  UNL     1      29.683  -1.594  53.362  1.00  0.00    -0.650 OA
BRANCH  23  25
HETATM   25  O3  UNL     1      28.509  -3.448  53.246  1.00  0.00    -0.776 OA
HETATM   26  H19 UNL     1      29.343  -4.038  53.120  1.00  0.00     0.167 HD
ENDBRANCH  23  25
ENDBRANCH  22  23
ENDBRANCH  18  22
ENDBRANCH   1  13
BRANCH   8  27
HETATM   27  C9  UNL     1      18.065   0.223  52.141  1.00  0.00    -0.026 A 
HETATM   28  C10 UNL     1      17.263   1.182  51.511  1.00  0.00     0.012 A 
HETATM   29  C11 UNL     1      15.887   1.086  51.372  1.00  0.00     0.001 A 
HETATM   30  C12 UNL     1      15.271  -0.035  51.892  1.00  0.00     0.000 A 
HETATM   31  C13 UNL     1      16.053  -0.985  52.514  1.00  0.00     0.001 A 
HETATM   32  C14 UNL     1      17.407  -0.893  52.653  1.00  0.00     0.012 A 
ENDBRANCH   8  27
TORSDOF 6
ENDMDL
MODEL 9
REMARK VINA RESULT:      -8.6      4.800      9.550
REMARK  6 active torsions:
REMARK  status: ('A' for Active; 'I' for Inactive)
REMARK    1  A    between atoms: C2_2  and  C3_3 
REMARK    2  A    between atoms: C8_10  and  C9_11 
REMARK    3  A    between atoms: C18_21  and  N3_22 
REMARK    4  A    between atoms: C19_23  and  C20_24 
REMARK    5  A    between atoms: C20_24  and  C21_25 
REMARK    6  A    between atoms: C21_25  and  O3_27 
ROOT
HETATM    1  C3  UNL     1      17.511  -0.157  52.022  1.00  0.00     0.026 C 
HETATM    2  C4  UNL     1      18.613   0.321  51.495  1.00  0.00     0.043 A 
HETATM    3  C5  UNL     1      18.817   1.082  50.270  1.00  0.00     0.256 A 
HETATM    4  O1  UNL     1      17.969   1.464  49.430  1.00  0.00    -0.267 OA
HETATM    5  N1  UNL     1      20.187   1.402  50.064  1.00  0.00    -0.322 N 
HETATM    6  C6  UNL     1      20.824   0.820  51.190  1.00  0.00     0.047 A 
HETATM    7  C7  UNL     1      22.157   0.781  51.574  1.00  0.00     0.042 A 
HETATM    8  C8  UNL     1      22.672   0.179  52.701  1.00  0.00    -0.024 A 
HETATM    9  C15 UNL     1      21.780  -0.451  53.541  1.00  0.00     0.013 A 
HETATM   10  C16 UNL     1      20.444  -0.439  53.202  1.00  0.00     0.015 A 
HETATM   11  C17 UNL     1      19.956   0.183  52.045  1.00  0.00     0.006 A 
HETATM   12  H5  UNL     1      20.657   1.927  49.300  1.00  0.00     0.169 HD
ENDROOT
BRANCH   1  13
HETATM   13  C2  UNL     1      16.093  -0.209  51.756  1.00  0.00     0.075 A 
HETATM   14  C1  UNL     1      15.640  -0.944  50.504  1.00  0.00     0.048 C 
HETATM   15  N2  UNL     1      15.356  -0.767  52.891  1.00  0.00    -0.360 N 
HETATM   16  C18 UNL     1      14.595   0.410  53.113  1.00  0.00     0.101 A 
HETATM   17  H14 UNL     1      15.280  -1.661  53.460  1.00  0.00     0.162 HD
HETATM   18  C19 UNL     1      15.247   0.966  52.077  1.00  0.00     0.004 A 
BRANCH  16  19
HETATM   19  N3  UNL     1      13.590   0.924  53.973  1.00  0.00    -0.385 N 
HETATM   20  H15 UNL     1      13.834   1.303  54.898  1.00  0.00     0.157 HD
HETATM   21  H16 UNL     1      12.690   0.801  53.432  1.00  0.00     0.157 HD
ENDBRANCH  16  19
BRANCH  18  22
HETATM   22  C20 UNL     1      15.309   2.254  51.297  1.00  0.00     0.150 C 
BRANCH  22  23
HETATM   23  C21 UNL     1      15.939   3.338  52.096  1.00  0.00     0.143 C 
HETATM   24  O2  UNL     1      17.056   3.958  52.104  1.00  0.00    -0.650 OA
BRANCH  23  25
HETATM   25  O3  UNL     1      15.104   3.812  53.102  1.00  0.00    -0.776 OA
HETATM   26  H19 UNL     1      15.416   4.453  53.845  1.00  0.00     0.167 HD
ENDBRANCH  23  25
ENDBRANCH  22  23
ENDBRANCH  18  22
ENDBRANCH   1  13
BRANCH   8  27
HETATM   27  C9  UNL     1      24.104   0.218  52.977  1.00  0.00    -0.026 A 
HETATM   28  C10 UNL     1      24.971   0.940  52.148  1.00  0.00     0.012 A 
HETATM   29  C11 UNL     1      26.342   1.032  52.336  1.00  0.00     0.001 A 
HETATM   30  C12 UNL     1      26.882   0.364  53.416  1.00  0.00     0.000 A 
HETATM   31  C13 UNL     1      26.036  -0.350  54.238  1.00  0.00     0.001 A 
HETATM   32  C14 UNL     1      24.688  -0.443  54.056  1.00  0.00     0.012 A 
ENDBRANCH   8  27
TORSDOF 6
ENDMDL
