MODEL 1
REMARK VINA RESULT:      -8.6      0.000      0.000
REMARK  6 active torsions:
REMARK  status: ('A' for Active; 'I' for Inactive)
REMARK    1  A    between atoms: O1_1  and  C1_2 
REMARK    2  A    between atoms: C1_2  and  C2_3 
REMARK    3  A    between atoms: C8_9  and  C9_10 
REMARK    4  A    between atoms: C9_10  and  C10_11 
REMARK    5  A    between atoms: C13_15  and  C14_16 
REMARK    6  A    between atoms: C14_16  and  C15_17 
ROOT
HETATM    1  C10 UNL     1      24.055   2.732  51.616  1.00  0.00     0.043 A 
HETATM    2 BR1  UNL     1      23.413   4.496  51.110  1.00  0.00    -0.080 Br
HETATM    3  C11 UNL     1      24.358   2.634  53.058  1.00  0.00    -0.005 A 
HETATM    4  C12 UNL     1      25.522   2.391  53.683  1.00  0.00     0.005 A 
HETATM    5  C13 UNL     1      26.746   2.175  52.912  1.00  0.00    -0.058 A 
HETATM    6  C20 UNL     1      26.517   2.255  51.611  1.00  0.00    -0.018 A 
HETATM    7  C21 UNL     1      25.324   2.509  50.786  1.00  0.00     0.053 A 
ENDROOT
BRANCH   1   8
HETATM    8  C9  UNL     1      23.108   1.661  51.199  1.00  0.00     0.065 C 
BRANCH   8   9
HETATM    9  C8  UNL     1      22.548   0.797  52.219  1.00  0.00    -0.046 C 
HETATM   10  C3  UNL     1      21.105   1.013  52.475  1.00  0.00    -0.031 C 
HETATM   11  C2  UNL     1      20.420   1.927  51.831  1.00  0.00     0.011 C 
HETATM   12  C4  UNL     1      20.417   0.198  53.465  1.00  0.00     0.024 C 
HETATM   13  C5  UNL     1      21.016  -0.907  53.832  1.00  0.00    -0.025 C 
HETATM   14  C6  UNL     1      22.327  -0.957  53.945  1.00  0.00     0.013 C 
HETATM   15  C7  UNL     1      23.053  -0.166  52.968  1.00  0.00     0.009 C 
BRANCH  11  16
HETATM   16  C1  UNL     1      19.003   2.256  51.971  1.00  0.00     0.192 C 
BRANCH  16  17
HETATM   17  O1  UNL     1      18.903   3.664  52.066  1.00  0.00    -0.397 OA
HETATM   18  H1  UNL     1      19.580   4.068  51.481  1.00  0.00     0.209 HD
ENDBRANCH  16  17
ENDBRANCH  11  16
ENDBRANCH   8   9
ENDBRANCH   1   8
BRANCH   5  19
HETATM   19  C14 UNL     1      28.084   1.901  53.454  1.00  0.00     0.078 C 
BRANCH  19  20
HETATM   20  C15 UNL     1      28.459   0.476  53.429  1.00  0.00    -0.036 A 
HETATM   21  C16 UNL     1      29.780   0.118  53.651  1.00  0.00     0.010 A 
HETATM   22  C17 UNL     1      30.142  -1.220  53.628  1.00  0.00     0.020 A 
HETATM   23  C18 UNL     1      29.213  -2.223  53.388  1.00  0.00     0.116 A 
HETATM   24  N1  UNL     1      27.920  -1.853  53.172  1.00  0.00    -0.273 NA
HETATM   25  C19 UNL     1      27.570  -0.543  53.195  1.00  0.00     0.123 A 
ENDBRANCH  19  20
ENDBRANCH   5  19
TORSDOF 6
ENDMDL
MODEL 2
REMARK VINA RESULT:      -8.5      2.040      3.005
REMARK  6 active torsions:
REMARK  status: ('A' for Active; 'I' for Inactive)
REMARK    1  A    between atoms: O1_1  and  C1_2 
REMARK    2  A    between atoms: C1_2  and  C2_3 
REMARK    3  A    between atoms: C8_9  and  C9_10 
REMARK    4  A    between atoms: C9_10  and  C10_11 
REMARK    5  A    between atoms: C13_15  and  C14_16 
REMARK    6  A    between atoms: C14_16  and  C15_17 
ROOT
HETATM    1  C10 UNL     1      21.195   2.547  51.643  1.00  0.00     0.043 A 
HETATM    2 BR1  UNL     1      20.019   3.309  50.296  1.00  0.00    -0.080 Br
HETATM    3  C11 UNL     1      22.184   3.521  52.146  1.00  0.00    -0.005 A 
HETATM    4  C12 UNL     1      23.525   3.508  52.075  1.00  0.00     0.005 A 
HETATM    5  C13 UNL     1      24.222   2.403  51.417  1.00  0.00    -0.058 A 
HETATM    6  C20 UNL     1      23.370   1.504  50.951  1.00  0.00    -0.018 A 
HETATM    7  C21 UNL     1      21.902   1.377  50.949  1.00  0.00     0.053 A 
ENDROOT
BRANCH   1   8
HETATM    8  C9  UNL     1      20.427   1.942  52.767  1.00  0.00     0.065 C 
BRANCH   8   9
HETATM    9  C8  UNL     1      20.962   0.760  53.413  1.00  0.00    -0.046 C 
HETATM   10  C3  UNL     1      20.042  -0.402  53.415  1.00  0.00    -0.031 C 
HETATM   11  C2  UNL     1      18.844  -0.333  52.886  1.00  0.00     0.011 C 
HETATM   12  C4  UNL     1      20.465  -1.656  54.018  1.00  0.00     0.024 C 
HETATM   13  C5  UNL     1      21.750  -1.805  54.221  1.00  0.00    -0.025 C 
HETATM   14  C6  UNL     1      22.498  -0.782  54.581  1.00  0.00     0.013 C 
HETATM   15  C7  UNL     1      22.117   0.488  53.993  1.00  0.00     0.009 C 
BRANCH  11  16
HETATM   16  C1  UNL     1      17.831  -1.384  52.811  1.00  0.00     0.192 C 
BRANCH  16  17
HETATM   17  O1  UNL     1      17.043  -1.295  53.982  1.00  0.00    -0.397 OA
HETATM   18  H1  UNL     1      16.272  -0.715  53.800  1.00  0.00     0.209 HD
ENDBRANCH  16  17
ENDBRANCH  11  16
ENDBRANCH   8   9
ENDBRANCH   1   8
BRANCH   5  19
HETATM   19  C14 UNL     1      25.675   2.253  51.263  1.00  0.00     0.078 C 
BRANCH  19  20
HETATM   20  C15 UNL     1      26.315   1.485  52.346  1.00  0.00    -0.036 A 
HETATM   21  C16 UNL     1      26.713   0.178  52.107  1.00  0.00     0.010 A 
HETATM   22  C17 UNL     1      27.315  -0.552  53.120  1.00  0.00     0.020 A 
HETATM   23  C18 UNL     1      27.535  -0.011  54.378  1.00  0.00     0.116 A 
HETATM   24  N1  UNL     1      27.138   1.275  54.595  1.00  0.00    -0.273 NA
HETATM   25  C19 UNL     1      26.549   1.985  53.602  1.00  0.00     0.123 A 
ENDBRANCH  19  20
ENDBRANCH   5  19
TORSDOF 6
ENDMDL
MODEL 3
REMARK VINA RESULT:      -8.4      3.356      6.417
REMARK  6 active torsions:
REMARK  status: ('A' for Active; 'I' for Inactive)
REMARK    1  A    between atoms: O1_1  and  C1_2 
REMARK    2  A    between atoms: C1_2  and  C2_3 
REMARK    3  A    between atoms: C8_9  and  C9_10 
REMARK    4  A    between atoms: C9_10  and  C10_11 
REMARK    5  A    between atoms: C13_15  and  C14_16 
REMARK    6  A    between atoms: C14_16  and  C15_17 
ROOT
HETATM    1  C10 UNL     1      26.576   1.879  52.316  1.00  0.00     0.043 A 
HETATM    2 BR1  UNL     1      28.236   2.225  53.268  1.00  0.00    -0.080 Br
HETATM    3  C11 UNL     1      25.391   2.351  53.059  1.00  0.00    -0.005 A 
HETATM    4  C12 UNL     1      24.350   1.663  53.556  1.00  0.00     0.005 A 
HETATM    5  C13 UNL     1      24.278   0.211  53.396  1.00  0.00    -0.058 A 
HETATM    6  C20 UNL     1      25.325  -0.254  52.733  1.00  0.00    -0.018 A 
HETATM    7  C21 UNL     1      26.523   0.358  52.134  1.00  0.00     0.053 A 
ENDROOT
BRANCH   1   8
HETATM    8  C9  UNL     1      26.602   2.448  50.940  1.00  0.00     0.065 C 
BRANCH   8   9
HETATM    9  C8  UNL     1      25.363   2.942  50.373  1.00  0.00    -0.046 C 
HETATM   10  C3  UNL     1      25.512   4.173  49.562  1.00  0.00    -0.031 C 
HETATM   11  C2  UNL     1      26.677   4.754  49.400  1.00  0.00     0.011 C 
HETATM   12  C4  UNL     1      24.346   4.762  48.923  1.00  0.00     0.024 C 
HETATM   13  C5  UNL     1      23.290   3.997  48.810  1.00  0.00    -0.025 C 
HETATM   14  C6  UNL     1      22.979   3.135  49.756  1.00  0.00     0.013 C 
HETATM   15  C7  UNL     1      24.114   2.514  50.412  1.00  0.00     0.009 C 
BRANCH  11  16
HETATM   16  C1  UNL     1      26.982   5.962  48.636  1.00  0.00     0.192 C 
BRANCH  16  17
HETATM   17  O1  UNL     1      27.113   7.025  49.559  1.00  0.00    -0.397 OA
HETATM   18  H1  UNL     1      27.038   7.875  49.073  1.00  0.00     0.209 HD
ENDBRANCH  16  17
ENDBRANCH  11  16
ENDBRANCH   8   9
ENDBRANCH   1   8
BRANCH   5  19
HETATM   19  C14 UNL     1      23.209  -0.671  53.883  1.00  0.00     0.078 C 
BRANCH  19  20
HETATM   20  C15 UNL     1      21.893  -0.409  53.273  1.00  0.00    -0.036 A 
HETATM   21  C16 UNL     1      21.831   0.046  51.965  1.00  0.00     0.010 A 
HETATM   22  C17 UNL     1      20.597   0.296  51.383  1.00  0.00     0.020 A 
HETATM   23  C18 UNL     1      19.411   0.102  52.076  1.00  0.00     0.116 A 
HETATM   24  N1  UNL     1      19.491  -0.346  53.361  1.00  0.00    -0.273 NA
HETATM   25  C19 UNL     1      20.700  -0.589  53.926  1.00  0.00     0.123 A 
ENDBRANCH  19  20
ENDBRANCH   5  19
TORSDOF 6
ENDMDL
MODEL 4
REMARK VINA RESULT:      -8.1      3.539      5.554
REMARK  6 active torsions:
REMARK  status: ('A' for Active; 'I' for Inactive)
REMARK    1  A    between atoms: O1_1  and  C1_2 
REMARK    2  A    between atoms: C1_2  and  C2_3 
REMARK    3  A    between atoms: C8_9  and  C9_10 
REMARK    4  A    between atoms: C9_10  and  C10_11 
REMARK    5  A    between atoms: C13_15  and  C14_16 
REMARK    6  A    between atoms: C14_16  and  C15_17 
ROOT
HETATM    1  C10 UNL     1      23.310   3.413  50.861  1.00  0.00     0.043 A 
HETATM    2 BR1  UNL     1      21.938   4.754  51.177  1.00  0.00    -0.080 Br
HETATM    3  C11 UNL     1      22.761   2.043  50.811  1.00  0.00    -0.005 A 
HETATM    4  C12 UNL     1      22.997   0.986  51.604  1.00  0.00     0.005 A 
HETATM    5  C13 UNL     1      23.929   1.096  52.727  1.00  0.00    -0.058 A 
HETATM    6  C20 UNL     1      24.446   2.311  52.807  1.00  0.00    -0.018 A 
HETATM    7  C21 UNL     1      24.291   3.553  52.030  1.00  0.00     0.053 A 
ENDROOT
BRANCH   1   8
HETATM    8  C9  UNL     1      24.101   3.713  49.635  1.00  0.00     0.065 C 
BRANCH   8   9
HETATM    9  C8  UNL     1      23.582   4.693  48.701  1.00  0.00    -0.046 C 
HETATM   10  C3  UNL     1      24.333   5.970  48.680  1.00  0.00    -0.031 C 
HETATM   11  C2  UNL     1      25.365   6.176  49.463  1.00  0.00     0.011 C 
HETATM   12  C4  UNL     1      23.925   7.032  47.773  1.00  0.00     0.024 C 
HETATM   13  C5  UNL     1      23.137   6.689  46.785  1.00  0.00    -0.025 C 
HETATM   14  C6  UNL     1      22.210   5.770  46.952  1.00  0.00     0.013 C 
HETATM   15  C7  UNL     1      22.580   4.684  47.841  1.00  0.00     0.009 C 
BRANCH  11  16
HETATM   16  C1  UNL     1      26.199   7.373  49.557  1.00  0.00     0.192 C 
BRANCH  16  17
HETATM   17  O1  UNL     1      26.326   7.693  50.928  1.00  0.00    -0.397 OA
HETATM   18  H1  UNL     1      26.863   6.998  51.366  1.00  0.00     0.209 HD
ENDBRANCH  16  17
ENDBRANCH  11  16
ENDBRANCH   8   9
ENDBRANCH   1   8
BRANCH   5  19
HETATM   19  C14 UNL     1      24.286   0.032  53.675  1.00  0.00     0.078 C 
BRANCH  19  20
HETATM   20  C15 UNL     1      25.736  -0.202  53.793  1.00  0.00    -0.036 A 
HETATM   21  C16 UNL     1      26.417  -0.789  52.737  1.00  0.00     0.010 A 
HETATM   22  C17 UNL     1      27.781  -1.014  52.840  1.00  0.00     0.020 A 
HETATM   23  C18 UNL     1      28.494  -0.665  53.979  1.00  0.00     0.116 A 
HETATM   24  N1  UNL     1      27.809  -0.089  55.006  1.00  0.00    -0.273 NA
HETATM   25  C19 UNL     1      26.474   0.128  54.902  1.00  0.00     0.123 A 
ENDBRANCH  19  20
ENDBRANCH   5  19
TORSDOF 6
ENDMDL
MODEL 5
REMARK VINA RESULT:      -8.1      2.853      6.915
REMARK  6 active torsions:
REMARK  status: ('A' for Active; 'I' for Inactive)
REMARK    1  A    between atoms: O1_1  and  C1_2 
REMARK    2  A    between atoms: C1_2  and  C2_3 
REMARK    3  A    between atoms: C8_9  and  C9_10 
REMARK    4  A    between atoms: C9_10  and  C10_11 
REMARK    5  A    between atoms: C13_15  and  C14_16 
REMARK    6  A    between atoms: C14_16  and  C15_17 
ROOT
HETATM    1  C10 UNL     1      23.127   2.934  51.456  1.00  0.00     0.043 A 
HETATM    2 BR1  UNL     1      24.010   4.387  50.513  1.00  0.00    -0.080 Br
HETATM    3  C11 UNL     1      22.967   1.730  50.617  1.00  0.00    -0.005 A 
HETATM    4  C12 UNL     1      21.852   1.109  50.198  1.00  0.00     0.005 A 
HETATM    5  C13 UNL     1      20.534   1.620  50.572  1.00  0.00    -0.058 A 
HETATM    6  C20 UNL     1      20.632   2.702  51.327  1.00  0.00    -0.018 A 
HETATM    7  C21 UNL     1      21.757   3.489  51.862  1.00  0.00     0.053 A 
ENDROOT
BRANCH   1   8
HETATM    8  C9  UNL     1      23.821   2.604  52.732  1.00  0.00     0.065 C 
BRANCH   8   9
HETATM    9  C8  UNL     1      24.796   1.532  52.731  1.00  0.00    -0.046 C 
HETATM   10  C3  UNL     1      24.305   0.262  53.317  1.00  0.00    -0.031 C 
HETATM   11  C2  UNL     1      23.093   0.152  53.804  1.00  0.00     0.011 C 
HETATM   12  C4  UNL     1      25.181  -0.898  53.361  1.00  0.00     0.024 C 
HETATM   13  C5  UNL     1      26.230  -0.871  52.578  1.00  0.00    -0.025 C 
HETATM   14  C6  UNL     1      26.878   0.255  52.360  1.00  0.00     0.013 C 
HETATM   15  C7  UNL     1      26.040   1.438  52.297  1.00  0.00     0.009 C 
BRANCH  11  16
HETATM   16  C1  UNL     1      22.469  -1.024  54.409  1.00  0.00     0.192 C 
BRANCH  16  17
HETATM   17  O1  UNL     1      21.295  -0.588  55.067  1.00  0.00    -0.397 OA
HETATM   18  H1  UNL     1      20.654  -0.276  54.392  1.00  0.00     0.209 HD
ENDBRANCH  16  17
ENDBRANCH  11  16
ENDBRANCH   8   9
ENDBRANCH   1   8
BRANCH   5  19
HETATM   19  C14 UNL     1      19.234   1.050  50.192  1.00  0.00     0.078 C 
BRANCH  19  20
HETATM   20  C15 UNL     1      18.627   0.199  51.230  1.00  0.00    -0.036 A 
HETATM   21  C16 UNL     1      17.324  -0.247  51.065  1.00  0.00     0.010 A 
HETATM   22  C17 UNL     1      16.745  -1.048  52.037  1.00  0.00     0.020 A 
HETATM   23  C18 UNL     1      17.435  -1.421  53.182  1.00  0.00     0.116 A 
HETATM   24  N1  UNL     1      18.714  -0.974  53.327  1.00  0.00    -0.273 NA
HETATM   25  C19 UNL     1      19.277  -0.191  52.374  1.00  0.00     0.123 A 
ENDBRANCH  19  20
ENDBRANCH   5  19
TORSDOF 6
ENDMDL
MODEL 6
REMARK VINA RESULT:      -8.0      2.810      4.998
REMARK  6 active torsions:
REMARK  status: ('A' for Active; 'I' for Inactive)
REMARK    1  A    between atoms: O1_1  and  C1_2 
REMARK    2  A    between atoms: C1_2  and  C2_3 
REMARK    3  A    between atoms: C8_9  and  C9_10 
REMARK    4  A    between atoms: C9_10  and  C10_11 
REMARK    5  A    between atoms: C13_15  and  C14_16 
REMARK    6  A    between atoms: C14_16  and  C15_17 
ROOT
HETATM    1  C10 UNL     1      23.221   3.167  51.202  1.00  0.00     0.043 A 
HETATM    2 BR1  UNL     1      22.311   4.715  51.947  1.00  0.00    -0.080 Br
HETATM    3  C11 UNL     1      22.479   1.911  51.430  1.00  0.00    -0.005 A 
HETATM    4  C12 UNL     1      22.824   0.816  52.126  1.00  0.00     0.005 A 
HETATM    5  C13 UNL     1      24.117   0.747  52.807  1.00  0.00    -0.058 A 
HETATM    6  C20 UNL     1      24.816   1.856  52.627  1.00  0.00    -0.018 A 
HETATM    7  C21 UNL     1      24.581   3.119  51.906  1.00  0.00     0.053 A 
ENDROOT
BRANCH   1   8
HETATM    8  C9  UNL     1      23.523   3.350  49.755  1.00  0.00     0.065 C 
BRANCH   8   9
HETATM    9  C8  UNL     1      24.776   3.980  49.386  1.00  0.00    -0.046 C 
HETATM   10  C3  UNL     1      24.639   5.379  48.918  1.00  0.00    -0.031 C 
HETATM   11  C2  UNL     1      23.470   5.968  48.838  1.00  0.00     0.011 C 
HETATM   12  C4  UNL     1      25.824   6.131  48.532  1.00  0.00     0.024 C 
HETATM   13  C5  UNL     1      26.975   5.659  48.939  1.00  0.00    -0.025 C 
HETATM   14  C6  UNL     1      27.186   4.360  49.001  1.00  0.00     0.013 C 
HETATM   15  C7  UNL     1      26.032   3.573  49.394  1.00  0.00     0.009 C 
BRANCH  11  16
HETATM   16  C1  UNL     1      23.176   7.331  48.399  1.00  0.00     0.192 C 
BRANCH  16  17
HETATM   17  O1  UNL     1      22.814   8.076  49.545  1.00  0.00    -0.397 OA
HETATM   18  H1  UNL     1      22.727   9.020  49.292  1.00  0.00     0.209 HD
ENDBRANCH  16  17
ENDBRANCH  11  16
ENDBRANCH   8   9
ENDBRANCH   1   8
BRANCH   5  19
HETATM   19  C14 UNL     1      24.629  -0.378  53.600  1.00  0.00     0.078 C 
BRANCH  19  20
HETATM   20  C15 UNL     1      26.081  -0.326  53.844  1.00  0.00    -0.036 A 
HETATM   21  C16 UNL     1      26.943  -0.922  52.935  1.00  0.00     0.010 A 
HETATM   22  C17 UNL     1      28.311  -0.878  53.156  1.00  0.00     0.020 A 
HETATM   23  C18 UNL     1      28.851  -0.251  54.270  1.00  0.00     0.116 A 
HETATM   24  N1  UNL     1      27.989   0.330  55.152  1.00  0.00    -0.273 NA
HETATM   25  C19 UNL     1      26.652   0.284  54.932  1.00  0.00     0.123 A 
ENDBRANCH  19  20
ENDBRANCH   5  19
TORSDOF 6
ENDMDL
MODEL 7
REMARK VINA RESULT:      -8.0      3.804      7.360
REMARK  6 active torsions:
REMARK  status: ('A' for Active; 'I' for Inactive)
REMARK    1  A    between atoms: O1_1  and  C1_2 
REMARK    2  A    between atoms: C1_2  and  C2_3 
REMARK    3  A    between atoms: C8_9  and  C9_10 
REMARK    4  A    between atoms: C9_10  and  C10_11 
REMARK    5  A    between atoms: C13_15  and  C14_16 
REMARK    6  A    between atoms: C14_16  and  C15_17 
ROOT
HETATM    1  C10 UNL     1      22.659   2.397  51.092  1.00  0.00     0.043 A 
HETATM    2 BR1  UNL     1      23.850   3.468  49.990  1.00  0.00    -0.080 Br
HETATM    3  C11 UNL     1      22.282   1.125  50.445  1.00  0.00    -0.005 A 
HETATM    4  C12 UNL     1      21.077   0.673  50.059  1.00  0.00     0.005 A 
HETATM    5  C13 UNL     1      19.880   1.490  50.263  1.00  0.00    -0.058 A 
HETATM    6  C20 UNL     1      20.175   2.642  50.842  1.00  0.00    -0.018 A 
HETATM    7  C21 UNL     1      21.420   3.270  51.317  1.00  0.00     0.053 A 
ENDROOT
BRANCH   1   8
HETATM    8  C9  UNL     1      23.232   2.155  52.446  1.00  0.00     0.065 C 
BRANCH   8   9
HETATM    9  C8  UNL     1      22.716   1.047  53.226  1.00  0.00    -0.046 C 
HETATM   10  C3  UNL     1      23.699  -0.033  53.475  1.00  0.00    -0.031 C 
HETATM   11  C2  UNL     1      24.922   0.027  53.003  1.00  0.00     0.011 C 
HETATM   12  C4  UNL     1      23.313  -1.194  54.260  1.00  0.00     0.024 C 
HETATM   13  C5  UNL     1      22.235  -1.074  54.993  1.00  0.00    -0.025 C 
HETATM   14  C6  UNL     1      21.204  -0.376  54.564  1.00  0.00     0.013 C 
HETATM   15  C7  UNL     1      21.545   0.799  53.785  1.00  0.00     0.009 C 
BRANCH  11  16
HETATM   16  C1  UNL     1      25.997  -0.951  53.161  1.00  0.00     0.192 C 
BRANCH  16  17
HETATM   17  O1  UNL     1      26.736  -0.585  54.310  1.00  0.00    -0.397 OA
HETATM   18  H1  UNL     1      26.590  -1.261  55.007  1.00  0.00     0.209 HD
ENDBRANCH  16  17
ENDBRANCH  11  16
ENDBRANCH   8   9
ENDBRANCH   1   8
BRANCH   5  19
HETATM   19  C14 UNL     1      18.504   1.131  49.894  1.00  0.00     0.078 C 
BRANCH  19  20
HETATM   20  C15 UNL     1      17.862   0.189  50.827  1.00  0.00    -0.036 A 
HETATM   21  C16 UNL     1      18.535  -0.190  51.979  1.00  0.00     0.010 A 
HETATM   22  C17 UNL     1      17.938  -1.077  52.862  1.00  0.00     0.020 A 
HETATM   23  C18 UNL     1      16.674  -1.602  52.627  1.00  0.00     0.116 A 
HETATM   24  N1  UNL     1      16.028  -1.218  51.491  1.00  0.00    -0.273 NA
HETATM   25  C19 UNL     1      16.616  -0.351  50.629  1.00  0.00     0.123 A 
ENDBRANCH  19  20
ENDBRANCH   5  19
TORSDOF 6
ENDMDL
MODEL 8
REMARK VINA RESULT:      -7.8      3.246      7.095
REMARK  6 active torsions:
REMARK  status: ('A' for Active; 'I' for Inactive)
REMARK    1  A    between atoms: O1_1  and  C1_2 
REMARK    2  A    between atoms: C1_2  and  C2_3 
REMARK    3  A    between atoms: C8_9  and  C9_10 
REMARK    4  A    between atoms: C9_10  and  C10_11 
REMARK    5  A    between atoms: C13_15  and  C14_16 
REMARK    6  A    between atoms: C14_16  and  C15_17 
ROOT
HETATM    1  C10 UNL     1      22.992   3.417  51.259  1.00  0.00     0.043 A 
HETATM    2 BR1  UNL     1      23.622   5.000  50.323  1.00  0.00    -0.080 Br
HETATM    3  C11 UNL     1      22.967   2.221  50.393  1.00  0.00    -0.005 A 
HETATM    4  C12 UNL     1      21.934   1.458  50.000  1.00  0.00     0.005 A 
HETATM    5  C13 UNL     1      20.574   1.769  50.440  1.00  0.00    -0.058 A 
HETATM    6  C20 UNL     1      20.551   2.837  51.220  1.00  0.00    -0.018 A 
HETATM    7  C21 UNL     1      21.576   3.763  51.733  1.00  0.00     0.053 A 
ENDROOT
BRANCH   1   8
HETATM    8  C9  UNL     1      23.778   3.160  52.497  1.00  0.00     0.065 C 
BRANCH   8   9
HETATM    9  C8  UNL     1      23.902   1.794  52.966  1.00  0.00    -0.046 C 
HETATM   10  C3  UNL     1      25.296   1.295  53.028  1.00  0.00    -0.031 C 
HETATM   11  C2  UNL     1      26.312   2.043  52.666  1.00  0.00     0.011 C 
HETATM   12  C4  UNL     1      25.560  -0.056  53.497  1.00  0.00     0.024 C 
HETATM   13  C5  UNL     1      24.598  -0.643  54.163  1.00  0.00    -0.025 C 
HETATM   14  C6  UNL     1      23.337  -0.448  53.836  1.00  0.00     0.013 C 
HETATM   15  C7  UNL     1      23.028   0.891  53.372  1.00  0.00     0.009 C 
BRANCH  11  16
HETATM   16  C1  UNL     1      27.732   1.696  52.670  1.00  0.00     0.192 C 
BRANCH  16  17
HETATM   17  O1  UNL     1      28.450   2.858  53.035  1.00  0.00    -0.397 OA
HETATM   18  H1  UNL     1      29.033   3.116  52.288  1.00  0.00     0.209 HD
ENDBRANCH  16  17
ENDBRANCH  11  16
ENDBRANCH   8   9
ENDBRANCH   1   8
BRANCH   5  19
HETATM   19  C14 UNL     1      19.352   1.030  50.094  1.00  0.00     0.078 C 
BRANCH  19  20
HETATM   20  C15 UNL     1      18.804   0.229  51.202  1.00  0.00    -0.036 A 
HETATM   21  C16 UNL     1      17.484  -0.192  51.146  1.00  0.00     0.010 A 
HETATM   22  C17 UNL     1      16.959  -0.945  52.185  1.00  0.00     0.020 A 
HETATM   23  C18 UNL     1      17.721  -1.295  53.291  1.00  0.00     0.116 A 
HETATM   24  N1  UNL     1      19.016  -0.873  53.328  1.00  0.00    -0.273 NA
HETATM   25  C19 UNL     1      19.525  -0.136  52.310  1.00  0.00     0.123 A 
ENDBRANCH  19  20
ENDBRANCH   5  19
TORSDOF 6
ENDMDL
MODEL 9
REMARK VINA RESULT:      -7.8      3.529      5.476
REMARK  6 active torsions:
REMARK  status: ('A' for Active; 'I' for Inactive)
REMARK    1  A    between atoms: O1_1  and  C1_2 
REMARK    2  A    between atoms: C1_2  and  C2_3 
REMARK    3  A    between atoms: C8_9  and  C9_10 
REMARK    4  A    between atoms: C9_10  and  C10_11 
REMARK    5  A    between atoms: C13_15  and  C14_16 
REMARK    6  A    between atoms: C14_16  and  C15_17 
ROOT
HETATM    1  C10 UNL     1      22.071   3.199  51.356  1.00  0.00     0.043 A 
HETATM    2 BR1  UNL     1      20.220   3.314  51.939  1.00  0.00    -0.080 Br
HETATM    3  C11 UNL     1      22.996   3.894  52.273  1.00  0.00    -0.005 A 
HETATM    4  C12 UNL     1      23.800   4.948  52.058  1.00  0.00     0.005 A 
HETATM    5  C13 UNL     1      23.845   5.589  50.744  1.00  0.00    -0.058 A 
HETATM    6  C20 UNL     1      23.028   4.995  49.889  1.00  0.00    -0.018 A 
HETATM    7  C21 UNL     1      22.101   3.853  49.970  1.00  0.00     0.053 A 
ENDROOT
BRANCH   1   8
HETATM    8  C9  UNL     1      22.495   1.787  51.144  1.00  0.00     0.065 C 
BRANCH   8   9
HETATM    9  C8  UNL     1      23.708   1.325  51.789  1.00  0.00    -0.046 C 
HETATM   10  C3  UNL     1      23.478   0.445  52.959  1.00  0.00    -0.031 C 
HETATM   11  C2  UNL     1      22.269   0.139  53.364  1.00  0.00     0.011 C 
HETATM   12  C4  UNL     1      24.614  -0.101  53.686  1.00  0.00     0.024 C 
HETATM   13  C5  UNL     1      25.771  -0.071  53.073  1.00  0.00    -0.025 C 
HETATM   14  C6  UNL     1      26.095   0.942  52.297  1.00  0.00     0.013 C 
HETATM   15  C7  UNL     1      24.992   1.510  51.544  1.00  0.00     0.009 C 
BRANCH  11  16
HETATM   16  C1  UNL     1      21.884  -0.708  54.491  1.00  0.00     0.192 C 
BRANCH  16  17
HETATM   17  O1  UNL     1      20.817  -0.066  55.159  1.00  0.00    -0.397 OA
HETATM   18  H1  UNL     1      20.141  -0.738  55.394  1.00  0.00     0.209 HD
ENDBRANCH  16  17
ENDBRANCH  11  16
ENDBRANCH   8   9
ENDBRANCH   1   8
BRANCH   5  19
HETATM   19  C14 UNL     1      24.669   6.743  50.361  1.00  0.00     0.078 C 
BRANCH  19  20
HETATM   20  C15 UNL     1      25.907   6.384  49.648  1.00  0.00    -0.036 A 
HETATM   21  C16 UNL     1      26.216   5.045  49.457  1.00  0.00     0.010 A 
HETATM   22  C17 UNL     1      27.379   4.697  48.788  1.00  0.00     0.020 A 
HETATM   23  C18 UNL     1      28.254   5.657  48.299  1.00  0.00     0.116 A 
HETATM   24  N1  UNL     1      27.935   6.967  48.496  1.00  0.00    -0.273 NA
HETATM   25  C19 UNL     1      26.796   7.303  49.151  1.00  0.00     0.123 A 
ENDBRANCH  19  20
ENDBRANCH   5  19
TORSDOF 6
ENDMDL
