MODEL 1
REMARK VINA RESULT:      -8.6      0.000      0.000
REMARK  6 active torsions:
REMARK  status: ('A' for Active; 'I' for Inactive)
REMARK    1  A    between atoms: C2_2  and  C3_3 
REMARK    2  A    between atoms: C8_8  and  C9_9 
REMARK    3  A    between atoms: C9_9  and  C10_11 
REMARK    4  A    between atoms: C11_12  and  C12_13 
REMARK    5  A    between atoms: C12_13  and  N1_14 
REMARK    6  A    between atoms: C15_17  and  N2_18 
ROOT
HETATM    1  C3  UNL     1      21.045   0.785  52.553  1.00  0.00    -0.042 A 
HETATM    2  C4  UNL     1      20.998   0.048  53.720  1.00  0.00     0.040 A 
HETATM    3  C5  UNL     1      22.217  -0.385  54.197  1.00  0.00     0.064 A 
HETATM    4  C6  UNL     1      23.418  -0.121  53.580  1.00  0.00     0.018 A 
HETATM    5  C7  UNL     1      23.443   0.616  52.419  1.00  0.00     0.032 A 
HETATM    6  C8  UNL     1      22.235   1.059  51.925  1.00  0.00     0.021 A 
HETATM    7  C15 UNL     1      24.419  -0.661  54.263  1.00  0.00     0.044 A 
HETATM    8  C21 UNL     1      23.822  -1.344  55.436  1.00  0.00     0.207 A 
HETATM    9  N3  UNL     1      22.409  -1.084  55.263  1.00  0.00    -0.283 NA
ENDROOT
BRANCH   6  10
HETATM   10  C9  UNL     1      22.343   1.835  50.707  1.00  0.00     0.182 C 
HETATM   11  O1  UNL     1      22.122   1.377  49.560  1.00  0.00    -0.288 OA
BRANCH  10  12
HETATM   12  C10 UNL     1      22.653   3.135  50.174  1.00  0.00     0.053 C 
HETATM   13  C11 UNL     1      23.948   3.214  49.820  1.00  0.00     0.007 C 
BRANCH  13  14
HETATM   14  C12 UNL     1      24.503   4.463  49.243  1.00  0.00     0.299 C 
BRANCH  14  15
HETATM   15  N1  UNL     1      25.823   4.764  49.752  1.00  0.00     0.083 N 
HETATM   16  C13 UNL     1      26.578   3.527  49.730  1.00  0.00     0.309 C 
HETATM   17  C14 UNL     1      26.481   5.722  48.881  1.00  0.00     0.309 C 
ENDBRANCH  14  15
ENDBRANCH  13  14
ENDBRANCH  10  12
ENDBRANCH   6  10
BRANCH   1  18
HETATM   18  C2  UNL     1      19.751   1.266  52.001  1.00  0.00     0.035 C 
HETATM   19  C1  UNL     1      18.953   0.141  51.431  1.00  0.00     0.010 C 
ENDBRANCH   1  18
BRANCH   7  20
HETATM   20  N2  UNL     1      25.823  -0.665  54.035  1.00  0.00    -0.351 N 
HETATM   21  C16 UNL     1      26.709   0.127  54.854  1.00  0.00     0.135 A 
HETATM   22  C17 UNL     1      28.001   0.128  54.658  1.00  0.00     0.153 A 
HETATM   23  F1  UNL     1      28.691   0.919  55.508  1.00  0.00    -0.203 F 
HETATM   24  C18 UNL     1      28.613  -0.667  53.601  1.00  0.00     0.071 A 
HETATM   25 CL1  UNL     1      30.350  -0.616  53.399  1.00  0.00    -0.081 Cl
HETATM   26  C19 UNL     1      27.801  -1.403  52.835  1.00  0.00     0.020 A 
HETATM   27  C20 UNL     1      26.340  -1.481  52.964  1.00  0.00     0.157 A 
ENDBRANCH   7  20
TORSDOF 6
ENDMDL
MODEL 2
REMARK VINA RESULT:      -8.1      3.315      6.254
REMARK  6 active torsions:
REMARK  status: ('A' for Active; 'I' for Inactive)
REMARK    1  A    between atoms: C2_2  and  C3_3 
REMARK    2  A    between atoms: C8_8  and  C9_9 
REMARK    3  A    between atoms: C9_9  and  C10_11 
REMARK    4  A    between atoms: C11_12  and  C12_13 
REMARK    5  A    between atoms: C12_13  and  N1_14 
REMARK    6  A    between atoms: C15_17  and  N2_18 
ROOT
HETATM    1  C3  UNL     1      22.478   0.069  52.703  1.00  0.00    -0.042 A 
HETATM    2  C4  UNL     1      21.372   0.639  52.104  1.00  0.00     0.040 A 
HETATM    3  C5  UNL     1      21.583   1.869  51.518  1.00  0.00     0.064 A 
HETATM    4  C6  UNL     1      22.797   2.515  51.510  1.00  0.00     0.018 A 
HETATM    5  C7  UNL     1      23.887   1.929  52.111  1.00  0.00     0.032 A 
HETATM    6  C8  UNL     1      23.699   0.700  52.703  1.00  0.00     0.021 A 
HETATM    7  C15 UNL     1      22.700   3.677  50.876  1.00  0.00     0.044 A 
HETATM    8  C21 UNL     1      21.294   3.807  50.426  1.00  0.00     0.207 A 
HETATM    9  N3  UNL     1      20.697   2.579  50.906  1.00  0.00    -0.283 NA
ENDROOT
BRANCH   6  10
HETATM   10  C9  UNL     1      24.892   0.144  53.306  1.00  0.00     0.182 C 
HETATM   11  O1  UNL     1      25.534  -0.825  52.832  1.00  0.00    -0.288 OA
BRANCH  10  12
HETATM   12  C10 UNL     1      25.804   0.261  54.413  1.00  0.00     0.053 C 
HETATM   13  C11 UNL     1      27.074   0.076  54.011  1.00  0.00     0.007 C 
BRANCH  13  14
HETATM   14  C12 UNL     1      28.195   0.149  54.981  1.00  0.00     0.299 C 
BRANCH  14  15
HETATM   15  N1  UNL     1      29.337   0.859  54.447  1.00  0.00     0.083 N 
HETATM   16  C13 UNL     1      29.950  -0.006  53.458  1.00  0.00     0.309 C 
HETATM   17  C14 UNL     1      28.897   2.075  53.786  1.00  0.00     0.309 C 
ENDBRANCH  14  15
ENDBRANCH  13  14
ENDBRANCH  10  12
ENDBRANCH   6  10
BRANCH   1  18
HETATM   18  C2  UNL     1      22.292  -1.255  53.353  1.00  0.00     0.035 C 
HETATM   19  C1  UNL     1      21.565  -1.125  54.650  1.00  0.00     0.010 C 
ENDBRANCH   1  18
BRANCH   7  20
HETATM   20  N2  UNL     1      23.663   4.688  50.608  1.00  0.00    -0.351 N 
HETATM   21  C16 UNL     1      24.738   4.459  49.672  1.00  0.00     0.135 A 
HETATM   22  C17 UNL     1      25.626   5.382  49.413  1.00  0.00     0.153 A 
HETATM   23  F1  UNL     1      26.566   5.013  48.516  1.00  0.00    -0.203 F 
HETATM   24  C18 UNL     1      25.580   6.688  50.058  1.00  0.00     0.071 A 
HETATM   25 CL1  UNL     1      26.803   7.873  49.662  1.00  0.00    -0.081 Cl
HETATM   26  C19 UNL     1      24.590   6.910  50.929  1.00  0.00     0.020 A 
HETATM   27  C20 UNL     1      23.540   5.950  51.295  1.00  0.00     0.157 A 
ENDBRANCH   7  20
TORSDOF 6
ENDMDL
MODEL 3
REMARK VINA RESULT:      -8.0      1.856      2.396
REMARK  6 active torsions:
REMARK  status: ('A' for Active; 'I' for Inactive)
REMARK    1  A    between atoms: C2_2  and  C3_3 
REMARK    2  A    between atoms: C8_8  and  C9_9 
REMARK    3  A    between atoms: C9_9  and  C10_11 
REMARK    4  A    between atoms: C11_12  and  C12_13 
REMARK    5  A    between atoms: C12_13  and  N1_14 
REMARK    6  A    between atoms: C15_17  and  N2_18 
ROOT
HETATM    1  C3  UNL     1      21.162   1.672  52.691  1.00  0.00    -0.042 A 
HETATM    2  C4  UNL     1      20.989   0.682  53.637  1.00  0.00     0.040 A 
HETATM    3  C5  UNL     1      22.139   0.029  54.029  1.00  0.00     0.064 A 
HETATM    4  C6  UNL     1      23.389   0.317  53.534  1.00  0.00     0.018 A 
HETATM    5  C7  UNL     1      23.539   1.309  52.592  1.00  0.00     0.032 A 
HETATM    6  C8  UNL     1      22.403   1.974  52.186  1.00  0.00     0.021 A 
HETATM    7  C15 UNL     1      24.302  -0.467  54.092  1.00  0.00     0.044 A 
HETATM    8  C21 UNL     1      23.586  -1.354  55.041  1.00  0.00     0.207 A 
HETATM    9  N3  UNL     1      22.212  -0.923  54.895  1.00  0.00    -0.283 NA
ENDROOT
BRANCH   6  10
HETATM   10  C9  UNL     1      22.643   3.008  51.202  1.00  0.00     0.182 C 
HETATM   11  O1  UNL     1      22.868   4.210  51.484  1.00  0.00    -0.288 OA
BRANCH  10  12
HETATM   12  C10 UNL     1      22.747   3.276  49.792  1.00  0.00     0.053 C 
HETATM   13  C11 UNL     1      22.214   2.274  49.070  1.00  0.00     0.007 C 
BRANCH  13  14
HETATM   14  C12 UNL     1      22.206   2.327  47.587  1.00  0.00     0.299 C 
BRANCH  14  15
HETATM   15  N1  UNL     1      21.489   3.478  47.084  1.00  0.00     0.083 N 
HETATM   16  C13 UNL     1      21.873   3.644  45.695  1.00  0.00     0.309 C 
HETATM   17  C14 UNL     1      20.058   3.231  47.140  1.00  0.00     0.309 C 
ENDBRANCH  14  15
ENDBRANCH  13  14
ENDBRANCH  10  12
ENDBRANCH   6  10
BRANCH   1  18
HETATM   18  C2  UNL     1      19.945   2.396  52.236  1.00  0.00     0.035 C 
HETATM   19  C1  UNL     1      19.165   1.583  51.257  1.00  0.00     0.010 C 
ENDBRANCH   1  18
BRANCH   7  20
HETATM   20  N2  UNL     1      25.710  -0.552  53.913  1.00  0.00    -0.351 N 
HETATM   21  C16 UNL     1      26.612   0.174  54.775  1.00  0.00     0.135 A 
HETATM   22  C17 UNL     1      27.907   0.101  54.624  1.00  0.00     0.153 A 
HETATM   23  F1  UNL     1      28.613   0.838  55.509  1.00  0.00    -0.203 F 
HETATM   24  C18 UNL     1      28.509  -0.715  53.577  1.00  0.00     0.071 A 
HETATM   25 CL1  UNL     1      30.252  -0.764  53.436  1.00  0.00    -0.081 Cl
HETATM   26  C19 UNL     1      27.683  -1.391  52.771  1.00  0.00     0.020 A 
HETATM   27  C20 UNL     1      26.216  -1.383  52.848  1.00  0.00     0.157 A 
ENDBRANCH   7  20
TORSDOF 6
ENDMDL
MODEL 4
REMARK VINA RESULT:      -8.0      2.892      4.951
REMARK  6 active torsions:
REMARK  status: ('A' for Active; 'I' for Inactive)
REMARK    1  A    between atoms: C2_2  and  C3_3 
REMARK    2  A    between atoms: C8_8  and  C9_9 
REMARK    3  A    between atoms: C9_9  and  C10_11 
REMARK    4  A    between atoms: C11_12  and  C12_13 
REMARK    5  A    between atoms: C12_13  and  N1_14 
REMARK    6  A    between atoms: C15_17  and  N2_18 
ROOT
HETATM    1  C3  UNL     1      24.643   4.665  49.372  1.00  0.00    -0.042 A 
HETATM    2  C4  UNL     1      23.629   4.011  50.042  1.00  0.00     0.040 A 
HETATM    3  C5  UNL     1      24.032   2.992  50.880  1.00  0.00     0.064 A 
HETATM    4  C6  UNL     1      25.345   2.625  51.061  1.00  0.00     0.018 A 
HETATM    5  C7  UNL     1      26.340   3.291  50.384  1.00  0.00     0.032 A 
HETATM    6  C8  UNL     1      25.960   4.313  49.542  1.00  0.00     0.021 A 
HETATM    7  C15 UNL     1      25.431   1.619  51.921  1.00  0.00     0.044 A 
HETATM    8  C21 UNL     1      24.048   1.294  52.345  1.00  0.00     0.207 A 
HETATM    9  N3  UNL     1      23.260   2.251  51.600  1.00  0.00    -0.283 NA
ENDROOT
BRANCH   6  10
HETATM   10  C9  UNL     1      27.062   4.971  48.873  1.00  0.00     0.182 C 
HETATM   11  O1  UNL     1      28.103   4.384  48.490  1.00  0.00    -0.288 OA
BRANCH  10  12
HETATM   12  C10 UNL     1      27.543   6.235  48.382  1.00  0.00     0.053 C 
HETATM   13  C11 UNL     1      28.852   6.168  48.081  1.00  0.00     0.007 C 
BRANCH  13  14
HETATM   14  C12 UNL     1      29.572   7.354  47.555  1.00  0.00     0.299 C 
BRANCH  14  15
HETATM   15  N1  UNL     1      30.829   7.578  48.234  1.00  0.00     0.083 N 
HETATM   16  C13 UNL     1      30.624   8.680  49.154  1.00  0.00     0.309 C 
HETATM   17  C14 UNL     1      31.194   6.399  49.000  1.00  0.00     0.309 C 
ENDBRANCH  14  15
ENDBRANCH  13  14
ENDBRANCH  10  12
ENDBRANCH   6  10
BRANCH   1  18
HETATM   18  C2  UNL     1      24.249   5.766  48.453  1.00  0.00     0.035 C 
HETATM   19  C1  UNL     1      23.907   7.007  49.208  1.00  0.00     0.010 C 
ENDBRANCH   1  18
BRANCH   7  20
HETATM   20  N2  UNL     1      26.551   0.902  52.425  1.00  0.00    -0.351 N 
HETATM   21  C16 UNL     1      27.606   1.580  53.139  1.00  0.00     0.135 A 
HETATM   22  C17 UNL     1      28.637   0.932  53.611  1.00  0.00     0.153 A 
HETATM   23  F1  UNL     1      29.536   1.709  54.254  1.00  0.00    -0.203 F 
HETATM   24  C18 UNL     1      28.778  -0.508  53.438  1.00  0.00     0.071 A 
HETATM   25 CL1  UNL     1      30.187  -1.308  54.098  1.00  0.00    -0.081 Cl
HETATM   26  C19 UNL     1      27.808  -1.147  52.777  1.00  0.00     0.020 A 
HETATM   27  C20 UNL     1      26.607  -0.523  52.205  1.00  0.00     0.157 A 
ENDBRANCH   7  20
TORSDOF 6
ENDMDL
MODEL 5
REMARK VINA RESULT:      -7.9      2.200      2.682
REMARK  6 active torsions:
REMARK  status: ('A' for Active; 'I' for Inactive)
REMARK    1  A    between atoms: C2_2  and  C3_3 
REMARK    2  A    between atoms: C8_8  and  C9_9 
REMARK    3  A    between atoms: C9_9  and  C10_11 
REMARK    4  A    between atoms: C11_12  and  C12_13 
REMARK    5  A    between atoms: C12_13  and  N1_14 
REMARK    6  A    between atoms: C15_17  and  N2_18 
ROOT
HETATM    1  C3  UNL     1      19.939  -0.174  52.384  1.00  0.00    -0.042 A 
HETATM    2  C4  UNL     1      20.036  -0.888  53.562  1.00  0.00     0.040 A 
HETATM    3  C5  UNL     1      21.305  -0.990  54.092  1.00  0.00     0.064 A 
HETATM    4  C6  UNL     1      22.422  -0.432  53.515  1.00  0.00     0.018 A 
HETATM    5  C7  UNL     1      22.304   0.276  52.341  1.00  0.00     0.032 A 
HETATM    6  C8  UNL     1      21.044   0.390  51.795  1.00  0.00     0.021 A 
HETATM    7  C15 UNL     1      23.500  -0.691  54.244  1.00  0.00     0.044 A 
HETATM    8  C21 UNL     1      23.051  -1.494  55.407  1.00  0.00     0.207 A 
HETATM    9  N3  UNL     1      21.626  -1.607  55.178  1.00  0.00    -0.283 NA
ENDROOT
BRANCH   6  10
HETATM   10  C9  UNL     1      20.999   1.156  50.567  1.00  0.00     0.182 C 
HETATM   11  O1  UNL     1      20.620   2.351  50.497  1.00  0.00    -0.288 OA
BRANCH  10  12
HETATM   12  C10 UNL     1      21.251   1.109  49.151  1.00  0.00     0.053 C 
HETATM   13  C11 UNL     1      21.982   2.166  48.757  1.00  0.00     0.007 C 
BRANCH  13  14
HETATM   14  C12 UNL     1      22.368   2.334  47.334  1.00  0.00     0.299 C 
BRANCH  14  15
HETATM   15  N1  UNL     1      22.046   3.650  46.829  1.00  0.00     0.083 N 
HETATM   16  C13 UNL     1      20.629   3.652  46.522  1.00  0.00     0.309 C 
HETATM   17  C14 UNL     1      22.296   4.647  47.856  1.00  0.00     0.309 C 
ENDBRANCH  14  15
ENDBRANCH  13  14
ENDBRANCH  10  12
ENDBRANCH   6  10
BRANCH   1  18
HETATM   18  C2  UNL     1      18.588  -0.047  51.776  1.00  0.00     0.035 C 
HETATM   19  C1  UNL     1      17.580  -0.857  52.521  1.00  0.00     0.010 C 
ENDBRANCH   1  18
BRANCH   7  20
HETATM   20  N2  UNL     1      24.866  -0.337  54.067  1.00  0.00    -0.351 N 
HETATM   21  C16 UNL     1      25.378   0.011  52.764  1.00  0.00     0.135 A 
HETATM   22  C17 UNL     1      26.630   0.343  52.590  1.00  0.00     0.153 A 
HETATM   23  F1  UNL     1      26.953   0.643  51.313  1.00  0.00    -0.203 F 
HETATM   24  C18 UNL     1      27.573   0.376  53.700  1.00  0.00     0.071 A 
HETATM   25 CL1  UNL     1      29.233   0.830  53.391  1.00  0.00    -0.081 Cl
HETATM   26  C19 UNL     1      27.109   0.053  54.912  1.00  0.00     0.020 A 
HETATM   27  C20 UNL     1      25.727  -0.335  55.224  1.00  0.00     0.157 A 
ENDBRANCH   7  20
TORSDOF 6
ENDMDL
MODEL 6
REMARK VINA RESULT:      -7.8      3.327      6.705
REMARK  6 active torsions:
REMARK  status: ('A' for Active; 'I' for Inactive)
REMARK    1  A    between atoms: C2_2  and  C3_3 
REMARK    2  A    between atoms: C8_8  and  C9_9 
REMARK    3  A    between atoms: C9_9  and  C10_11 
REMARK    4  A    between atoms: C11_12  and  C12_13 
REMARK    5  A    between atoms: C12_13  and  N1_14 
REMARK    6  A    between atoms: C15_17  and  N2_18 
ROOT
HETATM    1  C3  UNL     1      23.187  -0.229  53.145  1.00  0.00    -0.042 A 
HETATM    2  C4  UNL     1      24.546  -0.323  53.369  1.00  0.00     0.040 A 
HETATM    3  C5  UNL     1      25.317   0.638  52.750  1.00  0.00     0.064 A 
HETATM    4  C6  UNL     1      24.803   1.638  51.957  1.00  0.00     0.018 A 
HETATM    5  C7  UNL     1      23.445   1.714  51.748  1.00  0.00     0.032 A 
HETATM    6  C8  UNL     1      22.656   0.763  52.357  1.00  0.00     0.021 A 
HETATM    7  C15 UNL     1      25.777   2.414  51.498  1.00  0.00     0.044 A 
HETATM    8  C21 UNL     1      27.048   1.875  52.039  1.00  0.00     0.207 A 
HETATM    9  N3  UNL     1      26.600   0.742  52.820  1.00  0.00    -0.283 NA
ENDROOT
BRANCH   6  10
HETATM   10  C9  UNL     1      21.240   0.915  52.097  1.00  0.00     0.182 C 
HETATM   11  O1  UNL     1      20.530   1.829  52.582  1.00  0.00    -0.288 OA
BRANCH  10  12
HETATM   12  C10 UNL     1      20.115   0.357  51.394  1.00  0.00     0.053 C 
HETATM   13  C11 UNL     1      19.051   0.238  52.206  1.00  0.00     0.007 C 
BRANCH  13  14
HETATM   14  C12 UNL     1      17.769  -0.316  51.702  1.00  0.00     0.299 C 
BRANCH  14  15
HETATM   15  N1  UNL     1      17.020  -0.993  52.737  1.00  0.00     0.083 N 
HETATM   16  C13 UNL     1      15.876  -1.613  52.097  1.00  0.00     0.309 C 
HETATM   17  C14 UNL     1      17.835  -2.035  53.336  1.00  0.00     0.309 C 
ENDBRANCH  14  15
ENDBRANCH  13  14
ENDBRANCH  10  12
ENDBRANCH   6  10
BRANCH   1  18
HETATM   18  C2  UNL     1      22.320  -1.251  53.789  1.00  0.00     0.035 C 
HETATM   19  C1  UNL     1      21.614  -0.692  54.979  1.00  0.00     0.010 C 
ENDBRANCH   1  18
BRANCH   7  20
HETATM   20  N2  UNL     1      25.753   3.558  50.655  1.00  0.00    -0.351 N 
HETATM   21  C16 UNL     1      26.814   3.802  49.707  1.00  0.00     0.135 A 
HETATM   22  C17 UNL     1      26.801   4.847  48.923  1.00  0.00     0.153 A 
HETATM   23  F1  UNL     1      27.863   4.933  48.093  1.00  0.00    -0.203 F 
HETATM   24  C18 UNL     1      25.719   5.822  48.967  1.00  0.00     0.071 A 
HETATM   25 CL1  UNL     1      25.769   7.197  47.887  1.00  0.00    -0.081 Cl
HETATM   26  C19 UNL     1      24.732   5.607  49.844  1.00  0.00     0.020 A 
HETATM   27  C20 UNL     1      24.642   4.471  50.770  1.00  0.00     0.157 A 
ENDBRANCH   7  20
TORSDOF 6
ENDMDL
MODEL 7
REMARK VINA RESULT:      -7.7      1.658      2.276
REMARK  6 active torsions:
REMARK  status: ('A' for Active; 'I' for Inactive)
REMARK    1  A    between atoms: C2_2  and  C3_3 
REMARK    2  A    between atoms: C8_8  and  C9_9 
REMARK    3  A    between atoms: C9_9  and  C10_11 
REMARK    4  A    between atoms: C11_12  and  C12_13 
REMARK    5  A    between atoms: C12_13  and  N1_14 
REMARK    6  A    between atoms: C15_17  and  N2_18 
ROOT
HETATM    1  C3  UNL     1      22.033   2.915  51.903  1.00  0.00    -0.042 A 
HETATM    2  C4  UNL     1      21.521   1.864  52.637  1.00  0.00     0.040 A 
HETATM    3  C5  UNL     1      22.453   0.966  53.114  1.00  0.00     0.064 A 
HETATM    4  C6  UNL     1      23.806   1.076  52.893  1.00  0.00     0.018 A 
HETATM    5  C7  UNL     1      24.294   2.133  52.160  1.00  0.00     0.032 A 
HETATM    6  C8  UNL     1      23.381   3.042  51.673  1.00  0.00     0.021 A 
HETATM    7  C15 UNL     1      24.454   0.073  53.470  1.00  0.00     0.044 A 
HETATM    8  C21 UNL     1      23.434  -0.777  54.130  1.00  0.00     0.207 A 
HETATM    9  N3  UNL     1      22.202  -0.084  53.819  1.00  0.00    -0.283 NA
ENDROOT
BRANCH   6  10
HETATM   10  C9  UNL     1      23.971   4.129  50.920  1.00  0.00     0.182 C 
HETATM   11  O1  UNL     1      24.150   5.285  51.375  1.00  0.00    -0.288 OA
BRANCH  10  12
HETATM   12  C10 UNL     1      24.534   4.497  49.648  1.00  0.00     0.053 C 
HETATM   13  C11 UNL     1      25.565   5.346  49.805  1.00  0.00     0.007 C 
BRANCH  13  14
HETATM   14  C12 UNL     1      26.306   5.866  48.629  1.00  0.00     0.299 C 
BRANCH  14  15
HETATM   15  N1  UNL     1      27.117   7.018  48.958  1.00  0.00     0.083 N 
HETATM   16  C13 UNL     1      27.412   7.699  47.712  1.00  0.00     0.309 C 
HETATM   17  C14 UNL     1      26.367   7.922  49.812  1.00  0.00     0.309 C 
ENDBRANCH  14  15
ENDBRANCH  13  14
ENDBRANCH  10  12
ENDBRANCH   6  10
BRANCH   1  18
HETATM   18  C2  UNL     1      21.060   3.903  51.364  1.00  0.00     0.035 C 
HETATM   19  C1  UNL     1      20.393   3.391  50.132  1.00  0.00     0.010 C 
ENDBRANCH   1  18
BRANCH   7  20
HETATM   20  N2  UNL     1      25.838  -0.249  53.526  1.00  0.00    -0.351 N 
HETATM   21  C16 UNL     1      26.718   0.422  54.453  1.00  0.00     0.135 A 
HETATM   22  C17 UNL     1      27.990   0.132  54.518  1.00  0.00     0.153 A 
HETATM   23  F1  UNL     1      28.677   0.845  55.436  1.00  0.00    -0.203 F 
HETATM   24  C18 UNL     1      28.588  -0.879  53.655  1.00  0.00     0.071 A 
HETATM   25 CL1  UNL     1      30.298  -1.214  53.797  1.00  0.00    -0.081 Cl
HETATM   26  C19 UNL     1      27.782  -1.505  52.790  1.00  0.00     0.020 A 
HETATM   27  C20 UNL     1      26.342  -1.261  52.631  1.00  0.00     0.157 A 
ENDBRANCH   7  20
TORSDOF 6
ENDMDL
MODEL 8
REMARK VINA RESULT:      -7.6      3.970      6.940
REMARK  6 active torsions:
REMARK  status: ('A' for Active; 'I' for Inactive)
REMARK    1  A    between atoms: C2_2  and  C3_3 
REMARK    2  A    between atoms: C8_8  and  C9_9 
REMARK    3  A    between atoms: C9_9  and  C10_11 
REMARK    4  A    between atoms: C11_12  and  C12_13 
REMARK    5  A    between atoms: C12_13  and  N1_14 
REMARK    6  A    between atoms: C15_17  and  N2_18 
ROOT
HETATM    1  C3  UNL     1      22.211   0.796  53.375  1.00  0.00    -0.042 A 
HETATM    2  C4  UNL     1      20.881   1.142  53.242  1.00  0.00     0.040 A 
HETATM    3  C5  UNL     1      20.634   2.264  52.479  1.00  0.00     0.064 A 
HETATM    4  C6  UNL     1      21.618   3.011  51.876  1.00  0.00     0.018 A 
HETATM    5  C7  UNL     1      22.938   2.648  52.020  1.00  0.00     0.032 A 
HETATM    6  C8  UNL     1      23.207   1.530  52.779  1.00  0.00     0.021 A 
HETATM    7  C15 UNL     1      21.087   4.028  51.209  1.00  0.00     0.044 A 
HETATM    8  C21 UNL     1      19.618   3.941  51.390  1.00  0.00     0.207 A 
HETATM    9  N3  UNL     1      19.474   2.766  52.223  1.00  0.00    -0.283 NA
ENDROOT
BRANCH   6  10
HETATM   10  C9  UNL     1      24.615   1.207  52.877  1.00  0.00     0.182 C 
HETATM   11  O1  UNL     1      25.422   1.798  53.635  1.00  0.00    -0.288 OA
BRANCH  10  12
HETATM   12  C10 UNL     1      25.652   0.341  52.380  1.00  0.00     0.053 C 
HETATM   13  C11 UNL     1      26.540   0.050  53.346  1.00  0.00     0.007 C 
BRANCH  13  14
HETATM   14  C12 UNL     1      27.702  -0.830  53.070  1.00  0.00     0.299 C 
BRANCH  14  15
HETATM   15  N1  UNL     1      28.708  -0.752  54.106  1.00  0.00     0.083 N 
HETATM   16  C13 UNL     1      29.999  -0.865  53.455  1.00  0.00     0.309 C 
HETATM   17  C14 UNL     1      28.637   0.539  54.768  1.00  0.00     0.309 C 
ENDBRANCH  14  15
ENDBRANCH  13  14
ENDBRANCH  10  12
ENDBRANCH   6  10
BRANCH   1  18
HETATM   18  C2  UNL     1      22.521  -0.405  54.196  1.00  0.00     0.035 C 
HETATM   19  C1  UNL     1      21.320  -1.273  54.363  1.00  0.00     0.010 C 
ENDBRANCH   1  18
BRANCH   7  20
HETATM   20  N2  UNL     1      21.681   5.063  50.437  1.00  0.00    -0.351 N 
HETATM   21  C16 UNL     1      22.332   6.183  51.074  1.00  0.00     0.135 A 
HETATM   22  C17 UNL     1      22.886   7.138  50.375  1.00  0.00     0.153 A 
HETATM   23  F1  UNL     1      23.454   8.113  51.118  1.00  0.00    -0.203 F 
HETATM   24  C18 UNL     1      22.872   7.125  48.918  1.00  0.00     0.071 A 
HETATM   25 CL1  UNL     1      23.635   8.438  48.051  1.00  0.00    -0.081 Cl
HETATM   26  C19 UNL     1      22.270   6.093  48.317  1.00  0.00     0.020 A 
HETATM   27  C20 UNL     1      21.617   4.967  48.999  1.00  0.00     0.157 A 
ENDBRANCH   7  20
TORSDOF 6
ENDMDL
MODEL 9
REMARK VINA RESULT:      -7.6      4.046      7.903
REMARK  6 active torsions:
REMARK  status: ('A' for Active; 'I' for Inactive)
REMARK    1  A    between atoms: C2_2  and  C3_3 
REMARK    2  A    between atoms: C8_8  and  C9_9 
REMARK    3  A    between atoms: C9_9  and  C10_11 
REMARK    4  A    between atoms: C11_12  and  C12_13 
REMARK    5  A    between atoms: C12_13  and  N1_14 
REMARK    6  A    between atoms: C15_17  and  N2_18 
ROOT
HETATM    1  C3  UNL     1      24.191   3.094  50.179  1.00  0.00    -0.042 A 
HETATM    2  C4  UNL     1      23.518   4.018  49.405  1.00  0.00     0.040 A 
HETATM    3  C5  UNL     1      24.280   5.070  48.942  1.00  0.00     0.064 A 
HETATM    4  C6  UNL     1      25.620   5.222  49.211  1.00  0.00     0.018 A 
HETATM    5  C7  UNL     1      26.272   4.289  49.983  1.00  0.00     0.032 A 
HETATM    6  C8  UNL     1      25.530   3.229  50.457  1.00  0.00     0.021 A 
HETATM    7  C15 UNL     1      26.087   6.323  48.636  1.00  0.00     0.044 A 
HETATM    8  C21 UNL     1      24.950   6.953  47.923  1.00  0.00     0.207 A 
HETATM    9  N3  UNL     1      23.861   6.043  48.206  1.00  0.00    -0.283 NA
ENDROOT
BRANCH   6  10
HETATM   10  C9  UNL     1      26.286   2.286  51.253  1.00  0.00     0.182 C 
HETATM   11  O1  UNL     1      27.410   2.531  51.755  1.00  0.00    -0.288 OA
BRANCH  10  12
HETATM   12  C10 UNL     1      26.285   0.955  51.801  1.00  0.00     0.053 C 
HETATM   13  C11 UNL     1      27.410   0.721  52.499  1.00  0.00     0.007 C 
BRANCH  13  14
HETATM   14  C12 UNL     1      27.636  -0.588  53.160  1.00  0.00     0.299 C 
BRANCH  14  15
HETATM   15  N1  UNL     1      28.682  -0.527  54.156  1.00  0.00     0.083 N 
HETATM   16  C13 UNL     1      29.912  -0.940  53.508  1.00  0.00     0.309 C 
HETATM   17  C14 UNL     1      28.843   0.840  54.620  1.00  0.00     0.309 C 
ENDBRANCH  14  15
ENDBRANCH  13  14
ENDBRANCH  10  12
ENDBRANCH   6  10
BRANCH   1  18
HETATM   18  C2  UNL     1      23.404   1.947  50.704  1.00  0.00     0.035 C 
HETATM   19  C1  UNL     1      22.623   2.334  51.915  1.00  0.00     0.010 C 
ENDBRANCH   1  18
BRANCH   7  20
HETATM   20  N2  UNL     1      27.386   6.901  48.621  1.00  0.00    -0.351 N 
HETATM   21  C16 UNL     1      27.608   8.238  49.116  1.00  0.00     0.135 A 
HETATM   22  C17 UNL     1      28.797   8.779  49.113  1.00  0.00     0.153 A 
HETATM   23  F1  UNL     1      28.839  10.035  49.609  1.00  0.00    -0.203 F 
HETATM   24  C18 UNL     1      29.960   8.062  48.607  1.00  0.00     0.071 A 
HETATM   25 CL1  UNL     1      31.522   8.850  48.635  1.00  0.00    -0.081 Cl
HETATM   26  C19 UNL     1      29.766   6.822  48.144  1.00  0.00     0.020 A 
HETATM   27  C20 UNL     1      28.479   6.117  48.099  1.00  0.00     0.157 A 
ENDBRANCH   7  20
TORSDOF 6
ENDMDL
