MODEL 1
REMARK VINA RESULT:      -7.0      0.000      0.000
REMARK  6 active torsions:
REMARK  status: ('A' for Active; 'I' for Inactive)
REMARK    1  A    between atoms: C6_8  and  O1_9 
REMARK    2  A    between atoms: O1_9  and  C7_10 
REMARK    3  A    between atoms: C7_10  and  O2_11 
REMARK    4  A    between atoms: O2_11  and  C8_12 
REMARK    5  A    between atoms: C8_12  and  O3_13 
REMARK    6  A    between atoms: O3_13  and  C9_14 
ROOT
HETATM    1  O1  UNL     1      26.274   1.283  51.628  1.00  0.00    -0.353 OA
ENDROOT
BRANCH   1   2
HETATM    2  C6  UNL     1      26.709   1.195  52.928  1.00  0.00     0.184 A 
HETATM    3  C5  UNL     1      27.795   0.220  53.135  1.00  0.00     0.021 A 
HETATM    4  C1  UNL     1      28.035  -1.114  53.034  1.00  0.00     0.023 A 
HETATM    5  C4  UNL     1      28.918   0.928  53.574  1.00  0.00     0.066 A 
HETATM    6 BR1  UNL     1      26.608  -2.232  52.448  1.00  0.00    -0.050 Br
HETATM    7  C2  UNL     1      29.223  -1.752  53.318  1.00  0.00     0.039 A 
HETATM    8  C3  UNL     1      30.285  -0.983  53.746  1.00  0.00     0.118 A 
HETATM    9  N1  UNL     1      30.113   0.354  53.868  1.00  0.00    -0.261 NA
HETATM   10  C16 UNL     1      28.636   2.347  53.673  1.00  0.00     0.031 A 
HETATM   11  C15 UNL     1      27.378   2.481  53.302  1.00  0.00     0.012 A 
ENDBRANCH   1   2
BRANCH   1  12
HETATM   12  C7  UNL     1      25.989   2.600  51.326  1.00  0.00     0.341 C 
BRANCH  12  13
HETATM   13  O2  UNL     1      24.720   2.639  50.761  1.00  0.00    -0.343 OA
BRANCH  13  14
HETATM   14  C8  UNL     1      23.720   2.691  51.729  1.00  0.00     0.347 C 
BRANCH  14  15
HETATM   15  O3  UNL     1      22.834   1.604  51.518  1.00  0.00    -0.326 OA
BRANCH  15  16
HETATM   16  C9  UNL     1      22.568   0.781  52.604  1.00  0.00     0.071 A 
HETATM   17  C10 UNL     1      23.385  -0.159  53.220  1.00  0.00     0.037 A 
HETATM   18  C11 UNL     1      22.889  -0.862  54.297  1.00  0.00     0.003 A 
HETATM   19  C12 UNL     1      21.613  -0.661  54.781  1.00  0.00     0.000 A 
HETATM   20  C13 UNL     1      20.777   0.282  54.171  1.00  0.00     0.003 A 
HETATM   21  C14 UNL     1      21.284   0.984  53.088  1.00  0.00     0.037 A 
ENDBRANCH  15  16
ENDBRANCH  14  15
ENDBRANCH  13  14
ENDBRANCH  12  13
ENDBRANCH   1  12
TORSDOF 6
ENDMDL
MODEL 2
REMARK VINA RESULT:      -6.9      3.285      7.054
REMARK  6 active torsions:
REMARK  status: ('A' for Active; 'I' for Inactive)
REMARK    1  A    between atoms: C6_8  and  O1_9 
REMARK    2  A    between atoms: O1_9  and  C7_10 
REMARK    3  A    between atoms: C7_10  and  O2_11 
REMARK    4  A    between atoms: O2_11  and  C8_12 
REMARK    5  A    between atoms: C8_12  and  O3_13 
REMARK    6  A    between atoms: O3_13  and  C9_14 
ROOT
HETATM    1  O1  UNL     1      22.997   1.621  52.652  1.00  0.00    -0.353 OA
ENDROOT
BRANCH   1   2
HETATM    2  C6  UNL     1      22.473   0.661  51.821  1.00  0.00     0.184 A 
HETATM    3  C5  UNL     1      21.134   0.188  52.217  1.00  0.00     0.021 A 
HETATM    4  C1  UNL     1      20.514  -0.454  53.243  1.00  0.00     0.023 A 
HETATM    5  C4  UNL     1      20.248   0.522  51.189  1.00  0.00     0.066 A 
HETATM    6 BR1  UNL     1      21.576  -0.985  54.732  1.00  0.00    -0.050 Br
HETATM    7  C2  UNL     1      19.173  -0.766  53.316  1.00  0.00     0.039 A 
HETATM    8  C3  UNL     1      18.364  -0.402  52.261  1.00  0.00     0.118 A 
HETATM    9  N1  UNL     1      18.920   0.241  51.206  1.00  0.00    -0.261 NA
HETATM   10  C16 UNL     1      20.934   1.205  50.109  1.00  0.00     0.031 A 
HETATM   11  C15 UNL     1      22.196   1.276  50.485  1.00  0.00     0.012 A 
ENDBRANCH   1   2
BRANCH   1  12
HETATM   12  C7  UNL     1      24.375   1.591  52.576  1.00  0.00     0.341 C 
BRANCH  12  13
HETATM   13  O2  UNL     1      24.872   2.434  53.563  1.00  0.00    -0.343 OA
BRANCH  13  14
HETATM   14  C8  UNL     1      26.254   2.319  53.699  1.00  0.00     0.347 C 
BRANCH  14  15
HETATM   15  O3  UNL     1      26.529   1.228  54.562  1.00  0.00    -0.326 OA
BRANCH  15  16
HETATM   16  C9  UNL     1      27.312   0.199  54.055  1.00  0.00     0.071 A 
HETATM   17  C10 UNL     1      26.938  -0.902  53.293  1.00  0.00     0.037 A 
HETATM   18  C11 UNL     1      27.910  -1.798  52.904  1.00  0.00     0.003 A 
HETATM   19  C12 UNL     1      29.237  -1.637  53.245  1.00  0.00     0.000 A 
HETATM   20  C13 UNL     1      29.630  -0.533  54.012  1.00  0.00     0.003 A 
HETATM   21  C14 UNL     1      28.646   0.363  54.400  1.00  0.00     0.037 A 
ENDBRANCH  15  16
ENDBRANCH  14  15
ENDBRANCH  13  14
ENDBRANCH  12  13
ENDBRANCH   1  12
TORSDOF 6
ENDMDL
MODEL 3
REMARK VINA RESULT:      -6.8      4.070      6.127
REMARK  6 active torsions:
REMARK  status: ('A' for Active; 'I' for Inactive)
REMARK    1  A    between atoms: C6_8  and  O1_9 
REMARK    2  A    between atoms: O1_9  and  C7_10 
REMARK    3  A    between atoms: C7_10  and  O2_11 
REMARK    4  A    between atoms: O2_11  and  C8_12 
REMARK    5  A    between atoms: C8_12  and  O3_13 
REMARK    6  A    between atoms: O3_13  and  C9_14 
ROOT
HETATM    1  O1  UNL     1      24.425   5.374  50.652  1.00  0.00    -0.353 OA
ENDROOT
BRANCH   1   2
HETATM    2  C6  UNL     1      24.898   4.837  49.480  1.00  0.00     0.184 A 
HETATM    3  C5  UNL     1      26.112   5.493  48.963  1.00  0.00     0.021 A 
HETATM    4  C1  UNL     1      26.531   6.702  48.502  1.00  0.00     0.023 A 
HETATM    5  C4  UNL     1      27.137   4.542  48.961  1.00  0.00     0.066 A 
HETATM    6 BR1  UNL     1      25.258   8.118  48.436  1.00  0.00    -0.050 Br
HETATM    7  C2  UNL     1      27.802   7.012  48.068  1.00  0.00     0.039 A 
HETATM    8  C3  UNL     1      28.757   6.019  48.097  1.00  0.00     0.118 A 
HETATM    9  N1  UNL     1      28.405   4.790  48.546  1.00  0.00    -0.261 NA
HETATM   10  C16 UNL     1      26.664   3.264  49.456  1.00  0.00     0.031 A 
HETATM   11  C15 UNL     1      25.392   3.449  49.747  1.00  0.00     0.012 A 
ENDBRANCH   1   2
BRANCH   1  12
HETATM   12  C7  UNL     1      23.235   4.761  50.991  1.00  0.00     0.341 C 
BRANCH  12  13
HETATM   13  O2  UNL     1      23.226   4.587  52.370  1.00  0.00    -0.343 OA
BRANCH  13  14
HETATM   14  C8  UNL     1      23.324   3.244  52.726  1.00  0.00     0.347 C 
BRANCH  14  15
HETATM   15  O3  UNL     1      24.551   3.050  53.410  1.00  0.00    -0.326 OA
BRANCH  15  16
HETATM   16  C9  UNL     1      25.242   1.873  53.153  1.00  0.00     0.071 A 
HETATM   17  C10 UNL     1      24.764   0.571  53.059  1.00  0.00     0.037 A 
HETATM   18  C11 UNL     1      25.658  -0.444  52.792  1.00  0.00     0.003 A 
HETATM   19  C12 UNL     1      27.005  -0.208  52.616  1.00  0.00     0.000 A 
HETATM   20  C13 UNL     1      27.502   1.097  52.708  1.00  0.00     0.003 A 
HETATM   21  C14 UNL     1      26.597   2.112  52.977  1.00  0.00     0.037 A 
ENDBRANCH  15  16
ENDBRANCH  14  15
ENDBRANCH  13  14
ENDBRANCH  12  13
ENDBRANCH   1  12
TORSDOF 6
ENDMDL
MODEL 4
REMARK VINA RESULT:      -6.7      3.778      6.567
REMARK  6 active torsions:
REMARK  status: ('A' for Active; 'I' for Inactive)
REMARK    1  A    between atoms: C6_8  and  O1_9 
REMARK    2  A    between atoms: O1_9  and  C7_10 
REMARK    3  A    between atoms: C7_10  and  O2_11 
REMARK    4  A    between atoms: O2_11  and  C8_12 
REMARK    5  A    between atoms: C8_12  and  O3_13 
REMARK    6  A    between atoms: O3_13  and  C9_14 
ROOT
HETATM    1  O1  UNL     1      26.101   3.144  51.384  1.00  0.00    -0.353 OA
ENDROOT
BRANCH   1   2
HETATM    2  C6  UNL     1      25.621   3.689  50.218  1.00  0.00     0.184 A 
HETATM    3  C5  UNL     1      25.132   5.073  50.356  1.00  0.00     0.021 A 
HETATM    4  C1  UNL     1      24.171   5.781  51.006  1.00  0.00     0.023 A 
HETATM    5  C4  UNL     1      25.935   5.885  49.550  1.00  0.00     0.066 A 
HETATM    6 BR1  UNL     1      22.984   4.827  52.151  1.00  0.00    -0.050 Br
HETATM    7  C2  UNL     1      23.963   7.141  50.919  1.00  0.00     0.039 A 
HETATM    8  C3  UNL     1      24.797   7.873  50.102  1.00  0.00     0.118 A 
HETATM    9  N1  UNL     1      25.777   7.228  49.426  1.00  0.00    -0.261 NA
HETATM   10  C16 UNL     1      26.950   5.106  48.869  1.00  0.00     0.031 A 
HETATM   11  C15 UNL     1      26.759   3.862  49.260  1.00  0.00     0.012 A 
ENDBRANCH   1   2
BRANCH   1  12
HETATM   12  C7  UNL     1      25.470   1.939  51.622  1.00  0.00     0.341 C 
BRANCH  12  13
HETATM   13  O2  UNL     1      25.092   1.916  52.959  1.00  0.00    -0.343 OA
BRANCH  13  14
HETATM   14  C8  UNL     1      26.158   2.210  53.806  1.00  0.00     0.347 C 
BRANCH  14  15
HETATM   15  O3  UNL     1      26.426   1.066  54.601  1.00  0.00    -0.326 OA
BRANCH  15  16
HETATM   16  C9  UNL     1      27.468   0.242  54.197  1.00  0.00     0.071 A 
HETATM   17  C10 UNL     1      28.833   0.367  54.427  1.00  0.00     0.037 A 
HETATM   18  C11 UNL     1      29.681  -0.592  53.916  1.00  0.00     0.003 A 
HETATM   19  C12 UNL     1      29.218  -1.669  53.188  1.00  0.00     0.000 A 
HETATM   20  C13 UNL     1      27.846  -1.809  52.948  1.00  0.00     0.003 A 
HETATM   21  C14 UNL     1      27.001  -0.839  53.465  1.00  0.00     0.037 A 
ENDBRANCH  15  16
ENDBRANCH  14  15
ENDBRANCH  13  14
ENDBRANCH  12  13
ENDBRANCH   1  12
TORSDOF 6
ENDMDL
MODEL 5
REMARK VINA RESULT:      -6.6      3.671      6.317
REMARK  6 active torsions:
REMARK  status: ('A' for Active; 'I' for Inactive)
REMARK    1  A    between atoms: C6_8  and  O1_9 
REMARK    2  A    between atoms: O1_9  and  C7_10 
REMARK    3  A    between atoms: C7_10  and  O2_11 
REMARK    4  A    between atoms: O2_11  and  C8_12 
REMARK    5  A    between atoms: C8_12  and  O3_13 
REMARK    6  A    between atoms: O3_13  and  C9_14 
ROOT
HETATM    1  O1  UNL     1      22.520   2.623  52.551  1.00  0.00    -0.353 OA
ENDROOT
BRANCH   1   2
HETATM    2  C6  UNL     1      22.099   1.321  52.441  1.00  0.00     0.184 A 
HETATM    3  C5  UNL     1      22.763   0.393  53.376  1.00  0.00     0.021 A 
HETATM    4  C1  UNL     1      23.998  -0.099  53.660  1.00  0.00     0.023 A 
HETATM    5  C4  UNL     1      21.779  -0.126  54.222  1.00  0.00     0.066 A 
HETATM    6 BR1  UNL     1      25.460   0.505  52.599  1.00  0.00    -0.050 Br
HETATM    7  C2  UNL     1      24.305  -1.005  54.652  1.00  0.00     0.039 A 
HETATM    8  C3  UNL     1      23.278  -1.470  55.445  1.00  0.00     0.118 A 
HETATM    9  N1  UNL     1      22.022  -1.020  55.215  1.00  0.00    -0.261 NA
HETATM   10  C16 UNL     1      20.472   0.413  53.898  1.00  0.00     0.031 A 
HETATM   11  C15 UNL     1      20.673   1.233  52.886  1.00  0.00     0.012 A 
ENDBRANCH   1   2
BRANCH   1  12
HETATM   12  C7  UNL     1      21.611   3.454  51.927  1.00  0.00     0.341 C 
BRANCH  12  13
HETATM   13  O2  UNL     1      22.094   4.754  52.016  1.00  0.00    -0.343 OA
BRANCH  13  14
HETATM   14  C8  UNL     1      23.484   4.799  51.931  1.00  0.00     0.347 C 
BRANCH  14  15
HETATM   15  O3  UNL     1      23.841   5.704  50.899  1.00  0.00    -0.326 OA
BRANCH  15  16
HETATM   16  C9  UNL     1      24.991   5.418  50.174  1.00  0.00     0.071 A 
HETATM   17  C10 UNL     1      25.749   6.250  49.359  1.00  0.00     0.037 A 
HETATM   18  C11 UNL     1      26.864   5.729  48.737  1.00  0.00     0.003 A 
HETATM   19  C12 UNL     1      27.248   4.415  48.900  1.00  0.00     0.000 A 
HETATM   20  C13 UNL     1      26.495   3.564  49.718  1.00  0.00     0.003 A 
HETATM   21  C14 UNL     1      25.376   4.096  50.339  1.00  0.00     0.037 A 
ENDBRANCH  15  16
ENDBRANCH  14  15
ENDBRANCH  13  14
ENDBRANCH  12  13
ENDBRANCH   1  12
TORSDOF 6
ENDMDL
MODEL 6
REMARK VINA RESULT:      -6.6      3.772      7.213
REMARK  6 active torsions:
REMARK  status: ('A' for Active; 'I' for Inactive)
REMARK    1  A    between atoms: C6_8  and  O1_9 
REMARK    2  A    between atoms: O1_9  and  C7_10 
REMARK    3  A    between atoms: C7_10  and  O2_11 
REMARK    4  A    between atoms: O2_11  and  C8_12 
REMARK    5  A    between atoms: C8_12  and  O3_13 
REMARK    6  A    between atoms: O3_13  and  C9_14 
ROOT
HETATM    1  O1  UNL     1      23.863   1.654  51.247  1.00  0.00    -0.353 OA
ENDROOT
BRANCH   1   2
HETATM    2  C6  UNL     1      23.892   1.563  52.617  1.00  0.00     0.184 A 
HETATM    3  C5  UNL     1      22.778   0.787  53.192  1.00  0.00     0.021 A 
HETATM    4  C1  UNL     1      21.422   0.819  53.288  1.00  0.00     0.023 A 
HETATM    5  C4  UNL     1      23.328  -0.326  53.834  1.00  0.00     0.066 A 
HETATM    6 BR1  UNL     1      20.507   2.274  52.468  1.00  0.00    -0.050 Br
HETATM    7  C2  UNL     1      20.630  -0.107  53.931  1.00  0.00     0.039 A 
HETATM    8  C3  UNL     1      21.248  -1.178  54.540  1.00  0.00     0.118 A 
HETATM    9  N1  UNL     1      22.598  -1.270  54.481  1.00  0.00    -0.261 NA
HETATM   10  C16 UNL     1      24.773  -0.337  53.716  1.00  0.00     0.031 A 
HETATM   11  C15 UNL     1      25.076   0.742  53.022  1.00  0.00     0.012 A 
ENDBRANCH   1   2
BRANCH   1  12
HETATM   12  C7  UNL     1      24.034   2.972  50.870  1.00  0.00     0.341 C 
BRANCH  12  13
HETATM   13  O2  UNL     1      25.013   3.007  49.885  1.00  0.00    -0.343 OA
BRANCH  13  14
HETATM   14  C8  UNL     1      26.241   3.434  50.386  1.00  0.00     0.347 C 
BRANCH  14  15
HETATM   15  O3  UNL     1      27.121   3.647  49.295  1.00  0.00    -0.326 OA
BRANCH  15  16
HETATM   16  C9  UNL     1      27.216   4.941  48.799  1.00  0.00     0.071 A 
HETATM   17  C10 UNL     1      26.236   5.921  48.697  1.00  0.00     0.037 A 
HETATM   18  C11 UNL     1      26.578   7.145  48.163  1.00  0.00     0.003 A 
HETATM   19  C12 UNL     1      27.857   7.425  47.728  1.00  0.00     0.000 A 
HETATM   20  C13 UNL     1      28.855   6.448  47.824  1.00  0.00     0.003 A 
HETATM   21  C14 UNL     1      28.503   5.221  48.363  1.00  0.00     0.037 A 
ENDBRANCH  15  16
ENDBRANCH  14  15
ENDBRANCH  13  14
ENDBRANCH  12  13
ENDBRANCH   1  12
TORSDOF 6
ENDMDL
MODEL 7
REMARK VINA RESULT:      -6.5      3.306      6.402
REMARK  6 active torsions:
REMARK  status: ('A' for Active; 'I' for Inactive)
REMARK    1  A    between atoms: C6_8  and  O1_9 
REMARK    2  A    between atoms: O1_9  and  C7_10 
REMARK    3  A    between atoms: C7_10  and  O2_11 
REMARK    4  A    between atoms: O2_11  and  C8_12 
REMARK    5  A    between atoms: C8_12  and  O3_13 
REMARK    6  A    between atoms: O3_13  and  C9_14 
ROOT
HETATM    1  O1  UNL     1      23.451   1.973  50.865  1.00  0.00    -0.353 OA
ENDROOT
BRANCH   1   2
HETATM    2  C6  UNL     1      22.711   2.077  52.017  1.00  0.00     0.184 A 
HETATM    3  C5  UNL     1      21.370   1.471  51.928  1.00  0.00     0.021 A 
HETATM    4  C1  UNL     1      20.203   1.611  51.244  1.00  0.00     0.023 A 
HETATM    5  C4  UNL     1      21.318   0.425  52.855  1.00  0.00     0.066 A 
HETATM    6 BR1  UNL     1      20.099   2.993  49.937  1.00  0.00    -0.050 Br
HETATM    7  C2  UNL     1      19.070   0.843  51.402  1.00  0.00     0.039 A 
HETATM    8  C3  UNL     1      19.098  -0.170  52.337  1.00  0.00     0.118 A 
HETATM    9  N1  UNL     1      20.231  -0.363  53.053  1.00  0.00    -0.261 NA
HETATM   10  C16 UNL     1      22.573   0.298  53.570  1.00  0.00     0.031 A 
HETATM   11  C15 UNL     1      23.352   1.243  53.082  1.00  0.00     0.012 A 
ENDBRANCH   1   2
BRANCH   1  12
HETATM   12  C7  UNL     1      23.834   3.233  50.450  1.00  0.00     0.341 C 
BRANCH  12  13
HETATM   13  O2  UNL     1      25.038   3.537  51.075  1.00  0.00    -0.343 OA
BRANCH  13  14
HETATM   14  C8  UNL     1      26.125   2.966  50.415  1.00  0.00     0.347 C 
BRANCH  14  15
HETATM   15  O3  UNL     1      27.166   2.769  51.356  1.00  0.00    -0.326 OA
BRANCH  15  16
HETATM   16  C9  UNL     1      26.981   1.775  52.309  1.00  0.00     0.071 A 
HETATM   17  C10 UNL     1      27.000   1.867  53.695  1.00  0.00     0.037 A 
HETATM   18  C11 UNL     1      26.787   0.725  54.437  1.00  0.00     0.003 A 
HETATM   19  C12 UNL     1      26.556  -0.501  53.848  1.00  0.00     0.000 A 
HETATM   20  C13 UNL     1      26.535  -0.610  52.453  1.00  0.00     0.003 A 
HETATM   21  C14 UNL     1      26.750   0.543  51.715  1.00  0.00     0.037 A 
ENDBRANCH  15  16
ENDBRANCH  14  15
ENDBRANCH  13  14
ENDBRANCH  12  13
ENDBRANCH   1  12
TORSDOF 6
ENDMDL
MODEL 8
REMARK VINA RESULT:      -6.5      3.415      7.344
REMARK  6 active torsions:
REMARK  status: ('A' for Active; 'I' for Inactive)
REMARK    1  A    between atoms: C6_8  and  O1_9 
REMARK    2  A    between atoms: O1_9  and  C7_10 
REMARK    3  A    between atoms: C7_10  and  O2_11 
REMARK    4  A    between atoms: O2_11  and  C8_12 
REMARK    5  A    between atoms: C8_12  and  O3_13 
REMARK    6  A    between atoms: O3_13  and  C9_14 
ROOT
HETATM    1  O1  UNL     1      22.687   0.513  52.353  1.00  0.00    -0.353 OA
ENDROOT
BRANCH   1   2
HETATM    2  C6  UNL     1      21.793   0.505  53.394  1.00  0.00     0.184 A 
HETATM    3  C5  UNL     1      20.414   0.161  53.001  1.00  0.00     0.021 A 
HETATM    4  C1  UNL     1      19.402   0.628  52.222  1.00  0.00     0.023 A 
HETATM    5  C4  UNL     1      20.073  -1.026  53.656  1.00  0.00     0.066 A 
HETATM    6 BR1  UNL     1      19.697   2.243  51.256  1.00  0.00    -0.050 Br
HETATM    7  C2  UNL     1      18.165   0.045  52.058  1.00  0.00     0.039 A 
HETATM    8  C3  UNL     1      17.905  -1.126  52.739  1.00  0.00     0.118 A 
HETATM    9  N1  UNL     1      18.871  -1.645  53.533  1.00  0.00    -0.261 NA
HETATM   10  C16 UNL     1      21.167  -1.502  54.479  1.00  0.00     0.031 A 
HETATM   11  C15 UNL     1      22.136  -0.622  54.319  1.00  0.00     0.012 A 
ENDBRANCH   1   2
BRANCH   1  12
HETATM   12  C7  UNL     1      23.609   1.523  52.546  1.00  0.00     0.341 C 
BRANCH  12  13
HETATM   13  O2  UNL     1      24.407   1.591  51.411  1.00  0.00    -0.343 OA
BRANCH  13  14
HETATM   14  C8  UNL     1      25.750   1.784  51.729  1.00  0.00     0.347 C 
BRANCH  14  15
HETATM   15  O3  UNL     1      25.992   1.221  53.008  1.00  0.00    -0.326 OA
BRANCH  15  16
HETATM   16  C9  UNL     1      27.244   0.661  53.228  1.00  0.00     0.071 A 
HETATM   17  C10 UNL     1      28.415   1.263  53.670  1.00  0.00     0.037 A 
HETATM   18  C11 UNL     1      29.545   0.488  53.813  1.00  0.00     0.003 A 
HETATM   19  C12 UNL     1      29.549  -0.863  53.532  1.00  0.00     0.000 A 
HETATM   20  C13 UNL     1      28.377  -1.485  53.086  1.00  0.00     0.003 A 
HETATM   21  C14 UNL     1      27.245  -0.697  52.945  1.00  0.00     0.037 A 
ENDBRANCH  15  16
ENDBRANCH  14  15
ENDBRANCH  13  14
ENDBRANCH  12  13
ENDBRANCH   1  12
TORSDOF 6
ENDMDL
MODEL 9
REMARK VINA RESULT:      -6.5      2.606      3.843
REMARK  6 active torsions:
REMARK  status: ('A' for Active; 'I' for Inactive)
REMARK    1  A    between atoms: C6_8  and  O1_9 
REMARK    2  A    between atoms: O1_9  and  C7_10 
REMARK    3  A    between atoms: C7_10  and  O2_11 
REMARK    4  A    between atoms: O2_11  and  C8_12 
REMARK    5  A    between atoms: C8_12  and  O3_13 
REMARK    6  A    between atoms: O3_13  and  C9_14 
ROOT
HETATM    1  O1  UNL     1      23.567   1.548  53.048  1.00  0.00    -0.353 OA
ENDROOT
BRANCH   1   2
HETATM    2  C6  UNL     1      24.319   0.403  52.942  1.00  0.00     0.184 A 
HETATM    3  C5  UNL     1      25.751   0.595  53.233  1.00  0.00     0.021 A 
HETATM    4  C1  UNL     1      26.832   1.270  52.760  1.00  0.00     0.023 A 
HETATM    5  C4  UNL     1      26.060  -0.179  54.356  1.00  0.00     0.066 A 
HETATM    6 BR1  UNL     1      26.591   2.375  51.228  1.00  0.00    -0.050 Br
HETATM    7  C2  UNL     1      28.107   1.235  53.284  1.00  0.00     0.039 A 
HETATM    8  C3  UNL     1      28.330   0.448  54.393  1.00  0.00     0.118 A 
HETATM    9  N1  UNL     1      27.295  -0.251  54.915  1.00  0.00    -0.261 NA
HETATM   10  C16 UNL     1      24.891  -0.888  54.839  1.00  0.00     0.031 A 
HETATM   11  C15 UNL     1      23.912  -0.546  54.025  1.00  0.00     0.012 A 
ENDBRANCH   1   2
BRANCH   1  12
HETATM   12  C7  UNL     1      22.883   1.759  51.867  1.00  0.00     0.341 C 
BRANCH  12  13
HETATM   13  O2  UNL     1      21.663   2.345  52.184  1.00  0.00    -0.343 OA
BRANCH  13  14
HETATM   14  C8  UNL     1      20.875   1.510  52.973  1.00  0.00     0.347 C 
BRANCH  14  15
HETATM   15  O3  UNL     1      20.619   0.318  52.248  1.00  0.00    -0.326 OA
BRANCH  15  16
HETATM   16  C9  UNL     1      19.297  -0.100  52.158  1.00  0.00     0.071 A 
HETATM   17  C10 UNL     1      18.337   0.210  51.203  1.00  0.00     0.037 A 
HETATM   18  C11 UNL     1      17.077  -0.336  51.331  1.00  0.00     0.003 A 
HETATM   19  C12 UNL     1      16.743  -1.176  52.373  1.00  0.00     0.000 A 
HETATM   20  C13 UNL     1      17.700  -1.497  53.343  1.00  0.00     0.003 A 
HETATM   21  C14 UNL     1      18.964  -0.944  53.207  1.00  0.00     0.037 A 
ENDBRANCH  15  16
ENDBRANCH  14  15
ENDBRANCH  13  14
ENDBRANCH  12  13
ENDBRANCH   1  12
TORSDOF 6
ENDMDL
