MODEL 1
REMARK VINA RESULT:      -8.2      0.000      0.000
REMARK  5 active torsions:
REMARK  status: ('A' for Active; 'I' for Inactive)
REMARK    1  A    between atoms: C7_7  and  C8_8 
REMARK    2  A    between atoms: C8_8  and  N1_9 
REMARK    3  A    between atoms: N1_9  and  O1_10 
REMARK    4  A    between atoms: O1_10  and  C9_11 
REMARK    5  A    between atoms: C14_16  and  N2_17 
REMARK       I    between atoms: N2_17  and  C15_18 
REMARK       I    between atoms: C15_18  and  N3_19 
ROOT
HETATM    1  C9  UNL     1      23.964   2.992  52.612  1.00  0.00     0.100 A 
HETATM    2  C10 UNL     1      23.327   1.784  52.358  1.00  0.00     0.040 A 
HETATM    3  C11 UNL     1      23.973   0.634  52.762  1.00  0.00     0.012 A 
HETATM    4  C12 UNL     1      25.198   0.650  53.395  1.00  0.00    -0.035 A 
HETATM    5  C13 UNL     1      25.855  -0.625  53.815  1.00  0.00     0.050 C 
HETATM    6  C14 UNL     1      25.841   1.839  53.656  1.00  0.00     0.045 A 
HETATM    7  C16 UNL     1      25.185   2.954  53.248  1.00  0.00     0.069 A 
ENDROOT
BRANCH   1   8
HETATM    8  O1  UNL     1      23.343   4.152  52.219  1.00  0.00    -0.242 OA
BRANCH   8   9
HETATM    9  N1  UNL     1      23.974   5.100  51.495  1.00  0.00    -0.292 N 
HETATM   10  H10 UNL     1      24.763   5.572  51.940  1.00  0.00     0.188 HD
BRANCH   9  11
HETATM   11  C8  UNL     1      24.087   4.860  50.097  1.00  0.00     0.186 C 
BRANCH  11  12
HETATM   12  C7  UNL     1      25.367   5.191  49.480  1.00  0.00    -0.033 A 
HETATM   13  C2  UNL     1      26.459   4.380  49.313  1.00  0.00    -0.054 A 
HETATM   14  C1  UNL     1      26.419   2.994  49.817  1.00  0.00     0.049 C 
HETATM   15  C3  UNL     1      27.643   4.750  48.708  1.00  0.00     0.007 A 
HETATM   16  C4  UNL     1      27.763   6.039  48.223  1.00  0.00     0.001 A 
HETATM   17  C5  UNL     1      26.704   6.886  48.365  1.00  0.00     0.001 A 
HETATM   18  C6  UNL     1      25.540   6.480  48.974  1.00  0.00     0.009 A 
ENDBRANCH  11  12
ENDBRANCH   9  11
ENDBRANCH   8   9
ENDBRANCH   1   8
BRANCH   6  19
HETATM   19  N2  UNL     1      27.096   1.804  54.309  1.00  0.00    -0.309 N 
HETATM   20  C15 UNL     1      28.376   2.175  53.836  1.00  0.00     0.318 C 
HETATM   21  N3  UNL     1      29.573   2.095  54.591  1.00  0.00    -0.352 N 
HETATM   22  O2  UNL     1      28.496   2.608  52.681  1.00  0.00    -0.247 OA
HETATM   23  H17 UNL     1      30.293   1.427  54.964  1.00  0.00     0.160 HD
HETATM   24  H18 UNL     1      30.054   2.937  55.007  1.00  0.00     0.160 HD
HETATM   25  H16 UNL     1      27.157   1.458  55.300  1.00  0.00     0.170 HD
ENDBRANCH   6  19
TORSDOF 5
ENDMDL
MODEL 2
REMARK VINA RESULT:      -7.8      2.250      3.106
REMARK  5 active torsions:
REMARK  status: ('A' for Active; 'I' for Inactive)
REMARK    1  A    between atoms: C7_7  and  C8_8 
REMARK    2  A    between atoms: C8_8  and  N1_9 
REMARK    3  A    between atoms: N1_9  and  O1_10 
REMARK    4  A    between atoms: O1_10  and  C9_11 
REMARK    5  A    between atoms: C14_16  and  N2_17 
REMARK       I    between atoms: N2_17  and  C15_18 
REMARK       I    between atoms: C15_18  and  N3_19 
ROOT
HETATM    1  C9  UNL     1      26.294   2.122  51.476  1.00  0.00     0.100 A 
HETATM    2  C10 UNL     1      25.239   2.507  52.293  1.00  0.00     0.040 A 
HETATM    3  C11 UNL     1      24.752   1.566  53.177  1.00  0.00     0.012 A 
HETATM    4  C12 UNL     1      25.269   0.292  53.270  1.00  0.00    -0.035 A 
HETATM    5  C13 UNL     1      24.705  -0.689  54.246  1.00  0.00     0.050 C 
HETATM    6  C14 UNL     1      26.316  -0.105  52.468  1.00  0.00     0.045 A 
HETATM    7  C16 UNL     1      26.776   0.838  51.608  1.00  0.00     0.069 A 
ENDROOT
BRANCH   1   8
HETATM    8  O1  UNL     1      26.798   3.038  50.586  1.00  0.00    -0.242 OA
BRANCH   8   9
HETATM    9  N1  UNL     1      26.314   4.294  50.489  1.00  0.00    -0.292 N 
HETATM   10  H10 UNL     1      26.670   4.980  51.157  1.00  0.00     0.188 HD
BRANCH   9  11
HETATM   11  C8  UNL     1      26.048   4.772  49.175  1.00  0.00     0.186 C 
BRANCH  11  12
HETATM   12  C7  UNL     1      27.062   5.633  48.577  1.00  0.00    -0.033 A 
HETATM   13  C2  UNL     1      26.904   6.896  48.067  1.00  0.00    -0.054 A 
HETATM   14  C1  UNL     1      25.566   7.517  48.065  1.00  0.00     0.049 C 
HETATM   15  C3  UNL     1      27.909   7.668  47.522  1.00  0.00     0.007 A 
HETATM   16  C4  UNL     1      29.190   7.149  47.474  1.00  0.00     0.001 A 
HETATM   17  C5  UNL     1      29.399   5.895  47.969  1.00  0.00     0.001 A 
HETATM   18  C6  UNL     1      28.371   5.156  48.504  1.00  0.00     0.009 A 
ENDBRANCH  11  12
ENDBRANCH   9  11
ENDBRANCH   8   9
ENDBRANCH   1   8
BRANCH   6  19
HETATM   19  N2  UNL     1      26.813  -1.423  52.602  1.00  0.00    -0.309 N 
HETATM   20  C15 UNL     1      28.073  -1.876  53.054  1.00  0.00     0.318 C 
HETATM   21  N3  UNL     1      28.460  -3.237  53.145  1.00  0.00    -0.352 N 
HETATM   22  O2  UNL     1      28.927  -1.049  53.405  1.00  0.00    -0.247 OA
HETATM   23  H17 UNL     1      28.759  -4.070  52.579  1.00  0.00     0.160 HD
HETATM   24  H18 UNL     1      28.524  -3.762  54.058  1.00  0.00     0.160 HD
HETATM   25  H16 UNL     1      26.202  -2.238  52.341  1.00  0.00     0.170 HD
ENDBRANCH   6  19
TORSDOF 5
ENDMDL
MODEL 3
REMARK VINA RESULT:      -7.3      3.182      6.339
REMARK  5 active torsions:
REMARK  status: ('A' for Active; 'I' for Inactive)
REMARK    1  A    between atoms: C7_7  and  C8_8 
REMARK    2  A    between atoms: C8_8  and  N1_9 
REMARK    3  A    between atoms: N1_9  and  O1_10 
REMARK    4  A    between atoms: O1_10  and  C9_11 
REMARK    5  A    between atoms: C14_16  and  N2_17 
REMARK       I    between atoms: N2_17  and  C15_18 
REMARK       I    between atoms: C15_18  and  N3_19 
ROOT
HETATM    1  C9  UNL     1      24.010   2.378  52.340  1.00  0.00     0.100 A 
HETATM    2  C10 UNL     1      23.874   2.810  51.028  1.00  0.00     0.040 A 
HETATM    3  C11 UNL     1      22.906   2.197  50.259  1.00  0.00     0.012 A 
HETATM    4  C12 UNL     1      22.092   1.196  50.746  1.00  0.00    -0.035 A 
HETATM    5  C13 UNL     1      21.058   0.564  49.872  1.00  0.00     0.050 C 
HETATM    6  C14 UNL     1      22.214   0.757  52.045  1.00  0.00     0.045 A 
HETATM    7  C16 UNL     1      23.172   1.376  52.778  1.00  0.00     0.069 A 
ENDROOT
BRANCH   1   8
HETATM    8  O1  UNL     1      24.966   2.972  53.127  1.00  0.00    -0.242 OA
BRANCH   8   9
HETATM    9  N1  UNL     1      26.251   2.558  53.140  1.00  0.00    -0.292 N 
HETATM   10  H10 UNL     1      26.957   3.234  52.844  1.00  0.00     0.188 HD
BRANCH   9  11
HETATM   11  C8  UNL     1      26.623   1.676  54.193  1.00  0.00     0.186 C 
BRANCH  11  12
HETATM   12  C7  UNL     1      27.573   0.622  53.855  1.00  0.00    -0.033 A 
HETATM   13  C2  UNL     1      27.308  -0.621  53.340  1.00  0.00    -0.054 A 
HETATM   14  C1  UNL     1      25.910  -1.023  53.095  1.00  0.00     0.049 C 
HETATM   15  C3  UNL     1      28.255  -1.574  53.030  1.00  0.00     0.007 A 
HETATM   16  C4  UNL     1      29.588  -1.278  53.246  1.00  0.00     0.001 A 
HETATM   17  C5  UNL     1      29.905  -0.053  53.757  1.00  0.00     0.001 A 
HETATM   18  C6  UNL     1      28.931   0.871  54.054  1.00  0.00     0.009 A 
ENDBRANCH  11  12
ENDBRANCH   9  11
ENDBRANCH   8   9
ENDBRANCH   1   8
BRANCH   6  19
HETATM   19  N2  UNL     1      21.354  -0.273  52.498  1.00  0.00    -0.309 N 
HETATM   20  C15 UNL     1      20.598  -0.364  53.689  1.00  0.00     0.318 C 
HETATM   21  N3  UNL     1      19.764  -1.457  54.037  1.00  0.00    -0.352 N 
HETATM   22  O2  UNL     1      20.642   0.562  54.512  1.00  0.00    -0.247 OA
HETATM   23  H17 UNL     1      19.771  -2.448  54.383  1.00  0.00     0.160 HD
HETATM   24  H18 UNL     1      18.711  -1.422  53.984  1.00  0.00     0.160 HD
HETATM   25  H16 UNL     1      21.213  -1.130  51.907  1.00  0.00     0.170 HD
ENDBRANCH   6  19
TORSDOF 5
ENDMDL
MODEL 4
REMARK VINA RESULT:      -7.3      4.157      7.087
REMARK  5 active torsions:
REMARK  status: ('A' for Active; 'I' for Inactive)
REMARK    1  A    between atoms: C7_7  and  C8_8 
REMARK    2  A    between atoms: C8_8  and  N1_9 
REMARK    3  A    between atoms: N1_9  and  O1_10 
REMARK    4  A    between atoms: O1_10  and  C9_11 
REMARK    5  A    between atoms: C14_16  and  N2_17 
REMARK       I    between atoms: N2_17  and  C15_18 
REMARK       I    between atoms: C15_18  and  N3_19 
ROOT
HETATM    1  C9  UNL     1      23.805  -0.322  53.686  1.00  0.00     0.100 A 
HETATM    2  C10 UNL     1      23.363   0.549  52.698  1.00  0.00     0.040 A 
HETATM    3  C11 UNL     1      24.326   1.226  51.978  1.00  0.00     0.012 A 
HETATM    4  C12 UNL     1      25.676   1.066  52.206  1.00  0.00    -0.035 A 
HETATM    5  C13 UNL     1      26.679   1.824  51.398  1.00  0.00     0.050 C 
HETATM    6  C14 UNL     1      26.131   0.207  53.181  1.00  0.00     0.045 A 
HETATM    7  C16 UNL     1      25.165  -0.446  53.873  1.00  0.00     0.069 A 
ENDROOT
BRANCH   1   8
HETATM    8  O1  UNL     1      22.868  -1.008  54.418  1.00  0.00    -0.242 OA
BRANCH   8   9
HETATM    9  N1  UNL     1      21.611  -0.550  54.595  1.00  0.00    -0.292 N 
HETATM   10  H10 UNL     1      21.450   0.441  54.408  1.00  0.00     0.188 HD
BRANCH   9  11
HETATM   11  C8  UNL     1      20.556  -1.439  54.244  1.00  0.00     0.186 C 
BRANCH  11  12
HETATM   12  C7  UNL     1      19.529  -0.912  53.354  1.00  0.00    -0.033 A 
HETATM   13  C2  UNL     1      18.280  -1.422  53.108  1.00  0.00    -0.054 A 
HETATM   14  C1  UNL     1      17.863  -2.672  53.771  1.00  0.00     0.049 C 
HETATM   15  C3  UNL     1      17.344  -0.869  52.260  1.00  0.00     0.007 A 
HETATM   16  C4  UNL     1      17.666   0.297  51.589  1.00  0.00     0.001 A 
HETATM   17  C5  UNL     1      18.897   0.846  51.799  1.00  0.00     0.001 A 
HETATM   18  C6  UNL     1      19.804   0.264  52.653  1.00  0.00     0.009 A 
ENDBRANCH  11  12
ENDBRANCH   9  11
ENDBRANCH   8   9
ENDBRANCH   1   8
BRANCH   6  19
HETATM   19  N2  UNL     1      27.527   0.077  53.376  1.00  0.00    -0.309 N 
HETATM   20  C15 UNL     1      28.348  -1.072  53.317  1.00  0.00     0.318 C 
HETATM   21  N3  UNL     1      29.749  -1.079  53.532  1.00  0.00    -0.352 N 
HETATM   22  O2  UNL     1      27.838  -2.172  53.059  1.00  0.00    -0.247 OA
HETATM   23  H17 UNL     1      30.490  -1.021  54.274  1.00  0.00     0.160 HD
HETATM   24  H18 UNL     1      30.455  -1.170  52.754  1.00  0.00     0.160 HD
HETATM   25  H16 UNL     1      28.101   0.927  53.604  1.00  0.00     0.170 HD
ENDBRANCH   6  19
TORSDOF 5
ENDMDL
MODEL 5
REMARK VINA RESULT:      -7.2      1.674      2.535
REMARK  5 active torsions:
REMARK  status: ('A' for Active; 'I' for Inactive)
REMARK    1  A    between atoms: C7_7  and  C8_8 
REMARK    2  A    between atoms: C8_8  and  N1_9 
REMARK    3  A    between atoms: N1_9  and  O1_10 
REMARK    4  A    between atoms: O1_10  and  C9_11 
REMARK    5  A    between atoms: C14_16  and  N2_17 
REMARK       I    between atoms: N2_17  and  C15_18 
REMARK       I    between atoms: C15_18  and  N3_19 
ROOT
HETATM    1  C9  UNL     1      23.781   3.031  52.865  1.00  0.00     0.100 A 
HETATM    2  C10 UNL     1      23.233   1.838  52.411  1.00  0.00     0.040 A 
HETATM    3  C11 UNL     1      23.982   0.693  52.588  1.00  0.00     0.012 A 
HETATM    4  C12 UNL     1      25.223   0.700  53.188  1.00  0.00    -0.035 A 
HETATM    5  C13 UNL     1      25.994  -0.569  53.357  1.00  0.00     0.050 C 
HETATM    6  C14 UNL     1      25.780   1.874  53.644  1.00  0.00     0.045 A 
HETATM    7  C16 UNL     1      25.024   2.984  53.458  1.00  0.00     0.069 A 
ENDROOT
BRANCH   1   8
HETATM    8  O1  UNL     1      23.057   4.186  52.701  1.00  0.00    -0.242 OA
BRANCH   8   9
HETATM    9  N1  UNL     1      23.643   5.384  52.498  1.00  0.00    -0.292 N 
HETATM   10  H10 UNL     1      24.292   5.709  53.217  1.00  0.00     0.188 HD
BRANCH   9  11
HETATM   11  C8  UNL     1      23.977   5.708  51.153  1.00  0.00     0.186 C 
BRANCH  11  12
HETATM   12  C7  UNL     1      23.266   4.977  50.110  1.00  0.00    -0.033 A 
HETATM   13  C2  UNL     1      23.721   3.928  49.354  1.00  0.00    -0.054 A 
HETATM   14  C1  UNL     1      25.099   3.439  49.543  1.00  0.00     0.049 C 
HETATM   15  C3  UNL     1      22.992   3.267  48.386  1.00  0.00     0.007 A 
HETATM   16  C4  UNL     1      21.695   3.677  48.140  1.00  0.00     0.001 A 
HETATM   17  C5  UNL     1      21.195   4.717  48.867  1.00  0.00     0.001 A 
HETATM   18  C6  UNL     1      21.953   5.351  49.823  1.00  0.00     0.009 A 
ENDBRANCH  11  12
ENDBRANCH   9  11
ENDBRANCH   8   9
ENDBRANCH   1   8
BRANCH   6  19
HETATM   19  N2  UNL     1      27.057   1.829  54.254  1.00  0.00    -0.309 N 
HETATM   20  C15 UNL     1      28.324   2.169  53.730  1.00  0.00     0.318 C 
HETATM   21  N3  UNL     1      29.547   2.082  54.444  1.00  0.00    -0.352 N 
HETATM   22  O2  UNL     1      28.411   2.578  52.563  1.00  0.00    -0.247 OA
HETATM   23  H17 UNL     1      30.268   1.409  54.804  1.00  0.00     0.160 HD
HETATM   24  H18 UNL     1      30.056   2.923  54.826  1.00  0.00     0.160 HD
HETATM   25  H16 UNL     1      27.146   1.501  55.249  1.00  0.00     0.170 HD
ENDBRANCH   6  19
TORSDOF 5
ENDMDL
MODEL 6
REMARK VINA RESULT:      -7.2      2.184      4.058
REMARK  5 active torsions:
REMARK  status: ('A' for Active; 'I' for Inactive)
REMARK    1  A    between atoms: C7_7  and  C8_8 
REMARK    2  A    between atoms: C8_8  and  N1_9 
REMARK    3  A    between atoms: N1_9  and  O1_10 
REMARK    4  A    between atoms: O1_10  and  C9_11 
REMARK    5  A    between atoms: C14_16  and  N2_17 
REMARK       I    between atoms: N2_17  and  C15_18 
REMARK       I    between atoms: C15_18  and  N3_19 
ROOT
HETATM    1  C9  UNL     1      26.094   1.410  52.063  1.00  0.00     0.100 A 
HETATM    2  C10 UNL     1      26.497   0.227  52.667  1.00  0.00     0.040 A 
HETATM    3  C11 UNL     1      25.532  -0.502  53.332  1.00  0.00     0.012 A 
HETATM    4  C12 UNL     1      24.216  -0.100  53.409  1.00  0.00    -0.035 A 
HETATM    5  C13 UNL     1      23.209  -0.927  54.141  1.00  0.00     0.050 C 
HETATM    6  C14 UNL     1      23.799   1.070  52.815  1.00  0.00     0.045 A 
HETATM    7  C16 UNL     1      24.767   1.767  52.169  1.00  0.00     0.069 A 
ENDROOT
BRANCH   1   8
HETATM    8  O1  UNL     1      27.034   2.156  51.395  1.00  0.00    -0.242 OA
BRANCH   8   9
HETATM    9  N1  UNL     1      26.768   3.386  50.908  1.00  0.00    -0.292 N 
HETATM   10  H10 UNL     1      27.195   4.177  51.393  1.00  0.00     0.188 HD
BRANCH   9  11
HETATM   11  C8  UNL     1      26.657   3.498  49.494  1.00  0.00     0.186 C 
BRANCH  11  12
HETATM   12  C7  UNL     1      26.936   4.809  48.919  1.00  0.00    -0.033 A 
HETATM   13  C2  UNL     1      26.069   5.854  48.737  1.00  0.00    -0.054 A 
HETATM   14  C1  UNL     1      24.653   5.699  49.122  1.00  0.00     0.049 C 
HETATM   15  C3  UNL     1      26.398   7.080  48.196  1.00  0.00     0.007 A 
HETATM   16  C4  UNL     1      27.703   7.297  47.796  1.00  0.00     0.001 A 
HETATM   17  C5  UNL     1      28.606   6.288  47.957  1.00  0.00     0.001 A 
HETATM   18  C6  UNL     1      28.240   5.080  48.500  1.00  0.00     0.009 A 
ENDBRANCH  11  12
ENDBRANCH   9  11
ENDBRANCH   8   9
ENDBRANCH   1   8
BRANCH   6  19
HETATM   19  N2  UNL     1      22.437   1.439  52.921  1.00  0.00    -0.309 N 
HETATM   20  C15 UNL     1      21.382   1.290  51.994  1.00  0.00     0.318 C 
HETATM   21  N3  UNL     1      20.043   1.703  52.215  1.00  0.00    -0.352 N 
HETATM   22  O2  UNL     1      21.607   0.762  50.895  1.00  0.00    -0.247 OA
HETATM   23  H17 UNL     1      19.415   2.543  52.258  1.00  0.00     0.160 HD
HETATM   24  H18 UNL     1      19.258   1.033  52.429  1.00  0.00     0.160 HD
HETATM   25  H16 UNL     1      22.091   1.902  53.800  1.00  0.00     0.170 HD
ENDBRANCH   6  19
TORSDOF 5
ENDMDL
MODEL 7
REMARK VINA RESULT:      -7.2      4.208      6.789
REMARK  5 active torsions:
REMARK  status: ('A' for Active; 'I' for Inactive)
REMARK    1  A    between atoms: C7_7  and  C8_8 
REMARK    2  A    between atoms: C8_8  and  N1_9 
REMARK    3  A    between atoms: N1_9  and  O1_10 
REMARK    4  A    between atoms: O1_10  and  C9_11 
REMARK    5  A    between atoms: C14_16  and  N2_17 
REMARK       I    between atoms: N2_17  and  C15_18 
REMARK       I    between atoms: C15_18  and  N3_19 
ROOT
HETATM    1  C9  UNL     1      22.832  -0.172  53.336  1.00  0.00     0.100 A 
HETATM    2  C10 UNL     1      21.895  -0.504  54.306  1.00  0.00     0.040 A 
HETATM    3  C11 UNL     1      20.567  -0.475  53.935  1.00  0.00     0.012 A 
HETATM    4  C12 UNL     1      20.155  -0.135  52.664  1.00  0.00    -0.035 A 
HETATM    5  C13 UNL     1      18.703  -0.120  52.313  1.00  0.00     0.050 C 
HETATM    6  C14 UNL     1      21.071   0.196  51.690  1.00  0.00     0.045 A 
HETATM    7  C16 UNL     1      22.369   0.159  52.081  1.00  0.00     0.069 A 
ENDROOT
BRANCH   1   8
HETATM    8  O1  UNL     1      24.162  -0.193  53.678  1.00  0.00    -0.242 OA
BRANCH   8   9
HETATM    9  N1  UNL     1      24.985   0.851  53.444  1.00  0.00    -0.292 N 
HETATM   10  H10 UNL     1      25.269   1.406  54.252  1.00  0.00     0.188 HD
BRANCH   9  11
HETATM   11  C8  UNL     1      25.963   0.670  52.426  1.00  0.00     0.186 C 
BRANCH  11  12
HETATM   12  C7  UNL     1      27.260   0.157  52.852  1.00  0.00    -0.033 A 
HETATM   13  C2  UNL     1      28.337   0.866  53.319  1.00  0.00    -0.054 A 
HETATM   14  C1  UNL     1      28.258   2.336  53.405  1.00  0.00     0.049 C 
HETATM   15  C3  UNL     1      29.539   0.319  53.719  1.00  0.00     0.007 A 
HETATM   16  C4  UNL     1      29.696  -1.053  53.653  1.00  0.00     0.001 A 
HETATM   17  C5  UNL     1      28.654  -1.803  53.196  1.00  0.00     0.001 A 
HETATM   18  C6  UNL     1      27.471  -1.222  52.805  1.00  0.00     0.009 A 
ENDBRANCH  11  12
ENDBRANCH   9  11
ENDBRANCH   8   9
ENDBRANCH   1   8
BRANCH   6  19
HETATM   19  N2  UNL     1      20.599   0.536  50.400  1.00  0.00    -0.309 N 
HETATM   20  C15 UNL     1      20.473   1.802  49.785  1.00  0.00     0.318 C 
HETATM   21  N3  UNL     1      19.981   2.020  48.473  1.00  0.00    -0.352 N 
HETATM   22  O2  UNL     1      20.807   2.819  50.410  1.00  0.00    -0.247 OA
HETATM   23  H17 UNL     1      19.107   2.043  47.892  1.00  0.00     0.160 HD
HETATM   24  H18 UNL     1      20.602   2.261  47.655  1.00  0.00     0.160 HD
HETATM   25  H16 UNL     1      20.276  -0.223  49.748  1.00  0.00     0.170 HD
ENDBRANCH   6  19
TORSDOF 5
ENDMDL
MODEL 8
REMARK VINA RESULT:      -7.1      1.603      2.258
REMARK  5 active torsions:
REMARK  status: ('A' for Active; 'I' for Inactive)
REMARK    1  A    between atoms: C7_7  and  C8_8 
REMARK    2  A    between atoms: C8_8  and  N1_9 
REMARK    3  A    between atoms: N1_9  and  O1_10 
REMARK    4  A    between atoms: O1_10  and  C9_11 
REMARK    5  A    between atoms: C14_16  and  N2_17 
REMARK       I    between atoms: N2_17  and  C15_18 
REMARK       I    between atoms: C15_18  and  N3_19 
ROOT
HETATM    1  C9  UNL     1      23.966   2.088  51.263  1.00  0.00     0.100 A 
HETATM    2  C10 UNL     1      22.677   1.720  51.628  1.00  0.00     0.040 A 
HETATM    3  C11 UNL     1      22.551   0.775  52.626  1.00  0.00     0.012 A 
HETATM    4  C12 UNL     1      23.637   0.205  53.254  1.00  0.00    -0.035 A 
HETATM    5  C13 UNL     1      23.446  -0.814  54.330  1.00  0.00     0.050 C 
HETATM    6  C14 UNL     1      24.921   0.560  52.905  1.00  0.00     0.045 A 
HETATM    7  C16 UNL     1      25.017   1.489  51.922  1.00  0.00     0.069 A 
ENDROOT
BRANCH   1   8
HETATM    8  O1  UNL     1      24.120   3.026  50.272  1.00  0.00    -0.242 OA
BRANCH   8   9
HETATM    9  N1  UNL     1      24.557   4.278  50.523  1.00  0.00    -0.292 N 
HETATM   10  H10 UNL     1      25.310   4.377  51.206  1.00  0.00     0.188 HD
BRANCH   9  11
HETATM   11  C8  UNL     1      24.585   5.174  49.418  1.00  0.00     0.186 C 
BRANCH  11  12
HETATM   12  C7  UNL     1      25.902   5.563  48.927  1.00  0.00    -0.033 A 
HETATM   13  C2  UNL     1      26.285   6.769  48.398  1.00  0.00    -0.054 A 
HETATM   14  C1  UNL     1      25.289   7.847  48.252  1.00  0.00     0.049 C 
HETATM   15  C3  UNL     1      27.555   7.081  47.960  1.00  0.00     0.007 A 
HETATM   16  C4  UNL     1      28.542   6.117  48.050  1.00  0.00     0.001 A 
HETATM   17  C5  UNL     1      28.212   4.900  48.570  1.00  0.00     0.001 A 
HETATM   18  C6  UNL     1      26.934   4.626  48.996  1.00  0.00     0.009 A 
ENDBRANCH  11  12
ENDBRANCH   9  11
ENDBRANCH   8   9
ENDBRANCH   1   8
BRANCH   6  19
HETATM   19  N2  UNL     1      26.003  -0.053  53.580  1.00  0.00    -0.309 N 
HETATM   20  C15 UNL     1      27.013   0.521  54.384  1.00  0.00     0.318 C 
HETATM   21  N3  UNL     1      28.057  -0.202  55.015  1.00  0.00    -0.352 N 
HETATM   22  O2  UNL     1      27.017   1.747  54.574  1.00  0.00    -0.247 OA
HETATM   23  H17 UNL     1      28.968  -0.694  54.841  1.00  0.00     0.160 HD
HETATM   24  H18 UNL     1      28.076  -0.410  56.049  1.00  0.00     0.160 HD
HETATM   25  H16 UNL     1      26.135  -1.094  53.513  1.00  0.00     0.170 HD
ENDBRANCH   6  19
TORSDOF 5
ENDMDL
MODEL 9
REMARK VINA RESULT:      -7.1      3.154      6.824
REMARK  5 active torsions:
REMARK  status: ('A' for Active; 'I' for Inactive)
REMARK    1  A    between atoms: C7_7  and  C8_8 
REMARK    2  A    between atoms: C8_8  and  N1_9 
REMARK    3  A    between atoms: N1_9  and  O1_10 
REMARK    4  A    between atoms: O1_10  and  C9_11 
REMARK    5  A    between atoms: C14_16  and  N2_17 
REMARK       I    between atoms: N2_17  and  C15_18 
REMARK       I    between atoms: C15_18  and  N3_19 
ROOT
HETATM    1  C9  UNL     1      26.866   4.876  48.994  1.00  0.00     0.100 A 
HETATM    2  C10 UNL     1      26.138   6.028  48.730  1.00  0.00     0.040 A 
HETATM    3  C11 UNL     1      26.809   7.074  48.130  1.00  0.00     0.012 A 
HETATM    4  C12 UNL     1      28.145   7.008  47.794  1.00  0.00    -0.035 A 
HETATM    5  C13 UNL     1      28.825   8.169  47.145  1.00  0.00     0.050 C 
HETATM    6  C14 UNL     1      28.880   5.872  48.049  1.00  0.00     0.045 A 
HETATM    7  C16 UNL     1      28.197   4.860  48.638  1.00  0.00     0.069 A 
ENDROOT
BRANCH   1   8
HETATM    8  O1  UNL     1      26.222   3.820  49.591  1.00  0.00    -0.242 OA
BRANCH   8   9
HETATM    9  N1  UNL     1      26.116   3.702  50.931  1.00  0.00    -0.292 N 
HETATM   10  H10 UNL     1      26.391   4.511  51.489  1.00  0.00     0.188 HD
BRANCH   9  11
HETATM   11  C8  UNL     1      25.011   2.947  51.415  1.00  0.00     0.186 C 
BRANCH  11  12
HETATM   12  C7  UNL     1      25.314   1.639  51.984  1.00  0.00    -0.033 A 
HETATM   13  C2  UNL     1      24.499   0.836  52.738  1.00  0.00    -0.054 A 
HETATM   14  C1  UNL     1      23.139   1.296  53.080  1.00  0.00     0.049 C 
HETATM   15  C3  UNL     1      24.841  -0.403  53.241  1.00  0.00     0.007 A 
HETATM   16  C4  UNL     1      26.105  -0.898  52.976  1.00  0.00     0.001 A 
HETATM   17  C5  UNL     1      26.955  -0.136  52.229  1.00  0.00     0.001 A 
HETATM   18  C6  UNL     1      26.577   1.094  51.747  1.00  0.00     0.009 A 
ENDBRANCH  11  12
ENDBRANCH   9  11
ENDBRANCH   8   9
ENDBRANCH   1   8
BRANCH   6  19
HETATM   19  N2  UNL     1      30.248   5.852  47.685  1.00  0.00    -0.309 N 
HETATM   20  C15 UNL     1      31.396   5.638  48.481  1.00  0.00     0.318 C 
HETATM   21  N3  UNL     1      32.729   5.641  47.999  1.00  0.00    -0.352 N 
HETATM   22  O2  UNL     1      31.263   5.428  49.696  1.00  0.00    -0.247 OA
HETATM   23  H17 UNL     1      33.507   6.266  47.671  1.00  0.00     0.160 HD
HETATM   24  H18 UNL     1      33.298   4.763  47.861  1.00  0.00     0.160 HD
HETATM   25  H16 UNL     1      30.522   6.016  46.683  1.00  0.00     0.170 HD
ENDBRANCH   6  19
TORSDOF 5
ENDMDL
