MODEL 1
REMARK VINA RESULT:      -7.5      0.000      0.000
REMARK  6 active torsions:
REMARK  status: ('A' for Active; 'I' for Inactive)
REMARK    1  A    between atoms: O1_2  and  C2_3 
REMARK    2  A    between atoms: C9_11  and  C10_12 
REMARK    3  A    between atoms: C10_12  and  N2_13 
REMARK    4  A    between atoms: N2_13  and  C11_14 
REMARK    5  A    between atoms: C11_14  and  N3_15 
REMARK    6  A    between atoms: N3_15  and  C12_16 
ROOT
HETATM    1  C2  UNL     1      23.291  -0.497  53.625  1.00  0.00     0.069 A 
HETATM    2  C3  UNL     1      24.639  -0.699  53.811  1.00  0.00     0.039 A 
HETATM    3  C4  UNL     1      25.508   0.074  53.105  1.00  0.00     0.040 A 
HETATM    4  C5  UNL     1      25.043   1.038  52.221  1.00  0.00     0.086 A 
HETATM    5  C6  UNL     1      23.701   1.291  51.988  1.00  0.00    -0.004 A 
HETATM    6  C7  UNL     1      22.856   0.467  52.741  1.00  0.00     0.048 A 
HETATM    7  C8  UNL     1      22.896   2.189  51.162  1.00  0.00     0.162 C 
HETATM    8  N1  UNL     1      23.464   3.505  50.953  1.00  0.00    -0.374 N 
HETATM    9  C9  UNL     1      24.848   3.738  50.741  1.00  0.00     0.147 C 
HETATM   10  C18 UNL     1      26.083   3.012  50.994  1.00  0.00     0.199 C 
HETATM   11  N4  UNL     1      27.209   3.555  50.674  1.00  0.00    -0.275 NA
HETATM   12  O2  UNL     1      26.075   1.747  51.573  1.00  0.00    -0.289 OA
HETATM   13  H9  UNL     1      22.803   4.326  50.959  1.00  0.00     0.160 HD
HETATM   14  H17 UNL     1      27.150   4.503  50.244  1.00  0.00     0.189 HD
ENDROOT
BRANCH   9  15
HETATM   15  C10 UNL     1      25.085   4.915  50.178  1.00  0.00     0.014 C 
BRANCH  15  16
HETATM   16  N2  UNL     1      25.618   6.062  49.918  1.00  0.00    -0.226 NA
BRANCH  16  17
HETATM   17  C11 UNL     1      26.370   6.223  48.677  1.00  0.00     0.281 C 
BRANCH  17  18
HETATM   18  N3  UNL     1      27.749   5.908  48.994  1.00  0.00    -0.371 N 
HETATM   19  H12 UNL     1      28.003   5.350  49.847  1.00  0.00     0.161 HD
BRANCH  18  20
HETATM   20  C12 UNL     1      28.788   6.343  48.161  1.00  0.00     0.030 A 
HETATM   21  C13 UNL     1      28.665   7.398  47.283  1.00  0.00     0.029 A 
HETATM   22  C14 UNL     1      29.671   7.847  46.451  1.00  0.00     0.004 A 
HETATM   23  C15 UNL     1      30.897   7.181  46.509  1.00  0.00     0.019 A 
HETATM   24  C16 UNL     1      31.108   6.114  47.360  1.00  0.00     0.013 A 
HETATM   25 BR1  UNL     1      32.778   5.217  47.431  1.00  0.00    -0.051 Br
HETATM   26  C17 UNL     1      30.029   5.750  48.148  1.00  0.00     0.048 A 
ENDBRANCH  18  20
ENDBRANCH  17  18
ENDBRANCH  16  17
ENDBRANCH  15  16
ENDBRANCH   9  15
BRANCH   1  27
HETATM   27  O1  UNL     1      22.350  -1.250  54.312  1.00  0.00    -0.356 OA
HETATM   28  C1  UNL     1      20.977  -1.021  54.266  1.00  0.00     0.210 C 
ENDBRANCH   1  27
TORSDOF 6
ENDMDL
MODEL 2
REMARK VINA RESULT:      -7.4      1.819      2.053
REMARK  6 active torsions:
REMARK  status: ('A' for Active; 'I' for Inactive)
REMARK    1  A    between atoms: O1_2  and  C2_3 
REMARK    2  A    between atoms: C9_11  and  C10_12 
REMARK    3  A    between atoms: C10_12  and  N2_13 
REMARK    4  A    between atoms: N2_13  and  C11_14 
REMARK    5  A    between atoms: C11_14  and  N3_15 
REMARK    6  A    between atoms: N3_15  and  C12_16 
ROOT
HETATM    1  C2  UNL     1      24.718  -0.050  53.366  1.00  0.00     0.069 A 
HETATM    2  C3  UNL     1      26.071  -0.183  53.150  1.00  0.00     0.039 A 
HETATM    3  C4  UNL     1      26.661   0.645  52.246  1.00  0.00     0.040 A 
HETATM    4  C5  UNL     1      25.916   1.596  51.562  1.00  0.00     0.086 A 
HETATM    5  C6  UNL     1      24.554   1.780  51.733  1.00  0.00    -0.004 A 
HETATM    6  C7  UNL     1      24.002   0.902  52.673  1.00  0.00     0.048 A 
HETATM    7  C8  UNL     1      23.503   2.646  51.200  1.00  0.00     0.162 C 
HETATM    8  N1  UNL     1      23.924   3.993  50.874  1.00  0.00    -0.374 N 
HETATM    9  C9  UNL     1      25.175   4.302  50.280  1.00  0.00     0.147 C 
HETATM   10  C18 UNL     1      26.464   3.639  50.146  1.00  0.00     0.199 C 
HETATM   11  N4  UNL     1      27.422   4.245  49.531  1.00  0.00    -0.275 NA
HETATM   12  O2  UNL     1      26.682   2.368  50.666  1.00  0.00    -0.289 OA
HETATM   13  H9  UNL     1      23.255   4.778  51.094  1.00  0.00     0.160 HD
HETATM   14  H17 UNL     1      27.198   5.195  49.163  1.00  0.00     0.189 HD
ENDROOT
BRANCH   9  15
HETATM   15  C10 UNL     1      25.184   5.497  49.706  1.00  0.00     0.014 C 
BRANCH  15  16
HETATM   16  N2  UNL     1      25.074   6.429  48.820  1.00  0.00    -0.226 NA
BRANCH  16  17
HETATM   17  C11 UNL     1      25.794   7.684  49.024  1.00  0.00     0.281 C 
BRANCH  17  18
HETATM   18  N3  UNL     1      27.141   7.319  49.416  1.00  0.00    -0.371 N 
HETATM   19  H12 UNL     1      27.324   6.696  50.242  1.00  0.00     0.161 HD
BRANCH  18  20
HETATM   20  C12 UNL     1      28.244   7.793  48.695  1.00  0.00     0.030 A 
HETATM   21  C13 UNL     1      28.794   7.123  47.623  1.00  0.00     0.029 A 
HETATM   22  C14 UNL     1      29.880   7.567  46.895  1.00  0.00     0.004 A 
HETATM   23  C15 UNL     1      30.456   8.780  47.276  1.00  0.00     0.019 A 
HETATM   24  C16 UNL     1      29.969   9.518  48.338  1.00  0.00     0.013 A 
HETATM   25 BR1  UNL     1      30.760  11.165  48.846  1.00  0.00    -0.051 Br
HETATM   26  C17 UNL     1      28.877   8.977  48.996  1.00  0.00     0.048 A 
ENDBRANCH  18  20
ENDBRANCH  17  18
ENDBRANCH  16  17
ENDBRANCH  15  16
ENDBRANCH   9  15
BRANCH   1  27
HETATM   27  O1  UNL     1      24.053  -0.862  54.274  1.00  0.00    -0.356 OA
HETATM   28  C1  UNL     1      22.668  -0.907  54.416  1.00  0.00     0.210 C 
ENDBRANCH   1  27
TORSDOF 6
ENDMDL
MODEL 3
REMARK VINA RESULT:      -7.4      2.383      3.572
REMARK  6 active torsions:
REMARK  status: ('A' for Active; 'I' for Inactive)
REMARK    1  A    between atoms: O1_2  and  C2_3 
REMARK    2  A    between atoms: C9_11  and  C10_12 
REMARK    3  A    between atoms: C10_12  and  N2_13 
REMARK    4  A    between atoms: N2_13  and  C11_14 
REMARK    5  A    between atoms: C11_14  and  N3_15 
REMARK    6  A    between atoms: N3_15  and  C12_16 
ROOT
HETATM    1  C2  UNL     1      20.276  -0.683  53.454  1.00  0.00     0.069 A 
HETATM    2  C3  UNL     1      21.048  -1.329  54.391  1.00  0.00     0.039 A 
HETATM    3  C4  UNL     1      22.400  -1.195  54.312  1.00  0.00     0.040 A 
HETATM    4  C5  UNL     1      22.980  -0.428  53.311  1.00  0.00     0.086 A 
HETATM    5  C6  UNL     1      22.259   0.246  52.338  1.00  0.00    -0.004 A 
HETATM    6  C7  UNL     1      20.877   0.072  52.470  1.00  0.00     0.048 A 
HETATM    7  C8  UNL     1      22.535   1.104  51.187  1.00  0.00     0.162 C 
HETATM    8  N1  UNL     1      23.684   1.974  51.330  1.00  0.00    -0.374 N 
HETATM    9  C9  UNL     1      24.894   1.579  51.959  1.00  0.00     0.147 C 
HETATM   10  C18 UNL     1      25.298   0.538  52.893  1.00  0.00     0.199 C 
HETATM   11  N4  UNL     1      26.527   0.483  53.280  1.00  0.00    -0.275 NA
HETATM   12  O2  UNL     1      24.388  -0.396  53.375  1.00  0.00    -0.289 OA
HETATM   13  H9  UNL     1      23.606   2.950  50.941  1.00  0.00     0.160 HD
HETATM   14  H17 UNL     1      27.161   1.210  52.884  1.00  0.00     0.189 HD
ENDROOT
BRANCH   9  15
HETATM   15  C10 UNL     1      25.917   2.352  51.624  1.00  0.00     0.014 C 
BRANCH  15  16
HETATM   16  N2  UNL     1      26.916   2.844  50.971  1.00  0.00    -0.226 NA
BRANCH  16  17
HETATM   17  C11 UNL     1      26.692   3.356  49.621  1.00  0.00     0.281 C 
BRANCH  17  18
HETATM   18  N3  UNL     1      27.191   4.717  49.615  1.00  0.00    -0.371 N 
HETATM   19  H12 UNL     1      28.060   4.986  50.141  1.00  0.00     0.161 HD
BRANCH  18  20
HETATM   20  C12 UNL     1      26.521   5.717  48.899  1.00  0.00     0.030 A 
HETATM   21  C13 UNL     1      25.147   5.810  48.830  1.00  0.00     0.029 A 
HETATM   22  C14 UNL     1      24.462   6.784  48.132  1.00  0.00     0.004 A 
HETATM   23  C15 UNL     1      25.219   7.739  47.452  1.00  0.00     0.019 A 
HETATM   24  C16 UNL     1      26.600   7.722  47.467  1.00  0.00     0.013 A 
HETATM   25 BR1  UNL     1      27.619   9.025  46.539  1.00  0.00    -0.051 Br
HETATM   26  C17 UNL     1      27.181   6.700  48.199  1.00  0.00     0.048 A 
ENDBRANCH  18  20
ENDBRANCH  17  18
ENDBRANCH  16  17
ENDBRANCH  15  16
ENDBRANCH   9  15
BRANCH   1  27
HETATM   27  O1  UNL     1      18.891  -0.777  53.476  1.00  0.00    -0.356 OA
HETATM   28  C1  UNL     1      18.064  -0.406  52.419  1.00  0.00     0.210 C 
ENDBRANCH   1  27
TORSDOF 6
ENDMDL
MODEL 4
REMARK VINA RESULT:      -7.4      3.014      4.792
REMARK  6 active torsions:
REMARK  status: ('A' for Active; 'I' for Inactive)
REMARK    1  A    between atoms: O1_2  and  C2_3 
REMARK    2  A    between atoms: C9_11  and  C10_12 
REMARK    3  A    between atoms: C10_12  and  N2_13 
REMARK    4  A    between atoms: N2_13  and  C11_14 
REMARK    5  A    between atoms: C11_14  and  N3_15 
REMARK    6  A    between atoms: N3_15  and  C12_16 
ROOT
HETATM    1  C2  UNL     1      27.986  -0.285  53.378  1.00  0.00     0.069 A 
HETATM    2  C3  UNL     1      27.243  -1.337  52.893  1.00  0.00     0.039 A 
HETATM    3  C4  UNL     1      25.912  -1.142  52.688  1.00  0.00     0.040 A 
HETATM    4  C5  UNL     1      25.323   0.084  52.965  1.00  0.00     0.086 A 
HETATM    5  C6  UNL     1      26.014   1.181  53.455  1.00  0.00    -0.004 A 
HETATM    6  C7  UNL     1      27.376   0.922  53.645  1.00  0.00     0.048 A 
HETATM    7  C8  UNL     1      25.722   2.560  53.841  1.00  0.00     0.162 C 
HETATM    8  N1  UNL     1      24.691   3.212  53.060  1.00  0.00    -0.374 N 
HETATM    9  C9  UNL     1      23.512   2.558  52.614  1.00  0.00     0.147 C 
HETATM   10  C18 UNL     1      23.092   1.179  52.413  1.00  0.00     0.199 C 
HETATM   11  N4  UNL     1      21.907   0.942  51.962  1.00  0.00    -0.275 NA
HETATM   12  O2  UNL     1      23.940   0.114  52.697  1.00  0.00    -0.289 OA
HETATM   13  H9  UNL     1      24.834   4.227  52.816  1.00  0.00     0.160 HD
HETATM   14  H17 UNL     1      21.318   1.781  51.768  1.00  0.00     0.189 HD
ENDROOT
BRANCH   9  15
HETATM   15  C10 UNL     1      22.550   3.410  52.291  1.00  0.00     0.014 C 
BRANCH  15  16
HETATM   16  N2  UNL     1      21.764   4.160  51.594  1.00  0.00    -0.226 NA
BRANCH  16  17
HETATM   17  C11 UNL     1      22.326   4.935  50.490  1.00  0.00     0.281 C 
BRANCH  17  18
HETATM   18  N3  UNL     1      23.174   4.024  49.745  1.00  0.00    -0.371 N 
HETATM   19  H12 UNL     1      22.823   3.089  49.419  1.00  0.00     0.161 HD
BRANCH  18  20
HETATM   20  C12 UNL     1      24.495   4.373  49.439  1.00  0.00     0.030 A 
HETATM   21  C13 UNL     1      25.563   3.519  49.604  1.00  0.00     0.029 A 
HETATM   22  C14 UNL     1      26.874   3.837  49.311  1.00  0.00     0.004 A 
HETATM   23  C15 UNL     1      27.128   5.115  48.810  1.00  0.00     0.019 A 
HETATM   24  C16 UNL     1      26.117   6.035  48.612  1.00  0.00     0.013 A 
HETATM   25 BR1  UNL     1      26.474   7.769  47.931  1.00  0.00    -0.051 Br
HETATM   26  C17 UNL     1      24.841   5.608  48.941  1.00  0.00     0.048 A 
ENDBRANCH  18  20
ENDBRANCH  17  18
ENDBRANCH  16  17
ENDBRANCH  15  16
ENDBRANCH   9  15
BRANCH   1  27
HETATM   27  O1  UNL     1      29.348  -0.415  53.610  1.00  0.00    -0.356 OA
HETATM   28  C1  UNL     1      30.034  -1.626  53.597  1.00  0.00     0.210 C 
ENDBRANCH   1  27
TORSDOF 6
ENDMDL
MODEL 5
REMARK VINA RESULT:      -7.3      3.512      4.515
REMARK  6 active torsions:
REMARK  status: ('A' for Active; 'I' for Inactive)
REMARK    1  A    between atoms: O1_2  and  C2_3 
REMARK    2  A    between atoms: C9_11  and  C10_12 
REMARK    3  A    between atoms: C10_12  and  N2_13 
REMARK    4  A    between atoms: N2_13  and  C11_14 
REMARK    5  A    between atoms: C11_14  and  N3_15 
REMARK    6  A    between atoms: N3_15  and  C12_16 
ROOT
HETATM    1  C2  UNL     1      20.396  -0.597  53.530  1.00  0.00     0.069 A 
HETATM    2  C3  UNL     1      21.158  -1.230  54.485  1.00  0.00     0.039 A 
HETATM    3  C4  UNL     1      22.511  -1.105  54.415  1.00  0.00     0.040 A 
HETATM    4  C5  UNL     1      23.104  -0.359  53.405  1.00  0.00     0.086 A 
HETATM    5  C6  UNL     1      22.395   0.302  52.415  1.00  0.00    -0.004 A 
HETATM    6  C7  UNL     1      21.010   0.138  52.538  1.00  0.00     0.048 A 
HETATM    7  C8  UNL     1      22.685   1.138  51.251  1.00  0.00     0.162 C 
HETATM    8  N1  UNL     1      23.838   2.004  51.389  1.00  0.00    -0.374 N 
HETATM    9  C9  UNL     1      25.040   1.614  52.036  1.00  0.00     0.147 C 
HETATM   10  C18 UNL     1      25.430   0.587  52.990  1.00  0.00     0.199 C 
HETATM   11  N4  UNL     1      26.656   0.532  53.389  1.00  0.00    -0.275 NA
HETATM   12  O2  UNL     1      24.510  -0.334  53.481  1.00  0.00    -0.289 OA
HETATM   13  H9  UNL     1      23.769   2.974  50.982  1.00  0.00     0.160 HD
HETATM   14  H17 UNL     1      27.297   1.249  52.986  1.00  0.00     0.189 HD
ENDROOT
BRANCH   9  15
HETATM   15  C10 UNL     1      26.070   2.375  51.695  1.00  0.00     0.014 C 
BRANCH  15  16
HETATM   16  N2  UNL     1      27.055   2.873  51.025  1.00  0.00    -0.226 NA
BRANCH  16  17
HETATM   17  C11 UNL     1      26.768   3.622  49.804  1.00  0.00     0.281 C 
BRANCH  17  18
HETATM   18  N3  UNL     1      25.949   4.750  50.203  1.00  0.00    -0.371 N 
HETATM   19  H12 UNL     1      25.979   5.133  51.181  1.00  0.00     0.161 HD
BRANCH  18  20
HETATM   20  C12 UNL     1      25.088   5.363  49.284  1.00  0.00     0.030 A 
HETATM   21  C13 UNL     1      25.370   6.560  48.662  1.00  0.00     0.029 A 
HETATM   22  C14 UNL     1      24.540   7.186  47.754  1.00  0.00     0.004 A 
HETATM   23  C15 UNL     1      23.332   6.557  47.448  1.00  0.00     0.019 A 
HETATM   24  C16 UNL     1      22.969   5.355  48.024  1.00  0.00     0.013 A 
HETATM   25 BR1  UNL     1      21.325   4.509  47.601  1.00  0.00    -0.051 Br
HETATM   26  C17 UNL     1      23.878   4.818  48.921  1.00  0.00     0.048 A 
ENDBRANCH  18  20
ENDBRANCH  17  18
ENDBRANCH  16  17
ENDBRANCH  15  16
ENDBRANCH   9  15
BRANCH   1  27
HETATM   27  O1  UNL     1      19.011  -0.682  53.542  1.00  0.00    -0.356 OA
HETATM   28  C1  UNL     1      18.213  -0.619  52.403  1.00  0.00     0.210 C 
ENDBRANCH   1  27
TORSDOF 6
ENDMDL
MODEL 6
REMARK VINA RESULT:      -7.2      2.029      3.322
REMARK  6 active torsions:
REMARK  status: ('A' for Active; 'I' for Inactive)
REMARK    1  A    between atoms: O1_2  and  C2_3 
REMARK    2  A    between atoms: C9_11  and  C10_12 
REMARK    3  A    between atoms: C10_12  and  N2_13 
REMARK    4  A    between atoms: N2_13  and  C11_14 
REMARK    5  A    between atoms: C11_14  and  N3_15 
REMARK    6  A    between atoms: N3_15  and  C12_16 
ROOT
HETATM    1  C2  UNL     1      26.967  -0.925  53.160  1.00  0.00     0.069 A 
HETATM    2  C3  UNL     1      25.658  -1.229  53.459  1.00  0.00     0.039 A 
HETATM    3  C4  UNL     1      24.715  -0.268  53.264  1.00  0.00     0.040 A 
HETATM    4  C5  UNL     1      25.066   0.984  52.779  1.00  0.00     0.086 A 
HETATM    5  C6  UNL     1      26.363   1.353  52.460  1.00  0.00    -0.004 A 
HETATM    6  C7  UNL     1      27.288   0.326  52.680  1.00  0.00     0.048 A 
HETATM    7  C8  UNL     1      27.058   2.534  51.950  1.00  0.00     0.162 C 
HETATM    8  N1  UNL     1      26.304   3.329  51.002  1.00  0.00    -0.374 N 
HETATM    9  C9  UNL     1      24.912   3.580  51.120  1.00  0.00     0.147 C 
HETATM   10  C18 UNL     1      23.793   2.970  51.822  1.00  0.00     0.199 C 
HETATM   11  N4  UNL     1      22.613   3.473  51.683  1.00  0.00    -0.275 NA
HETATM   12  O2  UNL     1      23.969   1.857  52.638  1.00  0.00    -0.289 OA
HETATM   13  H9  UNL     1      26.829   3.738  50.184  1.00  0.00     0.160 HD
HETATM   14  H17 UNL     1      22.545   4.306  51.059  1.00  0.00     0.189 HD
ENDROOT
BRANCH   9  15
HETATM   15  C10 UNL     1      24.523   4.629  50.409  1.00  0.00     0.014 C 
BRANCH  15  16
HETATM   16  N2  UNL     1      24.316   5.850  50.042  1.00  0.00    -0.226 NA
BRANCH  16  17
HETATM   17  C11 UNL     1      25.463   6.683  49.692  1.00  0.00     0.281 C 
BRANCH  17  18
HETATM   18  N3  UNL     1      26.233   5.928  48.722  1.00  0.00    -0.371 N 
HETATM   19  H12 UNL     1      25.810   5.130  48.186  1.00  0.00     0.161 HD
BRANCH  18  20
HETATM   20  C12 UNL     1      27.573   6.249  48.472  1.00  0.00     0.030 A 
HETATM   21  C13 UNL     1      28.563   5.304  48.314  1.00  0.00     0.029 A 
HETATM   22  C14 UNL     1      29.891   5.593  48.068  1.00  0.00     0.004 A 
HETATM   23  C15 UNL     1      30.248   6.939  47.973  1.00  0.00     0.019 A 
HETATM   24  C16 UNL     1      29.320   7.952  48.117  1.00  0.00     0.013 A 
HETATM   25 BR1  UNL     1      29.817   9.778  47.985  1.00  0.00    -0.051 Br
HETATM   26  C17 UNL     1      28.019   7.547  48.362  1.00  0.00     0.048 A 
ENDBRANCH  18  20
ENDBRANCH  17  18
ENDBRANCH  16  17
ENDBRANCH  15  16
ENDBRANCH   9  15
BRANCH   1  27
HETATM   27  O1  UNL     1      27.979  -1.857  53.335  1.00  0.00    -0.356 OA
HETATM   28  C1  UNL     1      29.338  -1.554  53.303  1.00  0.00     0.210 C 
ENDBRANCH   1  27
TORSDOF 6
ENDMDL
MODEL 7
REMARK VINA RESULT:      -7.1      4.014      9.059
REMARK  6 active torsions:
REMARK  status: ('A' for Active; 'I' for Inactive)
REMARK    1  A    between atoms: O1_2  and  C2_3 
REMARK    2  A    between atoms: C9_11  and  C10_12 
REMARK    3  A    between atoms: C10_12  and  N2_13 
REMARK    4  A    between atoms: N2_13  and  C11_14 
REMARK    5  A    between atoms: C11_14  and  N3_15 
REMARK    6  A    between atoms: N3_15  and  C12_16 
ROOT
HETATM    1  C2  UNL     1      31.560   7.255  48.042  1.00  0.00     0.069 A 
HETATM    2  C3  UNL     1      31.606   8.527  48.565  1.00  0.00     0.039 A 
HETATM    3  C4  UNL     1      30.445   9.081  49.010  1.00  0.00     0.040 A 
HETATM    4  C5  UNL     1      29.249   8.380  48.935  1.00  0.00     0.086 A 
HETATM    5  C6  UNL     1      29.136   7.098  48.420  1.00  0.00    -0.004 A 
HETATM    6  C7  UNL     1      30.360   6.581  47.980  1.00  0.00     0.048 A 
HETATM    7  C8  UNL     1      28.081   6.110  48.199  1.00  0.00     0.162 C 
HETATM    8  N1  UNL     1      27.029   6.101  49.194  1.00  0.00    -0.374 N 
HETATM    9  C9  UNL     1      26.496   7.277  49.783  1.00  0.00     0.147 C 
HETATM   10  C18 UNL     1      26.930   8.657  49.945  1.00  0.00     0.199 C 
HETATM   11  N4  UNL     1      26.167   9.486  50.574  1.00  0.00    -0.275 NA
HETATM   12  O2  UNL     1      28.147   9.099  49.438  1.00  0.00    -0.289 OA
HETATM   13  H9  UNL     1      26.645   5.164  49.488  1.00  0.00     0.160 HD
HETATM   14  H17 UNL     1      25.268   9.096  50.931  1.00  0.00     0.189 HD
ENDROOT
BRANCH   9  15
HETATM   15  C10 UNL     1      25.306   7.076  50.333  1.00  0.00     0.014 C 
BRANCH  15  16
HETATM   16  N2  UNL     1      24.388   6.829  51.206  1.00  0.00    -0.226 NA
BRANCH  16  17
HETATM   17  C11 UNL     1      23.728   5.526  51.185  1.00  0.00     0.281 C 
BRANCH  17  18
HETATM   18  N3  UNL     1      24.770   4.539  51.387  1.00  0.00    -0.371 N 
HETATM   19  H12 UNL     1      25.784   4.772  51.239  1.00  0.00     0.161 HD
BRANCH  18  20
HETATM   20  C12 UNL     1      24.448   3.238  51.792  1.00  0.00     0.030 A 
HETATM   21  C13 UNL     1      23.333   2.560  51.349  1.00  0.00     0.029 A 
HETATM   22  C14 UNL     1      22.992   1.277  51.732  1.00  0.00     0.004 A 
HETATM   23  C15 UNL     1      23.842   0.628  52.629  1.00  0.00     0.019 A 
HETATM   24  C16 UNL     1      24.982   1.232  53.122  1.00  0.00     0.013 A 
HETATM   25 BR1  UNL     1      26.129   0.340  54.341  1.00  0.00    -0.051 Br
HETATM   26  C17 UNL     1      25.225   2.519  52.671  1.00  0.00     0.048 A 
ENDBRANCH  18  20
ENDBRANCH  17  18
ENDBRANCH  16  17
ENDBRANCH  15  16
ENDBRANCH   9  15
BRANCH   1  27
HETATM   27  O1  UNL     1      32.706   6.630  47.571  1.00  0.00    -0.356 OA
HETATM   28  C1  UNL     1      33.476   5.741  48.316  1.00  0.00     0.210 C 
ENDBRANCH   1  27
TORSDOF 6
ENDMDL
MODEL 8
REMARK VINA RESULT:      -7.1      3.346      7.648
REMARK  6 active torsions:
REMARK  status: ('A' for Active; 'I' for Inactive)
REMARK    1  A    between atoms: O1_2  and  C2_3 
REMARK    2  A    between atoms: C9_11  and  C10_12 
REMARK    3  A    between atoms: C10_12  and  N2_13 
REMARK    4  A    between atoms: N2_13  and  C11_14 
REMARK    5  A    between atoms: C11_14  and  N3_15 
REMARK    6  A    between atoms: N3_15  and  C12_16 
ROOT
HETATM    1  C2  UNL     1      27.075   6.737  48.843  1.00  0.00     0.069 A 
HETATM    2  C3  UNL     1      26.586   7.694  49.702  1.00  0.00     0.039 A 
HETATM    3  C4  UNL     1      25.509   7.377  50.471  1.00  0.00     0.040 A 
HETATM    4  C5  UNL     1      24.922   6.122  50.387  1.00  0.00     0.086 A 
HETATM    5  C6  UNL     1      25.365   5.116  49.544  1.00  0.00    -0.004 A 
HETATM    6  C7  UNL     1      26.473   5.499  48.780  1.00  0.00     0.048 A 
HETATM    7  C8  UNL     1      24.998   3.740  49.215  1.00  0.00     0.162 C 
HETATM    8  N1  UNL     1      24.475   2.962  50.319  1.00  0.00    -0.374 N 
HETATM    9  C9  UNL     1      23.602   3.490  51.307  1.00  0.00     0.147 C 
HETATM   10  C18 UNL     1      23.251   4.815  51.795  1.00  0.00     0.199 C 
HETATM   11  N4  UNL     1      22.395   4.926  52.754  1.00  0.00    -0.275 NA
HETATM   12  O2  UNL     1      23.819   5.962  51.250  1.00  0.00    -0.289 OA
HETATM   13  H9  UNL     1      24.765   1.951  50.383  1.00  0.00     0.160 HD
HETATM   14  H17 UNL     1      22.005   4.031  53.120  1.00  0.00     0.189 HD
ENDROOT
BRANCH   9  15
HETATM   15  C10 UNL     1      22.939   2.543  51.957  1.00  0.00     0.014 C 
BRANCH  15  16
HETATM   16  N2  UNL     1      22.675   1.449  52.589  1.00  0.00    -0.226 NA
BRANCH  16  17
HETATM   17  C11 UNL     1      23.655   0.932  53.541  1.00  0.00     0.281 C 
BRANCH  17  18
HETATM   18  N3  UNL     1      24.713   0.333  52.750  1.00  0.00    -0.371 N 
HETATM   19  H12 UNL     1      24.503  -0.342  51.973  1.00  0.00     0.161 HD
BRANCH  18  20
HETATM   20  C12 UNL     1      26.054   0.644  53.005  1.00  0.00     0.030 A 
HETATM   21  C13 UNL     1      26.514   1.930  53.189  1.00  0.00     0.029 A 
HETATM   22  C14 UNL     1      27.830   2.264  53.441  1.00  0.00     0.004 A 
HETATM   23  C15 UNL     1      28.754   1.220  53.514  1.00  0.00     0.019 A 
HETATM   24  C16 UNL     1      28.381  -0.099  53.343  1.00  0.00     0.013 A 
HETATM   25 BR1  UNL     1      29.646  -1.509  53.444  1.00  0.00    -0.051 Br
HETATM   26  C17 UNL     1      27.036  -0.317  53.094  1.00  0.00     0.048 A 
ENDBRANCH  18  20
ENDBRANCH  17  18
ENDBRANCH  16  17
ENDBRANCH  15  16
ENDBRANCH   9  15
BRANCH   1  27
HETATM   27  O1  UNL     1      28.171   6.993  48.031  1.00  0.00    -0.356 OA
HETATM   28  C1  UNL     1      29.175   7.908  48.335  1.00  0.00     0.210 C 
ENDBRANCH   1  27
TORSDOF 6
ENDMDL
MODEL 9
REMARK VINA RESULT:      -7.1      8.175     12.174
REMARK  6 active torsions:
REMARK  status: ('A' for Active; 'I' for Inactive)
REMARK    1  A    between atoms: O1_2  and  C2_3 
REMARK    2  A    between atoms: C9_11  and  C10_12 
REMARK    3  A    between atoms: C10_12  and  N2_13 
REMARK    4  A    between atoms: N2_13  and  C11_14 
REMARK    5  A    between atoms: C11_14  and  N3_15 
REMARK    6  A    between atoms: N3_15  and  C12_16 
ROOT
HETATM    1  C2  UNL     1      23.795  -0.126  53.386  1.00  0.00     0.069 A 
HETATM    2  C3  UNL     1      23.352  -0.845  54.472  1.00  0.00     0.039 A 
HETATM    3  C4  UNL     1      22.010  -0.999  54.637  1.00  0.00     0.040 A 
HETATM    4  C5  UNL     1      21.116  -0.443  53.733  1.00  0.00     0.086 A 
HETATM    5  C6  UNL     1      21.497   0.291  52.620  1.00  0.00    -0.004 A 
HETATM    6  C7  UNL     1      22.886   0.415  52.503  1.00  0.00     0.048 A 
HETATM    7  C8  UNL     1      20.850   0.990  51.511  1.00  0.00     0.162 C 
HETATM    8  N1  UNL     1      19.625   0.383  51.034  1.00  0.00    -0.374 N 
HETATM    9  C9  UNL     1      18.654  -0.204  51.888  1.00  0.00     0.147 C 
HETATM   10  C18 UNL     1      18.633  -0.723  53.248  1.00  0.00     0.199 C 
HETATM   11  N4  UNL     1      17.536  -1.217  53.714  1.00  0.00    -0.275 NA
HETATM   12  O2  UNL     1      19.767  -0.696  54.052  1.00  0.00    -0.289 OA
HETATM   13  H9  UNL     1      19.455   0.384  49.993  1.00  0.00     0.160 HD
HETATM   14  H17 UNL     1      16.721  -1.209  53.064  1.00  0.00     0.189 HD
ENDROOT
BRANCH   9  15
HETATM   15  C10 UNL     1      17.469  -0.319  51.306  1.00  0.00     0.014 C 
BRANCH  15  16
HETATM   16  N2  UNL     1      16.192  -0.291  51.115  1.00  0.00    -0.226 NA
BRANCH  16  17
HETATM   17  C11 UNL     1      15.454   0.919  51.467  1.00  0.00     0.281 C 
BRANCH  17  18
HETATM   18  N3  UNL     1      14.880   0.679  52.776  1.00  0.00    -0.371 N 
HETATM   19  H12 UNL     1      15.183  -0.134  53.369  1.00  0.00     0.161 HD
BRANCH  18  20
HETATM   20  C12 UNL     1      13.898   1.535  53.290  1.00  0.00     0.030 A 
HETATM   21  C13 UNL     1      13.885   2.895  53.068  1.00  0.00     0.029 A 
HETATM   22  C14 UNL     1      12.930   3.761  53.562  1.00  0.00     0.004 A 
HETATM   23  C15 UNL     1      11.907   3.214  54.339  1.00  0.00     0.019 A 
HETATM   24  C16 UNL     1      11.841   1.861  54.610  1.00  0.00     0.013 A 
HETATM   25 BR1  UNL     1      10.447   1.128  55.667  1.00  0.00    -0.051 Br
HETATM   26  C17 UNL     1      12.852   1.087  54.064  1.00  0.00     0.048 A 
ENDBRANCH  18  20
ENDBRANCH  17  18
ENDBRANCH  16  17
ENDBRANCH  15  16
ENDBRANCH   9  15
BRANCH   1  27
HETATM   27  O1  UNL     1      25.150   0.068  53.158  1.00  0.00    -0.356 OA
HETATM   28  C1  UNL     1      26.147  -0.823  53.547  1.00  0.00     0.210 C 
ENDBRANCH   1  27
TORSDOF 6
ENDMDL
