MODEL 1
REMARK VINA RESULT:      -7.9      0.000      0.000
REMARK  7 active torsions:
REMARK  status: ('A' for Active; 'I' for Inactive)
REMARK    1  A    between atoms: O1_2  and  C2_3 
REMARK    2  A    between atoms: C5_6  and  O2_7 
REMARK    3  A    between atoms: C6_8  and  C7_9 
REMARK    4  A    between atoms: C7_9  and  C8_10 
REMARK    5  A    between atoms: C11_15  and  N3_16 
REMARK    6  A    between atoms: N3_16  and  C12_17 
REMARK    7  A    between atoms: C12_17  and  C13_18 
ROOT
HETATM    1  C8  UNL     1      27.038   0.345  53.329  1.00  0.00     0.009 A 
HETATM    2  C9  UNL     1      27.725   0.144  54.502  1.00  0.00     0.129 A 
HETATM    3  N1  UNL     1      28.617   1.063  54.866  1.00  0.00    -0.253 NA
HETATM    4  C10 UNL     1      28.872   2.171  54.138  1.00  0.00     0.234 A 
HETATM    5  N2  UNL     1      28.181   2.330  53.003  1.00  0.00    -0.224 NA
HETATM    6  C11 UNL     1      27.266   1.463  52.555  1.00  0.00     0.132 A 
ENDROOT
BRANCH   1   7
HETATM    7  C7  UNL     1      26.046  -0.639  52.898  1.00  0.00     0.085 C 
BRANCH   7   8
HETATM    8  C6  UNL     1      24.709  -0.505  53.520  1.00  0.00    -0.018 A 
HETATM    9  C5  UNL     1      24.216  -0.989  54.705  1.00  0.00     0.072 A 
HETATM   10  C4  UNL     1      22.916  -0.734  55.084  1.00  0.00     0.040 A 
HETATM   11  C3  UNL     1      22.032   0.003  54.333  1.00  0.00     0.039 A 
HETATM   12  C2  UNL     1      22.543   0.483  53.145  1.00  0.00     0.068 A 
HETATM   13  C18 UNL     1      23.843   0.250  52.726  1.00  0.00     0.047 A 
BRANCH   9  14
HETATM   14  O2  UNL     1      25.124  -1.724  55.436  1.00  0.00    -0.360 OA
HETATM   15  H6  UNL     1      24.929  -2.420  56.120  1.00  0.00     0.217 HD
ENDBRANCH   9  14
BRANCH  12  16
HETATM   16  O1  UNL     1      21.671   1.246  52.340  1.00  0.00    -0.356 OA
HETATM   17  C1  UNL     1      20.454   1.739  52.839  1.00  0.00     0.210 C 
ENDBRANCH  12  16
ENDBRANCH   7   8
ENDBRANCH   1   7
BRANCH   6  18
HETATM   18  N3  UNL     1      26.602   1.772  51.342  1.00  0.00    -0.373 N 
HETATM   19  H11 UNL     1      26.862   1.057  50.598  1.00  0.00     0.161 HD
BRANCH  18  20
HETATM   20  C12 UNL     1      25.693   2.819  50.961  1.00  0.00     0.133 C 
BRANCH  20  21
HETATM   21  C13 UNL     1      25.827   3.337  49.571  1.00  0.00     0.048 A 
HETATM   22  C14 UNL     1      27.022   4.095  49.244  1.00  0.00    -0.017 A 
HETATM   23  C15 UNL     1      26.617   5.330  48.877  1.00  0.00    -0.004 A 
HETATM   24  C16 UNL     1      25.145   5.426  48.949  1.00  0.00    -0.004 A 
HETATM   25  C17 UNL     1      24.664   4.262  49.355  1.00  0.00    -0.017 A 
ENDBRANCH  20  21
ENDBRANCH  18  20
ENDBRANCH   6  18
TORSDOF 7
ENDMDL
MODEL 2
REMARK VINA RESULT:      -7.9      2.479      4.552
REMARK  7 active torsions:
REMARK  status: ('A' for Active; 'I' for Inactive)
REMARK    1  A    between atoms: O1_2  and  C2_3 
REMARK    2  A    between atoms: C5_6  and  O2_7 
REMARK    3  A    between atoms: C6_8  and  C7_9 
REMARK    4  A    between atoms: C7_9  and  C8_10 
REMARK    5  A    between atoms: C11_15  and  N3_16 
REMARK    6  A    between atoms: N3_16  and  C12_17 
REMARK    7  A    between atoms: C12_17  and  C13_18 
ROOT
HETATM    1  C8  UNL     1      23.735   2.650  51.597  1.00  0.00     0.009 A 
HETATM    2  C9  UNL     1      22.527   2.135  52.004  1.00  0.00     0.129 A 
HETATM    3  N1  UNL     1      21.554   2.992  52.304  1.00  0.00    -0.253 NA
HETATM    4  C10 UNL     1      21.704   4.333  52.226  1.00  0.00     0.234 A 
HETATM    5  N2  UNL     1      22.894   4.794  51.826  1.00  0.00    -0.224 NA
HETATM    6  C11 UNL     1      23.931   4.012  51.504  1.00  0.00     0.132 A 
ENDROOT
BRANCH   1   7
HETATM    7  C7  UNL     1      24.827   1.740  51.254  1.00  0.00     0.085 C 
BRANCH   7   8
HETATM    8  C6  UNL     1      25.736   1.392  52.370  1.00  0.00    -0.018 A 
HETATM    9  C5  UNL     1      26.970   1.885  52.712  1.00  0.00     0.072 A 
HETATM   10  C4  UNL     1      27.641   1.399  53.812  1.00  0.00     0.040 A 
HETATM   11  C3  UNL     1      27.150   0.413  54.634  1.00  0.00     0.039 A 
HETATM   12  C2  UNL     1      25.908  -0.071  54.277  1.00  0.00     0.068 A 
HETATM   13  C18 UNL     1      25.200   0.389  53.179  1.00  0.00     0.047 A 
BRANCH   9  14
HETATM   14  O2  UNL     1      27.437   2.871  51.870  1.00  0.00    -0.360 OA
HETATM   15  H6  UNL     1      27.827   2.757  50.962  1.00  0.00     0.217 HD
ENDBRANCH   9  14
BRANCH  12  16
HETATM   16  O1  UNL     1      25.363  -1.084  55.093  1.00  0.00    -0.356 OA
HETATM   17  C1  UNL     1      23.978  -1.206  55.285  1.00  0.00     0.210 C 
ENDBRANCH  12  16
ENDBRANCH   7   8
ENDBRANCH   1   7
BRANCH   6  18
HETATM   18  N3  UNL     1      25.128   4.642  51.081  1.00  0.00    -0.373 N 
HETATM   19  H11 UNL     1      25.963   4.174  51.545  1.00  0.00     0.161 HD
BRANCH  18  20
HETATM   20  C12 UNL     1      25.396   5.737  50.188  1.00  0.00     0.133 C 
BRANCH  20  21
HETATM   21  C13 UNL     1      26.063   5.392  48.902  1.00  0.00     0.048 A 
HETATM   22  C14 UNL     1      27.170   4.453  48.945  1.00  0.00    -0.017 A 
HETATM   23  C15 UNL     1      28.259   5.105  48.482  1.00  0.00    -0.004 A 
HETATM   24  C16 UNL     1      27.905   6.492  48.120  1.00  0.00    -0.004 A 
HETATM   25  C17 UNL     1      26.617   6.678  48.360  1.00  0.00    -0.017 A 
ENDBRANCH  20  21
ENDBRANCH  18  20
ENDBRANCH   6  18
TORSDOF 7
ENDMDL
MODEL 3
REMARK VINA RESULT:      -7.8      2.562      6.052
REMARK  7 active torsions:
REMARK  status: ('A' for Active; 'I' for Inactive)
REMARK    1  A    between atoms: O1_2  and  C2_3 
REMARK    2  A    between atoms: C5_6  and  O2_7 
REMARK    3  A    between atoms: C6_8  and  C7_9 
REMARK    4  A    between atoms: C7_9  and  C8_10 
REMARK    5  A    between atoms: C11_15  and  N3_16 
REMARK    6  A    between atoms: N3_16  and  C12_17 
REMARK    7  A    between atoms: C12_17  and  C13_18 
ROOT
HETATM    1  C8  UNL     1      25.966   2.497  52.243  1.00  0.00     0.009 A 
HETATM    2  C9  UNL     1      26.825   2.865  51.235  1.00  0.00     0.129 A 
HETATM    3  N1  UNL     1      26.302   3.155  50.045  1.00  0.00    -0.253 NA
HETATM    4  C10 UNL     1      24.977   3.102  49.791  1.00  0.00     0.234 A 
HETATM    5  N2  UNL     1      24.174   2.740  50.798  1.00  0.00    -0.224 NA
HETATM    6  C11 UNL     1      24.605   2.430  52.026  1.00  0.00     0.132 A 
ENDROOT
BRANCH   1   7
HETATM    7  C7  UNL     1      26.501   2.176  53.565  1.00  0.00     0.085 C 
BRANCH   7   8
HETATM    8  C6  UNL     1      27.624   1.210  53.576  1.00  0.00    -0.018 A 
HETATM    9  C5  UNL     1      28.956   1.383  53.855  1.00  0.00     0.072 A 
HETATM   10  C4  UNL     1      29.830   0.320  53.800  1.00  0.00     0.040 A 
HETATM   11  C3  UNL     1      29.456  -0.961  53.474  1.00  0.00     0.039 A 
HETATM   12  C2  UNL     1      28.114  -1.119  53.198  1.00  0.00     0.068 A 
HETATM   13  C18 UNL     1      27.201  -0.078  53.240  1.00  0.00     0.047 A 
BRANCH   9  14
HETATM   14  O2  UNL     1      29.302   2.678  54.178  1.00  0.00    -0.360 OA
HETATM   15  H6  UNL     1      30.202   3.020  54.424  1.00  0.00     0.217 HD
ENDBRANCH   9  14
BRANCH  12  16
HETATM   16  O1  UNL     1      27.683  -2.418  52.859  1.00  0.00    -0.356 OA
HETATM   17  C1  UNL     1      26.518  -2.632  52.105  1.00  0.00     0.210 C 
ENDBRANCH  12  16
ENDBRANCH   7   8
ENDBRANCH   1   7
BRANCH   6  18
HETATM   18  N3  UNL     1      23.635   2.079  52.998  1.00  0.00    -0.373 N 
HETATM   19  H11 UNL     1      23.940   2.435  53.953  1.00  0.00     0.161 HD
BRANCH  18  20
HETATM   20  C12 UNL     1      22.387   1.369  52.925  1.00  0.00     0.133 C 
BRANCH  20  21
HETATM   21  C13 UNL     1      22.467  -0.117  53.004  1.00  0.00     0.048 A 
HETATM   22  C14 UNL     1      21.263  -0.840  53.371  1.00  0.00    -0.017 A 
HETATM   23  C15 UNL     1      21.534  -1.502  54.517  1.00  0.00    -0.004 A 
HETATM   24  C16 UNL     1      22.923  -1.237  54.941  1.00  0.00    -0.004 A 
HETATM   25  C17 UNL     1      23.487  -0.424  54.062  1.00  0.00    -0.017 A 
ENDBRANCH  20  21
ENDBRANCH  18  20
ENDBRANCH   6  18
TORSDOF 7
ENDMDL
MODEL 4
REMARK VINA RESULT:      -7.7      2.222      5.236
REMARK  7 active torsions:
REMARK  status: ('A' for Active; 'I' for Inactive)
REMARK    1  A    between atoms: O1_2  and  C2_3 
REMARK    2  A    between atoms: C5_6  and  O2_7 
REMARK    3  A    between atoms: C6_8  and  C7_9 
REMARK    4  A    between atoms: C7_9  and  C8_10 
REMARK    5  A    between atoms: C11_15  and  N3_16 
REMARK    6  A    between atoms: N3_16  and  C12_17 
REMARK    7  A    between atoms: C12_17  and  C13_18 
ROOT
HETATM    1  C8  UNL     1      26.660   1.081  53.242  1.00  0.00     0.009 A 
HETATM    2  C9  UNL     1      28.007   1.354  53.261  1.00  0.00     0.129 A 
HETATM    3  N1  UNL     1      28.851   0.327  53.331  1.00  0.00    -0.253 NA
HETATM    4  C10 UNL     1      28.442  -0.959  53.383  1.00  0.00     0.234 A 
HETATM    5  N2  UNL     1      27.123  -1.184  53.361  1.00  0.00    -0.224 NA
HETATM    6  C11 UNL     1      26.200  -0.218  53.293  1.00  0.00     0.132 A 
ENDROOT
BRANCH   1   7
HETATM    7  C7  UNL     1      25.702   2.182  53.160  1.00  0.00     0.085 C 
BRANCH   7   8
HETATM    8  C6  UNL     1      25.279   2.554  51.791  1.00  0.00    -0.018 A 
HETATM    9  C5  UNL     1      25.976   3.131  50.760  1.00  0.00     0.072 A 
HETATM   10  C4  UNL     1      25.363   3.389  49.554  1.00  0.00     0.040 A 
HETATM   11  C3  UNL     1      24.046   3.100  49.288  1.00  0.00     0.039 A 
HETATM   12  C2  UNL     1      23.360   2.519  50.334  1.00  0.00     0.068 A 
HETATM   13  C18 UNL     1      23.937   2.243  51.563  1.00  0.00     0.047 A 
BRANCH   9  14
HETATM   14  O2  UNL     1      27.293   3.410  51.055  1.00  0.00    -0.360 OA
HETATM   15  H6  UNL     1      27.771   3.239  51.911  1.00  0.00     0.217 HD
ENDBRANCH   9  14
BRANCH  12  16
HETATM   16  O1  UNL     1      22.004   2.204  50.107  1.00  0.00    -0.356 OA
HETATM   17  C1  UNL     1      21.622   1.253  49.147  1.00  0.00     0.210 C 
ENDBRANCH  12  16
ENDBRANCH   7   8
ENDBRANCH   1   7
BRANCH   6  18
HETATM   18  N3  UNL     1      24.837  -0.608  53.263  1.00  0.00    -0.373 N 
HETATM   19  H11 UNL     1      24.549  -0.824  52.262  1.00  0.00     0.161 HD
BRANCH  18  20
HETATM   20  C12 UNL     1      23.837  -0.755  54.285  1.00  0.00     0.133 C 
BRANCH  20  21
HETATM   21  C13 UNL     1      22.454  -1.054  53.817  1.00  0.00     0.048 A 
HETATM   22  C14 UNL     1      22.020  -0.456  52.567  1.00  0.00    -0.017 A 
HETATM   23  C15 UNL     1      20.960   0.331  52.853  1.00  0.00    -0.004 A 
HETATM   24  C16 UNL     1      20.662   0.278  54.298  1.00  0.00    -0.004 A 
HETATM   25  C17 UNL     1      21.532  -0.533  54.880  1.00  0.00    -0.017 A 
ENDBRANCH  20  21
ENDBRANCH  18  20
ENDBRANCH   6  18
TORSDOF 7
ENDMDL
MODEL 5
REMARK VINA RESULT:      -7.6      2.252      4.468
REMARK  7 active torsions:
REMARK  status: ('A' for Active; 'I' for Inactive)
REMARK    1  A    between atoms: O1_2  and  C2_3 
REMARK    2  A    between atoms: C5_6  and  O2_7 
REMARK    3  A    between atoms: C6_8  and  C7_9 
REMARK    4  A    between atoms: C7_9  and  C8_10 
REMARK    5  A    between atoms: C11_15  and  N3_16 
REMARK    6  A    between atoms: N3_16  and  C12_17 
REMARK    7  A    between atoms: C12_17  and  C13_18 
ROOT
HETATM    1  C8  UNL     1      21.626   1.346  52.193  1.00  0.00     0.009 A 
HETATM    2  C9  UNL     1      20.431   1.678  52.786  1.00  0.00     0.129 A 
HETATM    3  N1  UNL     1      20.063   2.957  52.773  1.00  0.00    -0.253 NA
HETATM    4  C10 UNL     1      20.809   3.932  52.207  1.00  0.00     0.234 A 
HETATM    5  N2  UNL     1      21.964   3.568  51.641  1.00  0.00    -0.224 NA
HETATM    6  C11 UNL     1      22.418   2.310  51.604  1.00  0.00     0.132 A 
ENDROOT
BRANCH   1   7
HETATM    7  C7  UNL     1      22.062  -0.049  52.182  1.00  0.00     0.085 C 
BRANCH   7   8
HETATM    8  C6  UNL     1      22.731  -0.513  53.419  1.00  0.00    -0.018 A 
HETATM    9  C5  UNL     1      22.215  -1.030  54.580  1.00  0.00     0.072 A 
HETATM   10  C4  UNL     1      23.046  -1.399  55.616  1.00  0.00     0.040 A 
HETATM   11  C3  UNL     1      24.415  -1.286  55.576  1.00  0.00     0.039 A 
HETATM   12  C2  UNL     1      24.917  -0.765  54.401  1.00  0.00     0.068 A 
HETATM   13  C18 UNL     1      24.119  -0.382  53.336  1.00  0.00     0.047 A 
BRANCH   9  14
HETATM   14  O2  UNL     1      20.841  -1.132  54.592  1.00  0.00    -0.360 OA
HETATM   15  H6  UNL     1      20.245  -1.177  55.387  1.00  0.00     0.217 HD
ENDBRANCH   9  14
BRANCH  12  16
HETATM   16  O1  UNL     1      26.319  -0.631  54.314  1.00  0.00    -0.356 OA
HETATM   17  C1  UNL     1      26.947   0.616  54.465  1.00  0.00     0.210 C 
ENDBRANCH  12  16
ENDBRANCH   7   8
ENDBRANCH   1   7
BRANCH   6  18
HETATM   18  N3  UNL     1      23.655   2.072  50.954  1.00  0.00    -0.373 N 
HETATM   19  H11 UNL     1      23.602   1.162  50.406  1.00  0.00     0.161 HD
BRANCH  18  20
HETATM   20  C12 UNL     1      24.893   2.801  50.907  1.00  0.00     0.133 C 
BRANCH  20  21
HETATM   21  C13 UNL     1      25.331   3.272  49.564  1.00  0.00     0.048 A 
HETATM   22  C14 UNL     1      26.728   3.631  49.395  1.00  0.00    -0.017 A 
HETATM   23  C15 UNL     1      26.762   4.936  49.049  1.00  0.00    -0.004 A 
HETATM   24  C16 UNL     1      25.390   5.479  48.977  1.00  0.00    -0.004 A 
HETATM   25  C17 UNL     1      24.536   4.513  49.276  1.00  0.00    -0.017 A 
ENDBRANCH  20  21
ENDBRANCH  18  20
ENDBRANCH   6  18
TORSDOF 7
ENDMDL
MODEL 6
REMARK VINA RESULT:      -7.5      1.690      4.994
REMARK  7 active torsions:
REMARK  status: ('A' for Active; 'I' for Inactive)
REMARK    1  A    between atoms: O1_2  and  C2_3 
REMARK    2  A    between atoms: C5_6  and  O2_7 
REMARK    3  A    between atoms: C6_8  and  C7_9 
REMARK    4  A    between atoms: C7_9  and  C8_10 
REMARK    5  A    between atoms: C11_15  and  N3_16 
REMARK    6  A    between atoms: N3_16  and  C12_17 
REMARK    7  A    between atoms: C12_17  and  C13_18 
ROOT
HETATM    1  C8  UNL     1      24.723   3.271  51.580  1.00  0.00     0.009 A 
HETATM    2  C9  UNL     1      24.297   3.604  50.316  1.00  0.00     0.129 A 
HETATM    3  N1  UNL     1      25.187   3.563  49.328  1.00  0.00    -0.253 NA
HETATM    4  C10 UNL     1      26.479   3.212  49.514  1.00  0.00     0.234 A 
HETATM    5  N2  UNL     1      26.853   2.895  50.758  1.00  0.00    -0.224 NA
HETATM    6  C11 UNL     1      26.032   2.906  51.814  1.00  0.00     0.132 A 
ENDROOT
BRANCH   1   7
HETATM    7  C7  UNL     1      23.773   3.298  52.691  1.00  0.00     0.085 C 
BRANCH   7   8
HETATM    8  C6  UNL     1      22.597   2.411  52.541  1.00  0.00    -0.018 A 
HETATM    9  C5  UNL     1      21.315   2.679  52.133  1.00  0.00     0.072 A 
HETATM   10  C4  UNL     1      20.373   1.676  52.072  1.00  0.00     0.040 A 
HETATM   11  C3  UNL     1      20.626   0.366  52.402  1.00  0.00     0.039 A 
HETATM   12  C2  UNL     1      21.920   0.114  52.810  1.00  0.00     0.068 A 
HETATM   13  C18 UNL     1      22.898   1.092  52.886  1.00  0.00     0.047 A 
BRANCH   9  14
HETATM   14  O2  UNL     1      21.090   3.999  51.809  1.00  0.00    -0.360 OA
HETATM   15  H6  UNL     1      20.220   4.427  51.585  1.00  0.00     0.217 HD
ENDBRANCH   9  14
BRANCH  12  16
HETATM   16  O1  UNL     1      22.228  -1.218  53.159  1.00  0.00    -0.356 OA
HETATM   17  C1  UNL     1      21.794  -1.777  54.372  1.00  0.00     0.210 C 
ENDBRANCH  12  16
ENDBRANCH   7   8
ENDBRANCH   1   7
BRANCH   6  18
HETATM   18  N3  UNL     1      26.568   2.530  53.072  1.00  0.00    -0.373 N 
HETATM   19  H11 UNL     1      25.923   2.863  53.850  1.00  0.00     0.161 HD
BRANCH  18  20
HETATM   20  C12 UNL     1      27.758   1.822  53.458  1.00  0.00     0.133 C 
BRANCH  20  21
HETATM   21  C13 UNL     1      27.605   0.361  53.705  1.00  0.00     0.048 A 
HETATM   22  C14 UNL     1      27.155  -0.468  52.600  1.00  0.00    -0.017 A 
HETATM   23  C15 UNL     1      25.988  -1.032  52.979  1.00  0.00    -0.004 A 
HETATM   24  C16 UNL     1      25.630  -0.594  54.343  1.00  0.00    -0.004 A 
HETATM   25  C17 UNL     1      26.571   0.225  54.785  1.00  0.00    -0.017 A 
ENDBRANCH  20  21
ENDBRANCH  18  20
ENDBRANCH   6  18
TORSDOF 7
ENDMDL
MODEL 7
REMARK VINA RESULT:      -7.5      2.879      5.272
REMARK  7 active torsions:
REMARK  status: ('A' for Active; 'I' for Inactive)
REMARK    1  A    between atoms: O1_2  and  C2_3 
REMARK    2  A    between atoms: C5_6  and  O2_7 
REMARK    3  A    between atoms: C6_8  and  C7_9 
REMARK    4  A    between atoms: C7_9  and  C8_10 
REMARK    5  A    between atoms: C11_15  and  N3_16 
REMARK    6  A    between atoms: N3_16  and  C12_17 
REMARK    7  A    between atoms: C12_17  and  C13_18 
ROOT
HETATM    1  C8  UNL     1      23.181  -0.401  53.468  1.00  0.00     0.009 A 
HETATM    2  C9  UNL     1      22.194  -0.768  54.352  1.00  0.00     0.129 A 
HETATM    3  N1  UNL     1      22.564  -1.295  55.516  1.00  0.00    -0.253 NA
HETATM    4  C10 UNL     1      23.857  -1.483  55.861  1.00  0.00     0.234 A 
HETATM    5  N2  UNL     1      24.787  -1.113  54.975  1.00  0.00    -0.224 NA
HETATM    6  C11 UNL     1      24.513  -0.576  53.780  1.00  0.00     0.132 A 
ENDROOT
BRANCH   1   7
HETATM    7  C7  UNL     1      22.814   0.186  52.181  1.00  0.00     0.085 C 
BRANCH   7   8
HETATM    8  C6  UNL     1      22.513   1.636  52.209  1.00  0.00    -0.018 A 
HETATM    9  C5  UNL     1      23.343   2.728  52.178  1.00  0.00     0.072 A 
HETATM   10  C4  UNL     1      22.828   4.004  52.216  1.00  0.00     0.040 A 
HETATM   11  C3  UNL     1      21.484   4.285  52.284  1.00  0.00     0.039 A 
HETATM   12  C2  UNL     1      20.663   3.177  52.314  1.00  0.00     0.068 A 
HETATM   13  C18 UNL     1      21.139   1.877  52.278  1.00  0.00     0.047 A 
BRANCH   9  14
HETATM   14  O2  UNL     1      24.684   2.416  52.110  1.00  0.00    -0.360 OA
HETATM   15  H6  UNL     1      25.395   2.909  51.621  1.00  0.00     0.217 HD
ENDBRANCH   9  14
BRANCH  12  16
HETATM   16  O1  UNL     1      19.275   3.416  52.383  1.00  0.00    -0.356 OA
HETATM   17  C1  UNL     1      18.542   3.819  51.255  1.00  0.00     0.210 C 
ENDBRANCH  12  16
ENDBRANCH   7   8
ENDBRANCH   1   7
BRANCH   6  18
HETATM   18  N3  UNL     1      25.605  -0.218  52.951  1.00  0.00    -0.373 N 
HETATM   19  H11 UNL     1      25.361   0.656  52.395  1.00  0.00     0.161 HD
BRANCH  18  20
HETATM   20  C12 UNL     1      26.906  -0.793  52.740  1.00  0.00     0.133 C 
BRANCH  20  21
HETATM   21  C13 UNL     1      27.884  -0.639  53.853  1.00  0.00     0.048 A 
HETATM   22  C14 UNL     1      28.126   0.701  54.359  1.00  0.00    -0.017 A 
HETATM   23  C15 UNL     1      29.434   0.968  54.157  1.00  0.00    -0.004 A 
HETATM   24  C16 UNL     1      30.096  -0.184  53.513  1.00  0.00    -0.004 A 
HETATM   25  C17 UNL     1      29.198  -1.138  53.327  1.00  0.00    -0.017 A 
ENDBRANCH  20  21
ENDBRANCH  18  20
ENDBRANCH   6  18
TORSDOF 7
ENDMDL
MODEL 8
REMARK VINA RESULT:      -7.5      2.173      3.121
REMARK  7 active torsions:
REMARK  status: ('A' for Active; 'I' for Inactive)
REMARK    1  A    between atoms: O1_2  and  C2_3 
REMARK    2  A    between atoms: C5_6  and  O2_7 
REMARK    3  A    between atoms: C6_8  and  C7_9 
REMARK    4  A    between atoms: C7_9  and  C8_10 
REMARK    5  A    between atoms: C11_15  and  N3_16 
REMARK    6  A    between atoms: N3_16  and  C12_17 
REMARK    7  A    between atoms: C12_17  and  C13_18 
ROOT
HETATM    1  C8  UNL     1      24.705   0.714  52.974  1.00  0.00     0.009 A 
HETATM    2  C9  UNL     1      24.814  -0.431  53.726  1.00  0.00     0.129 A 
HETATM    3  N1  UNL     1      25.897  -1.186  53.559  1.00  0.00    -0.253 NA
HETATM    4  C10 UNL     1      26.883  -0.876  52.689  1.00  0.00     0.234 A 
HETATM    5  N2  UNL     1      26.740   0.247  51.977  1.00  0.00    -0.224 NA
HETATM    6  C11 UNL     1      25.688   1.068  52.075  1.00  0.00     0.132 A 
ENDROOT
BRANCH   1   7
HETATM    7  C7  UNL     1      23.532   1.572  53.133  1.00  0.00     0.085 C 
BRANCH   7   8
HETATM    8  C6  UNL     1      22.319   1.128  52.408  1.00  0.00    -0.018 A 
HETATM    9  C5  UNL     1      21.982   1.218  51.082  1.00  0.00     0.072 A 
HETATM   10  C4  UNL     1      20.777   0.728  50.628  1.00  0.00     0.040 A 
HETATM   11  C3  UNL     1      19.842   0.127  51.436  1.00  0.00     0.039 A 
HETATM   12  C2  UNL     1      20.197   0.044  52.767  1.00  0.00     0.068 A 
HETATM   13  C18 UNL     1      21.397   0.524  53.265  1.00  0.00     0.047 A 
BRANCH   9  14
HETATM   14  O2  UNL     1      22.937   1.824  50.296  1.00  0.00    -0.360 OA
HETATM   15  H6  UNL     1      22.850   2.672  49.783  1.00  0.00     0.217 HD
ENDBRANCH   9  14
BRANCH  12  16
HETATM   16  O1  UNL     1      19.268  -0.565  53.636  1.00  0.00    -0.356 OA
HETATM   17  C1  UNL     1      18.199  -1.333  53.145  1.00  0.00     0.210 C 
ENDBRANCH  12  16
ENDBRANCH   7   8
ENDBRANCH   1   7
BRANCH   6  18
HETATM   18  N3  UNL     1      25.681   2.232  51.266  1.00  0.00    -0.373 N 
HETATM   19  H11 UNL     1      24.678   2.513  51.051  1.00  0.00     0.161 HD
BRANCH  18  20
HETATM   20  C12 UNL     1      26.728   3.051  50.717  1.00  0.00     0.133 C 
BRANCH  20  21
HETATM   21  C13 UNL     1      26.466   3.649  49.378  1.00  0.00     0.048 A 
HETATM   22  C14 UNL     1      27.443   4.585  48.853  1.00  0.00    -0.017 A 
HETATM   23  C15 UNL     1      26.809   5.765  48.686  1.00  0.00    -0.004 A 
HETATM   24  C16 UNL     1      25.396   5.646  49.096  1.00  0.00    -0.004 A 
HETATM   25  C17 UNL     1      25.176   4.407  49.505  1.00  0.00    -0.017 A 
ENDBRANCH  20  21
ENDBRANCH  18  20
ENDBRANCH   6  18
TORSDOF 7
ENDMDL
MODEL 9
REMARK VINA RESULT:      -7.5      2.719      4.684
REMARK  7 active torsions:
REMARK  status: ('A' for Active; 'I' for Inactive)
REMARK    1  A    between atoms: O1_2  and  C2_3 
REMARK    2  A    between atoms: C5_6  and  O2_7 
REMARK    3  A    between atoms: C6_8  and  C7_9 
REMARK    4  A    between atoms: C7_9  and  C8_10 
REMARK    5  A    between atoms: C11_15  and  N3_16 
REMARK    6  A    between atoms: N3_16  and  C12_17 
REMARK    7  A    between atoms: C12_17  and  C13_18 
ROOT
HETATM    1  C8  UNL     1      23.131   2.332  52.197  1.00  0.00     0.009 A 
HETATM    2  C9  UNL     1      22.174   3.220  51.767  1.00  0.00     0.129 A 
HETATM    3  N1  UNL     1      22.301   4.495  52.125  1.00  0.00    -0.253 NA
HETATM    4  C10 UNL     1      23.322   4.948  52.886  1.00  0.00     0.234 A 
HETATM    5  N2  UNL     1      24.232   4.053  53.284  1.00  0.00    -0.224 NA
HETATM    6  C11 UNL     1      24.189   2.752  52.976  1.00  0.00     0.132 A 
ENDROOT
BRANCH   1   7
HETATM    7  C7  UNL     1      23.029   0.923  51.820  1.00  0.00     0.085 C 
BRANCH   7   8
HETATM    8  C6  UNL     1      22.268   0.069  52.761  1.00  0.00    -0.018 A 
HETATM    9  C5  UNL     1      22.683  -0.677  53.835  1.00  0.00     0.072 A 
HETATM   10  C4  UNL     1      21.779  -1.406  54.576  1.00  0.00     0.040 A 
HETATM   11  C3  UNL     1      20.431  -1.446  54.315  1.00  0.00     0.039 A 
HETATM   12  C2  UNL     1      20.030  -0.689  53.233  1.00  0.00     0.068 A 
HETATM   13  C18 UNL     1      20.905   0.057  52.460  1.00  0.00     0.047 A 
BRANCH   9  14
HETATM   14  O2  UNL     1      24.039  -0.618  54.073  1.00  0.00    -0.360 OA
HETATM   15  H6  UNL     1      24.566  -1.173  54.708  1.00  0.00     0.217 HD
ENDBRANCH   9  14
BRANCH  12  16
HETATM   16  O1  UNL     1      18.653  -0.699  52.926  1.00  0.00    -0.356 OA
HETATM   17  C1  UNL     1      18.181  -0.329  51.656  1.00  0.00     0.210 C 
ENDBRANCH  12  16
ENDBRANCH   7   8
ENDBRANCH   1   7
BRANCH   6  18
HETATM   18  N3  UNL     1      25.234   1.924  53.457  1.00  0.00    -0.373 N 
HETATM   19  H11 UNL     1      24.825   1.034  53.872  1.00  0.00     0.161 HD
BRANCH  18  20
HETATM   20  C12 UNL     1      26.665   2.067  53.482  1.00  0.00     0.133 C 
BRANCH  20  21
HETATM   21  C13 UNL     1      27.440   1.088  52.669  1.00  0.00     0.048 A 
HETATM   22  C14 UNL     1      26.766  -0.129  52.253  1.00  0.00    -0.017 A 
HETATM   23  C15 UNL     1      27.445  -1.162  52.796  1.00  0.00    -0.004 A 
HETATM   24  C16 UNL     1      28.587  -0.660  53.587  1.00  0.00    -0.004 A 
HETATM   25  C17 UNL     1      28.599   0.662  53.522  1.00  0.00    -0.017 A 
ENDBRANCH  20  21
ENDBRANCH  18  20
ENDBRANCH   6  18
TORSDOF 7
ENDMDL
