MODEL 1
REMARK VINA RESULT:      -8.5      0.000      0.000
REMARK  6 active torsions:
REMARK  status: ('A' for Active; 'I' for Inactive)
REMARK    1  A    between atoms: O1_2  and  C2_3 
REMARK    2  A    between atoms: C6_9  and  N3_10 
REMARK    3  A    between atoms: C14_20  and  O2_21 
REMARK    4  A    between atoms: O2_21  and  C15_22 
REMARK    5  A    between atoms: C15_22  and  C16_23 
REMARK    6  A    between atoms: C16_23  and  N4_24 
ROOT
HETATM    1  C2  UNL     1      21.786   1.359  51.604  1.00  0.00     0.103 A 
HETATM    2  C3  UNL     1      21.289   0.566  52.647  1.00  0.00     0.072 A 
HETATM    3  C4  UNL     1      22.181  -0.058  53.486  1.00  0.00     0.075 A 
HETATM    4  N1  UNL     1      21.784  -0.827  54.512  1.00  0.00    -0.241 NA
HETATM    5  C5  UNL     1      22.720  -1.414  55.316  1.00  0.00     0.236 A 
HETATM    6  N2  UNL     1      24.061  -1.251  55.118  1.00  0.00    -0.223 NA
HETATM    7  C6  UNL     1      24.485  -0.483  54.092  1.00  0.00     0.145 A 
HETATM    8  C12 UNL     1      23.537   0.088  53.312  1.00  0.00     0.042 A 
HETATM    9  C13 UNL     1      23.976   0.868  52.285  1.00  0.00     0.057 A 
HETATM   10  C14 UNL     1      23.160   1.530  51.396  1.00  0.00     0.103 A 
ENDROOT
BRANCH  10  11
HETATM   11  O2  UNL     1      23.396   2.327  50.341  1.00  0.00    -0.347 OA
BRANCH  11  12
HETATM   12  C15 UNL     1      23.954   3.568  50.179  1.00  0.00     0.206 C 
BRANCH  12  13
HETATM   13  C16 UNL     1      25.458   3.516  50.106  1.00  0.00     0.299 C 
BRANCH  13  14
HETATM   14  N4  UNL     1      26.026   4.851  49.909  1.00  0.00     0.093 N 
HETATM   15  C17 UNL     1      26.991   4.719  48.827  1.00  0.00     0.302 C 
HETATM   16  C18 UNL     1      27.665   6.037  48.522  1.00  0.00     0.302 C 
HETATM   17  N5  UNL     1      26.710   7.108  48.363  1.00  0.00     0.087 N 
HETATM   18  C19 UNL     1      26.909   8.119  49.363  1.00  0.00     0.310 C 
HETATM   19  C20 UNL     1      25.343   6.627  48.359  1.00  0.00     0.302 C 
HETATM   20  C21 UNL     1      24.990   5.812  49.578  1.00  0.00     0.302 C 
ENDBRANCH  13  14
ENDBRANCH  12  13
ENDBRANCH  11  12
ENDBRANCH  10  11
BRANCH   1  21
HETATM   21  O1  UNL     1      20.795   1.941  50.817  1.00  0.00    -0.353 OA
HETATM   22  C1  UNL     1      20.115   1.220  49.842  1.00  0.00     0.210 C 
ENDBRANCH   1  21
BRANCH   7  23
HETATM   23  N3  UNL     1      25.898  -0.421  53.983  1.00  0.00    -0.316 N 
HETATM   24  C7  UNL     1      26.349  -1.414  53.039  1.00  0.00     0.095 A 
HETATM   25  C8  UNL     1      27.629  -1.591  52.751  1.00  0.00     0.020 A 
HETATM   26  C9  UNL     1      28.680  -0.793  53.367  1.00  0.00     0.042 A 
HETATM   27  C10 UNL     1      28.204   0.083  54.205  1.00  0.00     0.131 A 
HETATM   28  F1  UNL     1      29.100   0.900  54.854  1.00  0.00    -0.207 F 
HETATM   29  C11 UNL     1      26.840   0.448  54.658  1.00  0.00     0.249 A 
HETATM   30 CL1  UNL     1      26.473   2.135  54.129  1.00  0.00    -0.094 Cl
ENDBRANCH   7  23
TORSDOF 6
ENDMDL
MODEL 2
REMARK VINA RESULT:      -8.2      1.590      1.851
REMARK  6 active torsions:
REMARK  status: ('A' for Active; 'I' for Inactive)
REMARK    1  A    between atoms: O1_2  and  C2_3 
REMARK    2  A    between atoms: C6_9  and  N3_10 
REMARK    3  A    between atoms: C14_20  and  O2_21 
REMARK    4  A    between atoms: O2_21  and  C15_22 
REMARK    5  A    between atoms: C15_22  and  C16_23 
REMARK    6  A    between atoms: C16_23  and  N4_24 
ROOT
HETATM    1  C2  UNL     1      21.780   1.488  51.692  1.00  0.00     0.103 A 
HETATM    2  C3  UNL     1      21.285   0.681  52.724  1.00  0.00     0.072 A 
HETATM    3  C4  UNL     1      22.178   0.027  53.538  1.00  0.00     0.075 A 
HETATM    4  N1  UNL     1      21.783  -0.758  54.553  1.00  0.00    -0.241 NA
HETATM    5  C5  UNL     1      22.720  -1.375  55.333  1.00  0.00     0.236 A 
HETATM    6  N2  UNL     1      24.060  -1.227  55.121  1.00  0.00    -0.223 NA
HETATM    7  C6  UNL     1      24.483  -0.444  54.107  1.00  0.00     0.145 A 
HETATM    8  C12 UNL     1      23.534   0.157  53.351  1.00  0.00     0.042 A 
HETATM    9  C13 UNL     1      23.972   0.952  52.335  1.00  0.00     0.057 A 
HETATM   10  C14 UNL     1      23.154   1.644  51.471  1.00  0.00     0.103 A 
ENDROOT
BRANCH  10  11
HETATM   11  O2  UNL     1      23.389   2.460  50.429  1.00  0.00    -0.347 OA
BRANCH  11  12
HETATM   12  C15 UNL     1      24.000   3.678  50.280  1.00  0.00     0.206 C 
BRANCH  12  13
HETATM   13  C16 UNL     1      23.679   4.623  51.408  1.00  0.00     0.299 C 
BRANCH  13  14
HETATM   14  N4  UNL     1      23.261   5.931  50.901  1.00  0.00     0.093 N 
HETATM   15  C17 UNL     1      24.440   6.782  50.972  1.00  0.00     0.302 C 
HETATM   16  C18 UNL     1      24.143   8.180  50.480  1.00  0.00     0.302 C 
HETATM   17  N5  UNL     1      23.470   8.172  49.203  1.00  0.00     0.087 N 
HETATM   18  C19 UNL     1      22.167   8.765  49.311  1.00  0.00     0.310 C 
HETATM   19  C20 UNL     1      23.403   6.844  48.628  1.00  0.00     0.302 C 
HETATM   20  C21 UNL     1      22.767   5.826  49.541  1.00  0.00     0.302 C 
ENDBRANCH  13  14
ENDBRANCH  12  13
ENDBRANCH  11  12
ENDBRANCH  10  11
BRANCH   1  21
HETATM   21  O1  UNL     1      20.789   2.101  50.930  1.00  0.00    -0.353 OA
HETATM   22  C1  UNL     1      20.107   3.225  51.383  1.00  0.00     0.210 C 
ENDBRANCH   1  21
BRANCH   7  23
HETATM   23  N3  UNL     1      25.896  -0.400  53.981  1.00  0.00    -0.316 N 
HETATM   24  C7  UNL     1      26.324  -1.410  53.045  1.00  0.00     0.095 A 
HETATM   25  C8  UNL     1      27.598  -1.606  52.744  1.00  0.00     0.020 A 
HETATM   26  C9  UNL     1      28.666  -0.812  53.338  1.00  0.00     0.042 A 
HETATM   27  C10 UNL     1      28.210   0.080  54.170  1.00  0.00     0.131 A 
HETATM   28  F1  UNL     1      29.122   0.894  54.798  1.00  0.00    -0.207 F 
HETATM   29  C11 UNL     1      26.855   0.466  54.634  1.00  0.00     0.249 A 
HETATM   30 CL1  UNL     1      26.502   2.151  54.088  1.00  0.00    -0.094 Cl
ENDBRANCH   7  23
TORSDOF 6
ENDMDL
MODEL 3
REMARK VINA RESULT:      -8.0      3.211      5.534
REMARK  6 active torsions:
REMARK  status: ('A' for Active; 'I' for Inactive)
REMARK    1  A    between atoms: O1_2  and  C2_3 
REMARK    2  A    between atoms: C6_9  and  N3_10 
REMARK    3  A    between atoms: C14_20  and  O2_21 
REMARK    4  A    between atoms: O2_21  and  C15_22 
REMARK    5  A    between atoms: C15_22  and  C16_23 
REMARK    6  A    between atoms: C16_23  and  N4_24 
ROOT
HETATM    1  C2  UNL     1      25.631   0.115  53.113  1.00  0.00     0.103 A 
HETATM    2  C3  UNL     1      24.814  -0.620  53.983  1.00  0.00     0.072 A 
HETATM    3  C4  UNL     1      23.451  -0.463  53.900  1.00  0.00     0.075 A 
HETATM    4  N1  UNL     1      22.602  -1.136  54.692  1.00  0.00    -0.241 NA
HETATM    5  C5  UNL     1      21.256  -0.943  54.556  1.00  0.00     0.236 A 
HETATM    6  N2  UNL     1      20.730  -0.082  53.636  1.00  0.00    -0.223 NA
HETATM    7  C6  UNL     1      21.563   0.607  52.829  1.00  0.00     0.145 A 
HETATM    8  C12 UNL     1      22.892   0.396  52.983  1.00  0.00     0.042 A 
HETATM    9  C13 UNL     1      23.723   1.090  52.157  1.00  0.00     0.057 A 
HETATM   10  C14 UNL     1      25.096   0.999  52.168  1.00  0.00     0.103 A 
ENDROOT
BRANCH  10  11
HETATM   11  O2  UNL     1      26.067   1.588  51.451  1.00  0.00    -0.347 OA
BRANCH  11  12
HETATM   12  C15 UNL     1      26.386   2.887  51.148  1.00  0.00     0.206 C 
BRANCH  12  13
HETATM   13  C16 UNL     1      26.344   3.157  49.667  1.00  0.00     0.299 C 
BRANCH  13  14
HETATM   14  N4  UNL     1      25.287   4.112  49.331  1.00  0.00     0.093 N 
HETATM   15  C17 UNL     1      24.071   3.326  49.184  1.00  0.00     0.302 C 
HETATM   16  C18 UNL     1      22.888   4.197  48.827  1.00  0.00     0.302 C 
HETATM   17  N5  UNL     1      22.775   5.340  49.700  1.00  0.00     0.087 N 
HETATM   18  C19 UNL     1      22.917   6.562  48.959  1.00  0.00     0.310 C 
HETATM   19  C20 UNL     1      23.710   5.279  50.805  1.00  0.00     0.302 C 
HETATM   20  C21 UNL     1      25.144   5.115  50.371  1.00  0.00     0.302 C 
ENDBRANCH  13  14
ENDBRANCH  12  13
ENDBRANCH  11  12
ENDBRANCH  10  11
BRANCH   1  21
HETATM   21  O1  UNL     1      26.993  -0.121  53.284  1.00  0.00    -0.353 OA
HETATM   22  C1  UNL     1      27.657   0.236  54.453  1.00  0.00     0.210 C 
ENDBRANCH   1  21
BRANCH   7  23
HETATM   23  N3  UNL     1      20.888   1.485  51.942  1.00  0.00    -0.316 N 
HETATM   24  C7  UNL     1      20.889   2.817  52.495  1.00  0.00     0.095 A 
HETATM   25  C8  UNL     1      20.314   3.840  51.884  1.00  0.00     0.020 A 
HETATM   26  C9  UNL     1      19.635   3.697  50.603  1.00  0.00     0.042 A 
HETATM   27  C10 UNL     1      19.674   2.473  50.161  1.00  0.00     0.131 A 
HETATM   28  F1  UNL     1      19.065   2.207  48.957  1.00  0.00    -0.207 F 
HETATM   29  C11 UNL     1      20.258   1.207  50.668  1.00  0.00     0.249 A 
HETATM   30 CL1  UNL     1      21.562   0.666  49.542  1.00  0.00    -0.094 Cl
ENDBRANCH   7  23
TORSDOF 6
ENDMDL
MODEL 4
REMARK VINA RESULT:      -7.6      2.543      3.454
REMARK  6 active torsions:
REMARK  status: ('A' for Active; 'I' for Inactive)
REMARK    1  A    between atoms: O1_2  and  C2_3 
REMARK    2  A    between atoms: C6_9  and  N3_10 
REMARK    3  A    between atoms: C14_20  and  O2_21 
REMARK    4  A    between atoms: O2_21  and  C15_22 
REMARK    5  A    between atoms: C15_22  and  C16_23 
REMARK    6  A    between atoms: C16_23  and  N4_24 
ROOT
HETATM    1  C2  UNL     1      21.747   0.704  52.038  1.00  0.00     0.103 A 
HETATM    2  C3  UNL     1      21.444  -0.044  53.184  1.00  0.00     0.072 A 
HETATM    3  C4  UNL     1      22.476  -0.491  53.974  1.00  0.00     0.075 A 
HETATM    4  N1  UNL     1      22.267  -1.206  55.091  1.00  0.00    -0.241 NA
HETATM    5  C5  UNL     1      23.334  -1.616  55.838  1.00  0.00     0.236 A 
HETATM    6  N2  UNL     1      24.623  -1.328  55.494  1.00  0.00    -0.223 NA
HETATM    7  C6  UNL     1      24.859  -0.611  54.375  1.00  0.00     0.145 A 
HETATM    8  C12 UNL     1      23.784  -0.216  53.653  1.00  0.00     0.042 A 
HETATM    9  C13 UNL     1      24.034   0.514  52.530  1.00  0.00     0.057 A 
HETATM   10  C14 UNL     1      23.068   1.003  51.680  1.00  0.00     0.103 A 
ENDROOT
BRANCH  10  11
HETATM   11  O2  UNL     1      23.112   1.725  50.549  1.00  0.00    -0.347 OA
BRANCH  11  12
HETATM   12  C15 UNL     1      23.189   3.064  50.265  1.00  0.00     0.206 C 
BRANCH  12  13
HETATM   13  C16 UNL     1      22.857   3.366  48.827  1.00  0.00     0.299 C 
BRANCH  13  14
HETATM   14  N4  UNL     1      21.500   3.898  48.697  1.00  0.00     0.093 N 
HETATM   15  C17 UNL     1      21.573   4.931  47.673  1.00  0.00     0.302 C 
HETATM   16  C18 UNL     1      20.225   5.576  47.440  1.00  0.00     0.302 C 
HETATM   17  N5  UNL     1      19.183   4.597  47.249  1.00  0.00     0.087 N 
HETATM   18  C19 UNL     1      18.191   4.700  48.282  1.00  0.00     0.310 C 
HETATM   19  C20 UNL     1      19.708   3.250  47.150  1.00  0.00     0.302 C 
HETATM   20  C21 UNL     1      20.565   2.852  48.325  1.00  0.00     0.302 C 
ENDBRANCH  13  14
ENDBRANCH  12  13
ENDBRANCH  11  12
ENDBRANCH  10  11
BRANCH   1  21
HETATM   21  O1  UNL     1      20.628   1.105  51.314  1.00  0.00    -0.353 OA
HETATM   22  C1  UNL     1      19.463   0.347  51.287  1.00  0.00     0.210 C 
ENDBRANCH   1  21
BRANCH   7  23
HETATM   23  N3  UNL     1      26.240  -0.407  54.118  1.00  0.00    -0.316 N 
HETATM   24  C7  UNL     1      26.717  -1.431  53.222  1.00  0.00     0.095 A 
HETATM   25  C8  UNL     1      27.976  -1.495  52.821  1.00  0.00     0.020 A 
HETATM   26  C9  UNL     1      28.979  -0.533  53.258  1.00  0.00     0.042 A 
HETATM   27  C10 UNL     1      28.482   0.363  54.062  1.00  0.00     0.131 A 
HETATM   28  F1  UNL     1      29.331   1.330  54.546  1.00  0.00    -0.207 F 
HETATM   29  C11 UNL     1      27.131   0.619  54.619  1.00  0.00     0.249 A 
HETATM   30 CL1  UNL     1      26.522   2.198  53.988  1.00  0.00    -0.094 Cl
ENDBRANCH   7  23
TORSDOF 6
ENDMDL
MODEL 5
REMARK VINA RESULT:      -7.6      2.695      4.959
REMARK  6 active torsions:
REMARK  status: ('A' for Active; 'I' for Inactive)
REMARK    1  A    between atoms: O1_2  and  C2_3 
REMARK    2  A    between atoms: C6_9  and  N3_10 
REMARK    3  A    between atoms: C14_20  and  O2_21 
REMARK    4  A    between atoms: O2_21  and  C15_22 
REMARK    5  A    between atoms: C15_22  and  C16_23 
REMARK    6  A    between atoms: C16_23  and  N4_24 
ROOT
HETATM    1  C2  UNL     1      26.950   0.507  53.110  1.00  0.00     0.103 A 
HETATM    2  C3  UNL     1      26.580  -0.224  54.246  1.00  0.00     0.072 A 
HETATM    3  C4  UNL     1      25.250  -0.500  54.452  1.00  0.00     0.075 A 
HETATM    4  N1  UNL     1      24.817  -1.200  55.512  1.00  0.00    -0.241 NA
HETATM    5  C5  UNL     1      23.482  -1.448  55.657  1.00  0.00     0.236 A 
HETATM    6  N2  UNL     1      22.554  -1.008  54.757  1.00  0.00    -0.223 NA
HETATM    7  C6  UNL     1      22.964  -0.300  53.684  1.00  0.00     0.145 A 
HETATM    8  C12 UNL     1      24.293  -0.070  53.563  1.00  0.00     0.042 A 
HETATM    9  C13 UNL     1      24.696   0.638  52.471  1.00  0.00     0.057 A 
HETATM   10  C14 UNL     1      26.003   0.961  52.184  1.00  0.00     0.103 A 
ENDROOT
BRANCH  10  11
HETATM   11  O2  UNL     1      26.589   1.637  51.182  1.00  0.00    -0.347 OA
BRANCH  11  12
HETATM   12  C15 UNL     1      26.592   2.947  50.778  1.00  0.00     0.206 C 
BRANCH  12  13
HETATM   13  C16 UNL     1      25.334   3.324  50.041  1.00  0.00     0.299 C 
BRANCH  13  14
HETATM   14  N4  UNL     1      24.970   4.719  50.293  1.00  0.00     0.093 N 
HETATM   15  C17 UNL     1      25.962   5.522  49.592  1.00  0.00     0.302 C 
HETATM   16  C18 UNL     1      25.706   7.001  49.776  1.00  0.00     0.302 C 
HETATM   17  N5  UNL     1      24.333   7.350  49.503  1.00  0.00     0.087 N 
HETATM   18  C19 UNL     1      23.700   7.881  50.678  1.00  0.00     0.310 C 
HETATM   19  C20 UNL     1      23.584   6.238  48.954  1.00  0.00     0.302 C 
HETATM   20  C21 UNL     1      23.630   5.000  49.813  1.00  0.00     0.302 C 
ENDBRANCH  13  14
ENDBRANCH  12  13
ENDBRANCH  11  12
ENDBRANCH  10  11
BRANCH   1  21
HETATM   21  O1  UNL     1      28.321   0.728  53.002  1.00  0.00    -0.353 OA
HETATM   22  C1  UNL     1      28.975   1.669  53.788  1.00  0.00     0.210 C 
ENDBRANCH   1  21
BRANCH   7  23
HETATM   23  N3  UNL     1      21.898   0.120  52.846  1.00  0.00    -0.316 N 
HETATM   24  C7  UNL     1      20.681  -0.539  53.254  1.00  0.00     0.095 A 
HETATM   25  C8  UNL     1      19.527  -0.344  52.636  1.00  0.00     0.020 A 
HETATM   26  C9  UNL     1      19.400   0.552  51.494  1.00  0.00     0.042 A 
HETATM   27  C10 UNL     1      20.532   1.113  51.182  1.00  0.00     0.131 A 
HETATM   28  F1  UNL     1      20.543   1.983  50.117  1.00  0.00    -0.207 F 
HETATM   29  C11 UNL     1      21.908   1.045  51.732  1.00  0.00     0.249 A 
HETATM   30 CL1  UNL     1      22.358   2.664  52.396  1.00  0.00    -0.094 Cl
ENDBRANCH   7  23
TORSDOF 6
ENDMDL
MODEL 6
REMARK VINA RESULT:      -7.5      4.534      9.489
REMARK  6 active torsions:
REMARK  status: ('A' for Active; 'I' for Inactive)
REMARK    1  A    between atoms: O1_2  and  C2_3 
REMARK    2  A    between atoms: C6_9  and  N3_10 
REMARK    3  A    between atoms: C14_20  and  O2_21 
REMARK    4  A    between atoms: O2_21  and  C15_22 
REMARK    5  A    between atoms: C15_22  and  C16_23 
REMARK    6  A    between atoms: C16_23  and  N4_24 
ROOT
HETATM    1  C2  UNL     1      27.665   7.088  48.582  1.00  0.00     0.103 A 
HETATM    2  C3  UNL     1      28.389   8.286  48.517  1.00  0.00     0.072 A 
HETATM    3  C4  UNL     1      29.717   8.238  48.168  1.00  0.00     0.075 A 
HETATM    4  N1  UNL     1      30.475   9.341  48.076  1.00  0.00    -0.241 NA
HETATM    5  C5  UNL     1      31.789   9.229  47.718  1.00  0.00     0.236 A 
HETATM    6  N2  UNL     1      32.373   8.026  47.446  1.00  0.00    -0.223 NA
HETATM    7  C6  UNL     1      31.632   6.901  47.532  1.00  0.00     0.145 A 
HETATM    8  C12 UNL     1      30.333   7.041  47.888  1.00  0.00     0.042 A 
HETATM    9  C13 UNL     1      29.592   5.900  47.964  1.00  0.00     0.057 A 
HETATM   10  C14 UNL     1      28.259   5.850  48.304  1.00  0.00     0.103 A 
ENDROOT
BRANCH  10  11
HETATM   11  O2  UNL     1      27.374   4.848  48.433  1.00  0.00    -0.347 OA
BRANCH  11  12
HETATM   12  C15 UNL     1      27.035   3.989  49.446  1.00  0.00     0.206 C 
BRANCH  12  13
HETATM   13  C16 UNL     1      25.551   3.958  49.699  1.00  0.00     0.299 C 
BRANCH  13  14
HETATM   14  N4  UNL     1      25.185   2.842  50.573  1.00  0.00     0.093 N 
HETATM   15  C17 UNL     1      26.421   2.418  51.217  1.00  0.00     0.302 C 
HETATM   16  C18 UNL     1      26.186   1.253  52.152  1.00  0.00     0.302 C 
HETATM   17  N5  UNL     1      25.081   1.494  53.048  1.00  0.00     0.087 N 
HETATM   18  C19 UNL     1      24.034   0.535  52.835  1.00  0.00     0.310 C 
HETATM   19  C20 UNL     1      24.584   2.852  52.952  1.00  0.00     0.302 C 
HETATM   20  C21 UNL     1      24.195   3.252  51.552  1.00  0.00     0.302 C 
ENDBRANCH  13  14
ENDBRANCH  12  13
ENDBRANCH  11  12
ENDBRANCH  10  11
BRANCH   1  21
HETATM   21  O1  UNL     1      26.331   7.253  48.944  1.00  0.00    -0.353 OA
HETATM   22  C1  UNL     1      25.966   7.727  50.199  1.00  0.00     0.210 C 
ENDBRANCH   1  21
BRANCH   7  23
HETATM   23  N3  UNL     1      32.366   5.720  47.252  1.00  0.00    -0.316 N 
HETATM   24  C7  UNL     1      32.413   5.512  45.825  1.00  0.00     0.095 A 
HETATM   25  C8  UNL     1      33.023   4.473  45.278  1.00  0.00     0.020 A 
HETATM   26  C9  UNL     1      33.696   3.459  46.079  1.00  0.00     0.042 A 
HETATM   27  C10 UNL     1      33.617   3.708  47.354  1.00  0.00     0.131 A 
HETATM   28  F1  UNL     1      34.215   2.821  48.218  1.00  0.00    -0.207 F 
HETATM   29  C11 UNL     1      33.005   4.792  48.162  1.00  0.00     0.249 A 
HETATM   30 CL1  UNL     1      34.312   5.704  49.012  1.00  0.00    -0.094 Cl
ENDBRANCH   7  23
TORSDOF 6
ENDMDL
MODEL 7
REMARK VINA RESULT:      -7.5      3.678      7.804
REMARK  6 active torsions:
REMARK  status: ('A' for Active; 'I' for Inactive)
REMARK    1  A    between atoms: O1_2  and  C2_3 
REMARK    2  A    between atoms: C6_9  and  N3_10 
REMARK    3  A    between atoms: C14_20  and  O2_21 
REMARK    4  A    between atoms: O2_21  and  C15_22 
REMARK    5  A    between atoms: C15_22  and  C16_23 
REMARK    6  A    between atoms: C16_23  and  N4_24 
ROOT
HETATM    1  C2  UNL     1      24.960   0.549  53.174  1.00  0.00     0.103 A 
HETATM    2  C3  UNL     1      26.044   1.172  52.542  1.00  0.00     0.072 A 
HETATM    3  C4  UNL     1      25.795   2.053  51.517  1.00  0.00     0.075 A 
HETATM    4  N1  UNL     1      26.778   2.696  50.868  1.00  0.00    -0.241 NA
HETATM    5  C5  UNL     1      26.466   3.566  49.862  1.00  0.00     0.236 A 
HETATM    6  N2  UNL     1      25.179   3.814  49.482  1.00  0.00    -0.223 NA
HETATM    7  C6  UNL     1      24.172   3.180  50.119  1.00  0.00     0.145 A 
HETATM    8  C12 UNL     1      24.509   2.324  51.113  1.00  0.00     0.042 A 
HETATM    9  C13 UNL     1      23.484   1.696  51.755  1.00  0.00     0.057 A 
HETATM   10  C14 UNL     1      23.637   0.800  52.788  1.00  0.00     0.103 A 
ENDROOT
BRANCH  10  11
HETATM   11  O2  UNL     1      22.772   0.091  53.532  1.00  0.00    -0.347 OA
BRANCH  11  12
HETATM   12  C15 UNL     1      21.499   0.305  53.994  1.00  0.00     0.206 C 
BRANCH  12  13
HETATM   13  C16 UNL     1      20.466  -0.454  53.203  1.00  0.00     0.299 C 
BRANCH  13  14
HETATM   14  N4  UNL     1      19.372   0.421  52.780  1.00  0.00     0.093 N 
HETATM   15  C17 UNL     1      20.002   1.635  52.282  1.00  0.00     0.302 C 
HETATM   16  C18 UNL     1      18.975   2.641  51.814  1.00  0.00     0.302 C 
HETATM   17  N5  UNL     1      18.003   2.047  50.928  1.00  0.00     0.087 N 
HETATM   18  C19 UNL     1      16.686   2.120  51.494  1.00  0.00     0.310 C 
HETATM   19  C20 UNL     1      18.350   0.688  50.565  1.00  0.00     0.302 C 
HETATM   20  C21 UNL     1      18.566  -0.214  51.754  1.00  0.00     0.302 C 
ENDBRANCH  13  14
ENDBRANCH  12  13
ENDBRANCH  11  12
ENDBRANCH  10  11
BRANCH   1  21
HETATM   21  O1  UNL     1      25.327  -0.322  54.196  1.00  0.00    -0.353 OA
HETATM   22  C1  UNL     1      26.288   0.020  55.140  1.00  0.00     0.210 C 
ENDBRANCH   1  21
BRANCH   7  23
HETATM   23  N3  UNL     1      22.889   3.506  49.608  1.00  0.00    -0.316 N 
HETATM   24  C7  UNL     1      22.653   4.919  49.774  1.00  0.00     0.095 A 
HETATM   25  C8  UNL     1      21.525   5.500  49.398  1.00  0.00     0.020 A 
HETATM   26  C9  UNL     1      20.434   4.753  48.786  1.00  0.00     0.042 A 
HETATM   27  C10 UNL     1      20.713   3.487  48.666  1.00  0.00     0.131 A 
HETATM   28  F1  UNL     1      19.760   2.672  48.102  1.00  0.00    -0.207 F 
HETATM   29  C11 UNL     1      21.890   2.649  49.004  1.00  0.00     0.249 A 
HETATM   30 CL1  UNL     1      22.608   1.997  47.480  1.00  0.00    -0.094 Cl
ENDBRANCH   7  23
TORSDOF 6
ENDMDL
MODEL 8
REMARK VINA RESULT:      -7.4      1.978      6.363
REMARK  6 active torsions:
REMARK  status: ('A' for Active; 'I' for Inactive)
REMARK    1  A    between atoms: O1_2  and  C2_3 
REMARK    2  A    between atoms: C6_9  and  N3_10 
REMARK    3  A    between atoms: C14_20  and  O2_21 
REMARK    4  A    between atoms: O2_21  and  C15_22 
REMARK    5  A    between atoms: C15_22  and  C16_23 
REMARK    6  A    between atoms: C16_23  and  N4_24 
ROOT
HETATM    1  C2  UNL     1      22.683   5.224  50.480  1.00  0.00     0.103 A 
HETATM    2  C3  UNL     1      23.814   5.455  49.687  1.00  0.00     0.072 A 
HETATM    3  C4  UNL     1      24.934   4.685  49.891  1.00  0.00     0.075 A 
HETATM    4  N1  UNL     1      26.054   4.840  49.167  1.00  0.00    -0.241 NA
HETATM    5  C5  UNL     1      27.132   4.038  49.412  1.00  0.00     0.236 A 
HETATM    6  N2  UNL     1      27.120   3.072  50.376  1.00  0.00    -0.223 NA
HETATM    7  C6  UNL     1      26.007   2.897  51.118  1.00  0.00     0.145 A 
HETATM    8  C12 UNL     1      24.952   3.704  50.854  1.00  0.00     0.042 A 
HETATM    9  C13 UNL     1      23.830   3.513  51.603  1.00  0.00     0.057 A 
HETATM   10  C14 UNL     1      22.666   4.234  51.470  1.00  0.00     0.103 A 
ENDROOT
BRANCH  10  11
HETATM   11  O2  UNL     1      21.480   4.198  52.100  1.00  0.00    -0.347 OA
BRANCH  11  12
HETATM   12  C15 UNL     1      20.840   3.282  52.894  1.00  0.00     0.206 C 
BRANCH  12  13
HETATM   13  C16 UNL     1      20.844   1.900  52.295  1.00  0.00     0.299 C 
BRANCH  13  14
HETATM   14  N4  UNL     1      21.266   0.899  53.275  1.00  0.00     0.093 N 
HETATM   15  C17 UNL     1      20.281  -0.172  53.201  1.00  0.00     0.302 C 
HETATM   16  C18 UNL     1      20.596  -1.282  54.178  1.00  0.00     0.302 C 
HETATM   17  N5  UNL     1      21.971  -1.708  54.087  1.00  0.00     0.087 N 
HETATM   18  C19 UNL     1      22.661  -1.471  55.324  1.00  0.00     0.310 C 
HETATM   19  C20 UNL     1      22.661  -1.096  52.969  1.00  0.00     0.302 C 
HETATM   20  C21 UNL     1      22.599   0.410  52.977  1.00  0.00     0.302 C 
ENDBRANCH  13  14
ENDBRANCH  12  13
ENDBRANCH  11  12
ENDBRANCH  10  11
BRANCH   1  21
HETATM   21  O1  UNL     1      21.608   6.061  50.189  1.00  0.00    -0.353 OA
HETATM   22  C1  UNL     1      21.611   7.406  50.540  1.00  0.00     0.210 C 
ENDBRANCH   1  21
BRANCH   7  23
HETATM   23  N3  UNL     1      26.139   1.881  52.100  1.00  0.00    -0.316 N 
HETATM   24  C7  UNL     1      26.038   0.588  51.468  1.00  0.00     0.095 A 
HETATM   25  C8  UNL     1      26.111  -0.544  52.150  1.00  0.00     0.020 A 
HETATM   26  C9  UNL     1      26.299  -0.568  53.595  1.00  0.00     0.042 A 
HETATM   27  C10 UNL     1      26.384   0.630  54.099  1.00  0.00     0.131 A 
HETATM   28  F1  UNL     1      26.562   0.741  55.458  1.00  0.00    -0.207 F 
HETATM   29  C11 UNL     1      26.338   1.999  53.530  1.00  0.00     0.249 A 
HETATM   30 CL1  UNL     1      27.942   2.793  53.774  1.00  0.00    -0.094 Cl
ENDBRANCH   7  23
TORSDOF 6
ENDMDL
MODEL 9
REMARK VINA RESULT:      -7.3      3.813      8.536
REMARK  6 active torsions:
REMARK  status: ('A' for Active; 'I' for Inactive)
REMARK    1  A    between atoms: O1_2  and  C2_3 
REMARK    2  A    between atoms: C6_9  and  N3_10 
REMARK    3  A    between atoms: C14_20  and  O2_21 
REMARK    4  A    between atoms: O2_21  and  C15_22 
REMARK    5  A    between atoms: C15_22  and  C16_23 
REMARK    6  A    between atoms: C16_23  and  N4_24 
ROOT
HETATM    1  C2  UNL     1      24.070   4.761  49.434  1.00  0.00     0.103 A 
HETATM    2  C3  UNL     1      23.501   5.610  48.475  1.00  0.00     0.072 A 
HETATM    3  C4  UNL     1      24.284   6.586  47.907  1.00  0.00     0.075 A 
HETATM    4  N1  UNL     1      23.815   7.432  46.977  1.00  0.00    -0.241 NA
HETATM    5  C5  UNL     1      24.646   8.377  46.444  1.00  0.00     0.236 A 
HETATM    6  N2  UNL     1      25.951   8.500  46.824  1.00  0.00    -0.223 NA
HETATM    7  C6  UNL     1      26.447   7.662  47.758  1.00  0.00     0.145 A 
HETATM    8  C12 UNL     1      25.603   6.734  48.268  1.00  0.00     0.042 A 
HETATM    9  C13 UNL     1      26.115   5.888  49.204  1.00  0.00     0.057 A 
HETATM   10  C14 UNL     1      25.409   4.884  49.826  1.00  0.00     0.103 A 
ENDROOT
BRANCH  10  11
HETATM   11  O2  UNL     1      25.728   3.967  50.754  1.00  0.00    -0.347 OA
BRANCH  11  12
HETATM   12  C15 UNL     1      26.500   2.834  50.762  1.00  0.00     0.206 C 
BRANCH  12  13
HETATM   13  C16 UNL     1      26.101   1.874  51.852  1.00  0.00     0.299 C 
BRANCH  13  14
HETATM   14  N4  UNL     1      27.271   1.210  52.428  1.00  0.00     0.093 N 
HETATM   15  C17 UNL     1      27.875   2.179  53.332  1.00  0.00     0.302 C 
HETATM   16  C18 UNL     1      29.112   1.619  53.997  1.00  0.00     0.302 C 
HETATM   17  N5  UNL     1      28.875   0.314  54.567  1.00  0.00     0.087 N 
HETATM   18  C19 UNL     1      29.705  -0.674  53.939  1.00  0.00     0.310 C 
HETATM   19  C20 UNL     1      27.476  -0.059  54.518  1.00  0.00     0.302 C 
HETATM   20  C21 UNL     1      26.887   0.000  53.132  1.00  0.00     0.302 C 
ENDBRANCH  13  14
ENDBRANCH  12  13
ENDBRANCH  11  12
ENDBRANCH  10  11
BRANCH   1  21
HETATM   21  O1  UNL     1      23.187   3.812  49.941  1.00  0.00    -0.353 OA
HETATM   22  C1  UNL     1      22.540   2.898  49.117  1.00  0.00     0.210 C 
ENDBRANCH   1  21
BRANCH   7  23
HETATM   23  N3  UNL     1      27.805   7.917  48.080  1.00  0.00    -0.316 N 
HETATM   24  C7  UNL     1      28.656   7.137  47.214  1.00  0.00     0.095 A 
HETATM   25  C8  UNL     1      29.976   7.167  47.301  1.00  0.00     0.020 A 
HETATM   26  C9  UNL     1      30.670   7.991  48.281  1.00  0.00     0.042 A 
HETATM   27  C10 UNL     1      29.845   8.668  49.026  1.00  0.00     0.131 A 
HETATM   28  F1  UNL     1      30.379   9.486  49.993  1.00  0.00    -0.207 F 
HETATM   29  C11 UNL     1      28.368   8.788  49.091  1.00  0.00     0.249 A 
HETATM   30 CL1  UNL     1      27.893  10.475  48.655  1.00  0.00    -0.094 Cl
ENDBRANCH   7  23
TORSDOF 6
ENDMDL
