MODEL 1
REMARK VINA RESULT:      -6.6      0.000      0.000
REMARK  5 active torsions:
REMARK  status: ('A' for Active; 'I' for Inactive)
REMARK    1  A    between atoms: O1_2  and  C2_3 
REMARK    2  A    between atoms: C2_3  and  C3_4 
REMARK    3  A    between atoms: C5_8  and  O2_9 
REMARK    4  A    between atoms: C8_12  and  N3_13 
REMARK    5  A    between atoms: N3_13  and  C10_15 
ROOT
HETATM    1  C3  UNL     1      25.097  -0.417  54.286  1.00  0.00     0.071 A 
HETATM    2  N1  UNL     1      24.891  -1.218  55.277  1.00  0.00    -0.244 NA
HETATM    3  C4  UNL     1      23.613  -1.683  55.687  1.00  0.00     0.230 A 
HETATM    4  N2  UNL     1      22.548  -1.327  55.081  1.00  0.00    -0.246 NA
HETATM    5  C5  UNL     1      22.536  -0.430  53.939  1.00  0.00     0.282 A 
HETATM    6  C7  UNL     1      23.901   0.010  53.571  1.00  0.00     0.034 A 
HETATM    7  C8  UNL     1      24.074   0.823  52.556  1.00  0.00     0.104 C 
ENDROOT
BRANCH   1   8
HETATM    8  C2  UNL     1      26.470   0.026  53.918  1.00  0.00     0.226 C 
BRANCH   8   9
HETATM    9  O1  UNL     1      27.331  -0.429  54.908  1.00  0.00    -0.390 OA
HETATM   10  C1  UNL     1      28.594   0.149  54.837  1.00  0.00     0.201 C 
ENDBRANCH   8   9
ENDBRANCH   1   8
BRANCH   5  11
HETATM   11  O2  UNL     1      21.691   0.609  54.268  1.00  0.00    -0.365 OA
HETATM   12  C6  UNL     1      20.355   0.361  53.956  1.00  0.00     0.204 C 
ENDBRANCH   5  11
BRANCH   7  13
HETATM   13  N3  UNL     1      23.317   1.510  51.571  1.00  0.00    -0.360 N 
HETATM   14  C9  UNL     1      22.272   0.887  50.780  1.00  0.00     0.155 C 
BRANCH  13  15
HETATM   15  C10 UNL     1      23.599   2.883  51.350  1.00  0.00     0.037 A 
HETATM   16  C11 UNL     1      22.823   3.818  52.016  1.00  0.00     0.049 A 
HETATM   17  C12 UNL     1      23.064   5.175  51.829  1.00  0.00     0.120 A 
HETATM   18  N4  UNL     1      24.054   5.585  51.000  1.00  0.00    -0.253 NA
HETATM   19  C13 UNL     1      24.791   4.656  50.367  1.00  0.00     0.104 A 
HETATM   20 BR1  UNL     1      26.214   5.157  49.174  1.00  0.00    -0.029 Br
HETATM   21  C14 UNL     1      24.607   3.300  50.505  1.00  0.00     0.069 A 
ENDBRANCH  13  15
ENDBRANCH   7  13
TORSDOF 5
ENDMDL
MODEL 2
REMARK VINA RESULT:      -6.3      1.942      3.858
REMARK  5 active torsions:
REMARK  status: ('A' for Active; 'I' for Inactive)
REMARK    1  A    between atoms: O1_2  and  C2_3 
REMARK    2  A    between atoms: C2_3  and  C3_4 
REMARK    3  A    between atoms: C5_8  and  O2_9 
REMARK    4  A    between atoms: C8_12  and  N3_13 
REMARK    5  A    between atoms: N3_13  and  C10_15 
ROOT
HETATM    1  C3  UNL     1      24.674  -0.155  53.733  1.00  0.00     0.071 A 
HETATM    2  N1  UNL     1      25.252  -0.685  54.757  1.00  0.00    -0.244 NA
HETATM    3  C4  UNL     1      26.406  -0.156  55.396  1.00  0.00     0.230 A 
HETATM    4  N2  UNL     1      26.963   0.915  54.985  1.00  0.00    -0.246 NA
HETATM    5  C5  UNL     1      26.487   1.682  53.849  1.00  0.00     0.282 A 
HETATM    6  C7  UNL     1      25.285   1.071  53.237  1.00  0.00     0.034 A 
HETATM    7  C8  UNL     1      24.721   1.640  52.198  1.00  0.00     0.104 C 
ENDROOT
BRANCH   1   8
HETATM    8  C2  UNL     1      23.466  -0.771  53.118  1.00  0.00     0.226 C 
BRANCH   8   9
HETATM    9  O1  UNL     1      22.384  -0.463  53.931  1.00  0.00    -0.390 OA
HETATM   10  C1  UNL     1      21.734  -1.590  54.423  1.00  0.00     0.201 C 
ENDBRANCH   8   9
ENDBRANCH   1   8
BRANCH   5  11
HETATM   11  O2  UNL     1      27.552   1.795  52.979  1.00  0.00    -0.365 OA
HETATM   12  C6  UNL     1      28.655   2.446  53.530  1.00  0.00     0.204 C 
ENDBRANCH   5  11
BRANCH   7  13
HETATM   13  N3  UNL     1      24.881   2.771  51.355  1.00  0.00    -0.360 N 
HETATM   14  C9  UNL     1      25.987   2.935  50.431  1.00  0.00     0.155 C 
BRANCH  13  15
HETATM   15  C10 UNL     1      23.902   3.797  51.421  1.00  0.00     0.037 A 
HETATM   16  C11 UNL     1      22.651   3.464  51.917  1.00  0.00     0.049 A 
HETATM   17  C12 UNL     1      21.661   4.437  52.000  1.00  0.00     0.120 A 
HETATM   18  N4  UNL     1      21.915   5.707  51.599  1.00  0.00    -0.253 NA
HETATM   19  C13 UNL     1      23.137   6.000  51.123  1.00  0.00     0.104 A 
HETATM   20 BR1  UNL     1      23.576   7.777  50.534  1.00  0.00    -0.029 Br
HETATM   21  C14 UNL     1      24.161   5.088  51.013  1.00  0.00     0.069 A 
ENDBRANCH  13  15
ENDBRANCH   7  13
TORSDOF 5
ENDMDL
MODEL 3
REMARK VINA RESULT:      -6.2      2.616      4.426
REMARK  5 active torsions:
REMARK  status: ('A' for Active; 'I' for Inactive)
REMARK    1  A    between atoms: O1_2  and  C2_3 
REMARK    2  A    between atoms: C2_3  and  C3_4 
REMARK    3  A    between atoms: C5_8  and  O2_9 
REMARK    4  A    between atoms: C8_12  and  N3_13 
REMARK    5  A    between atoms: N3_13  and  C10_15 
ROOT
HETATM    1  C3  UNL     1      26.646  -0.221  52.744  1.00  0.00     0.071 A 
HETATM    2  N1  UNL     1      27.617   0.627  52.716  1.00  0.00    -0.244 NA
HETATM    3  C4  UNL     1      27.563   1.935  53.269  1.00  0.00     0.230 A 
HETATM    4  N2  UNL     1      26.513   2.370  53.850  1.00  0.00    -0.246 NA
HETATM    5  C5  UNL     1      25.297   1.591  53.999  1.00  0.00     0.282 A 
HETATM    6  C7  UNL     1      25.431   0.243  53.400  1.00  0.00     0.034 A 
HETATM    7  C8  UNL     1      24.423  -0.595  53.449  1.00  0.00     0.104 C 
ENDROOT
BRANCH   1   8
HETATM    8  C2  UNL     1      26.781  -1.575  52.140  1.00  0.00     0.226 C 
BRANCH   8   9
HETATM    9  O1  UNL     1      27.282  -2.418  53.122  1.00  0.00    -0.390 OA
HETATM   10  C1  UNL     1      28.646  -2.657  52.990  1.00  0.00     0.201 C 
ENDBRANCH   8   9
ENDBRANCH   1   8
BRANCH   5  11
HETATM   11  O2  UNL     1      24.282   2.343  53.445  1.00  0.00    -0.365 OA
HETATM   12  C6  UNL     1      24.611   2.902  52.211  1.00  0.00     0.204 C 
ENDBRANCH   5  11
BRANCH   7  13
HETATM   13  N3  UNL     1      23.090  -0.669  53.932  1.00  0.00    -0.360 N 
HETATM   14  C9  UNL     1      22.745  -1.096  55.275  1.00  0.00     0.155 C 
BRANCH  13  15
HETATM   15  C10 UNL     1      22.039  -0.302  53.051  1.00  0.00     0.037 A 
HETATM   16  C11 UNL     1      20.738  -0.410  53.518  1.00  0.00     0.049 A 
HETATM   17  C12 UNL     1      19.677  -0.062  52.689  1.00  0.00     0.120 A 
HETATM   18  N4  UNL     1      19.911   0.381  51.430  1.00  0.00    -0.253 NA
HETATM   19  C13 UNL     1      21.182   0.475  51.004  1.00  0.00     0.104 A 
HETATM   20 BR1  UNL     1      21.597   1.094  49.231  1.00  0.00    -0.029 Br
HETATM   21  C14 UNL     1      22.278   0.148  51.770  1.00  0.00     0.069 A 
ENDBRANCH  13  15
ENDBRANCH   7  13
TORSDOF 5
ENDMDL
MODEL 4
REMARK VINA RESULT:      -6.2      3.038      6.189
REMARK  5 active torsions:
REMARK  status: ('A' for Active; 'I' for Inactive)
REMARK    1  A    between atoms: O1_2  and  C2_3 
REMARK    2  A    between atoms: C2_3  and  C3_4 
REMARK    3  A    between atoms: C5_8  and  O2_9 
REMARK    4  A    between atoms: C8_12  and  N3_13 
REMARK    5  A    between atoms: N3_13  and  C10_15 
ROOT
HETATM    1  C3  UNL     1      25.673   4.857  50.050  1.00  0.00     0.071 A 
HETATM    2  N1  UNL     1      25.491   6.134  50.035  1.00  0.00    -0.244 NA
HETATM    3  C4  UNL     1      24.445   6.808  50.721  1.00  0.00     0.230 A 
HETATM    4  N2  UNL     1      23.589   6.173  51.422  1.00  0.00    -0.246 NA
HETATM    5  C5  UNL     1      23.596   4.730  51.583  1.00  0.00     0.282 A 
HETATM    6  C7  UNL     1      24.712   4.100  50.842  1.00  0.00     0.034 A 
HETATM    7  C8  UNL     1      24.869   2.798  50.882  1.00  0.00     0.104 C 
ENDROOT
BRANCH   1   8
HETATM    8  C2  UNL     1      26.795   4.224  49.304  1.00  0.00     0.226 C 
BRANCH   8   9
HETATM    9  O1  UNL     1      27.262   5.157  48.389  1.00  0.00    -0.390 OA
HETATM   10  C1  UNL     1      28.649   5.266  48.382  1.00  0.00     0.201 C 
ENDBRANCH   8   9
ENDBRANCH   1   8
BRANCH   5  11
HETATM   11  O2  UNL     1      22.351   4.287  51.188  1.00  0.00    -0.365 OA
HETATM   12  C6  UNL     1      21.387   4.365  52.193  1.00  0.00     0.204 C 
ENDBRANCH   5  11
BRANCH   7  13
HETATM   13  N3  UNL     1      24.269   1.646  51.456  1.00  0.00    -0.360 N 
HETATM   14  C9  UNL     1      22.946   1.168  51.103  1.00  0.00     0.155 C 
BRANCH  13  15
HETATM   15  C10 UNL     1      25.009   0.923  52.429  1.00  0.00     0.037 A 
HETATM   16  C11 UNL     1      24.306   0.099  53.294  1.00  0.00     0.049 A 
HETATM   17  C12 UNL     1      24.989  -0.627  54.263  1.00  0.00     0.120 A 
HETATM   18  N4  UNL     1      26.337  -0.532  54.364  1.00  0.00    -0.253 NA
HETATM   19  C13 UNL     1      26.992   0.275  53.513  1.00  0.00     0.104 A 
HETATM   20 BR1  UNL     1      28.904   0.465  53.592  1.00  0.00    -0.029 Br
HETATM   21  C14 UNL     1      26.381   1.021  52.532  1.00  0.00     0.069 A 
ENDBRANCH  13  15
ENDBRANCH   7  13
TORSDOF 5
ENDMDL
MODEL 5
REMARK VINA RESULT:      -6.2      3.343      5.746
REMARK  5 active torsions:
REMARK  status: ('A' for Active; 'I' for Inactive)
REMARK    1  A    between atoms: O1_2  and  C2_3 
REMARK    2  A    between atoms: C2_3  and  C3_4 
REMARK    3  A    between atoms: C5_8  and  O2_9 
REMARK    4  A    between atoms: C8_12  and  N3_13 
REMARK    5  A    between atoms: N3_13  and  C10_15 
ROOT
HETATM    1  C3  UNL     1      25.942   2.302  51.839  1.00  0.00     0.071 A 
HETATM    2  N1  UNL     1      26.765   2.737  50.947  1.00  0.00    -0.244 NA
HETATM    3  C4  UNL     1      26.381   3.349  49.723  1.00  0.00     0.230 A 
HETATM    4  N2  UNL     1      25.153   3.513  49.417  1.00  0.00    -0.246 NA
HETATM    5  C5  UNL     1      24.052   3.100  50.267  1.00  0.00     0.282 A 
HETATM    6  C7  UNL     1      24.530   2.474  51.521  1.00  0.00     0.034 A 
HETATM    7  C8  UNL     1      23.663   2.044  52.408  1.00  0.00     0.104 C 
ENDROOT
BRANCH   1   8
HETATM    8  C2  UNL     1      26.423   1.671  53.098  1.00  0.00     0.226 C 
BRANCH   8   9
HETATM    9  O1  UNL     1      27.211   0.585  52.742  1.00  0.00    -0.390 OA
HETATM   10  C1  UNL     1      26.482  -0.592  52.600  1.00  0.00     0.201 C 
ENDBRANCH   8   9
ENDBRANCH   1   8
BRANCH   5  11
HETATM   11  O2  UNL     1      23.258   2.269  49.503  1.00  0.00    -0.365 OA
HETATM   12  C6  UNL     1      22.848   2.842  48.300  1.00  0.00     0.204 C 
ENDBRANCH   5  11
BRANCH   7  13
HETATM   13  N3  UNL     1      22.260   1.960  52.607  1.00  0.00    -0.360 N 
HETATM   14  C9  UNL     1      21.340   3.040  52.306  1.00  0.00     0.155 C 
BRANCH  13  15
HETATM   15  C10 UNL     1      21.731   0.751  53.130  1.00  0.00     0.037 A 
HETATM   16  C11 UNL     1      22.593  -0.084  53.824  1.00  0.00     0.049 A 
HETATM   17  C12 UNL     1      22.118  -1.279  54.353  1.00  0.00     0.120 A 
HETATM   18  N4  UNL     1      20.819  -1.629  54.193  1.00  0.00    -0.253 NA
HETATM   19  C13 UNL     1      20.007  -0.800  53.515  1.00  0.00     0.104 A 
HETATM   20 BR1  UNL     1      18.151  -1.225  53.244  1.00  0.00    -0.029 Br
HETATM   21  C14 UNL     1      20.409   0.395  52.966  1.00  0.00     0.069 A 
ENDBRANCH  13  15
ENDBRANCH   7  13
TORSDOF 5
ENDMDL
MODEL 6
REMARK VINA RESULT:      -6.1      1.224      3.616
REMARK  5 active torsions:
REMARK  status: ('A' for Active; 'I' for Inactive)
REMARK    1  A    between atoms: O1_2  and  C2_3 
REMARK    2  A    between atoms: C2_3  and  C3_4 
REMARK    3  A    between atoms: C5_8  and  O2_9 
REMARK    4  A    between atoms: C8_12  and  N3_13 
REMARK    5  A    between atoms: N3_13  and  C10_15 
ROOT
HETATM    1  C3  UNL     1      23.555  -0.659  53.933  1.00  0.00     0.071 A 
HETATM    2  N1  UNL     1      23.655  -1.341  55.024  1.00  0.00    -0.244 NA
HETATM    3  C4  UNL     1      24.777  -1.309  55.896  1.00  0.00     0.230 A 
HETATM    4  N2  UNL     1      25.792  -0.577  55.649  1.00  0.00    -0.246 NA
HETATM    5  C5  UNL     1      25.902   0.274  54.478  1.00  0.00     0.282 A 
HETATM    6  C7  UNL     1      24.698   0.188  53.621  1.00  0.00     0.034 A 
HETATM    7  C8  UNL     1      24.629   0.899  52.519  1.00  0.00     0.104 C 
ENDROOT
BRANCH   1   8
HETATM    8  C2  UNL     1      22.345  -0.748  53.071  1.00  0.00     0.226 C 
BRANCH   8   9
HETATM    9  O1  UNL     1      21.246  -0.864  53.910  1.00  0.00    -0.390 OA
HETATM   10  C1  UNL     1      20.621   0.353  54.161  1.00  0.00     0.201 C 
ENDBRANCH   8   9
ENDBRANCH   1   8
BRANCH   5  11
HETATM   11  O2  UNL     1      27.066  -0.094  53.836  1.00  0.00    -0.365 OA
HETATM   12  C6  UNL     1      28.215   0.123  54.595  1.00  0.00     0.204 C 
ENDBRANCH   5  11
BRANCH   7  13
HETATM   13  N3  UNL     1      25.399   1.831  51.775  1.00  0.00    -0.360 N 
HETATM   14  C9  UNL     1      26.697   1.528  51.204  1.00  0.00     0.155 C 
BRANCH  13  15
HETATM   15  C10 UNL     1      24.865   3.132  51.580  1.00  0.00     0.037 A 
HETATM   16  C11 UNL     1      23.961   3.606  52.518  1.00  0.00     0.049 A 
HETATM   17  C12 UNL     1      23.412   4.875  52.367  1.00  0.00     0.120 A 
HETATM   18  N4  UNL     1      23.758   5.648  51.309  1.00  0.00    -0.253 NA
HETATM   19  C13 UNL     1      24.637   5.162  50.416  1.00  0.00     0.104 A 
HETATM   20 BR1  UNL     1      25.178   6.196  48.887  1.00  0.00    -0.029 Br
HETATM   21  C14 UNL     1      25.217   3.918  50.503  1.00  0.00     0.069 A 
ENDBRANCH  13  15
ENDBRANCH   7  13
TORSDOF 5
ENDMDL
MODEL 7
REMARK VINA RESULT:      -6.0      2.330      4.066
REMARK  5 active torsions:
REMARK  status: ('A' for Active; 'I' for Inactive)
REMARK    1  A    between atoms: O1_2  and  C2_3 
REMARK    2  A    between atoms: C2_3  and  C3_4 
REMARK    3  A    between atoms: C5_8  and  O2_9 
REMARK    4  A    between atoms: C8_12  and  N3_13 
REMARK    5  A    between atoms: N3_13  and  C10_15 
ROOT
HETATM    1  C3  UNL     1      24.259  -0.055  53.748  1.00  0.00     0.071 A 
HETATM    2  N1  UNL     1      25.245  -0.475  54.467  1.00  0.00    -0.244 NA
HETATM    3  C4  UNL     1      26.419   0.276  54.744  1.00  0.00     0.230 A 
HETATM    4  N2  UNL     1      26.580   1.456  54.285  1.00  0.00    -0.246 NA
HETATM    5  C5  UNL     1      25.603   2.132  53.451  1.00  0.00     0.282 A 
HETATM    6  C7  UNL     1      24.410   1.290  53.208  1.00  0.00     0.034 A 
HETATM    7  C8  UNL     1      23.425   1.750  52.474  1.00  0.00     0.104 C 
ENDROOT
BRANCH   1   8
HETATM    8  C2  UNL     1      23.061  -0.903  53.503  1.00  0.00     0.226 C 
BRANCH   8   9
HETATM    9  O1  UNL     1      22.375  -1.008  54.705  1.00  0.00    -0.390 OA
HETATM   10  C1  UNL     1      21.203  -0.258  54.730  1.00  0.00     0.201 C 
ENDBRANCH   8   9
ENDBRANCH   1   8
BRANCH   5  11
HETATM   11  O2  UNL     1      26.263   2.502  52.297  1.00  0.00    -0.365 OA
HETATM   12  C6  UNL     1      26.750   1.421  51.563  1.00  0.00     0.204 C 
ENDBRANCH   5  11
BRANCH   7  13
HETATM   13  N3  UNL     1      23.061   2.913  51.745  1.00  0.00    -0.360 N 
HETATM   14  C9  UNL     1      23.126   4.256  52.289  1.00  0.00     0.155 C 
BRANCH  13  15
HETATM   15  C10 UNL     1      22.610   2.749  50.408  1.00  0.00     0.037 A 
HETATM   16  C11 UNL     1      22.140   1.500  50.034  1.00  0.00     0.049 A 
HETATM   17  C12 UNL     1      21.689   1.294  48.735  1.00  0.00     0.120 A 
HETATM   18  N4  UNL     1      21.706   2.308  47.836  1.00  0.00    -0.253 NA
HETATM   19  C13 UNL     1      22.168   3.509  48.228  1.00  0.00     0.104 A 
HETATM   20 BR1  UNL     1      22.226   4.998  47.012  1.00  0.00    -0.029 Br
HETATM   21  C14 UNL     1      22.629   3.782  49.495  1.00  0.00     0.069 A 
ENDBRANCH  13  15
ENDBRANCH   7  13
TORSDOF 5
ENDMDL
MODEL 8
REMARK VINA RESULT:      -6.0      2.187      2.992
REMARK  5 active torsions:
REMARK  status: ('A' for Active; 'I' for Inactive)
REMARK    1  A    between atoms: O1_2  and  C2_3 
REMARK    2  A    between atoms: C2_3  and  C3_4 
REMARK    3  A    between atoms: C5_8  and  O2_9 
REMARK    4  A    between atoms: C8_12  and  N3_13 
REMARK    5  A    between atoms: N3_13  and  C10_15 
ROOT
HETATM    1  C3  UNL     1      25.205   1.017  52.147  1.00  0.00     0.071 A 
HETATM    2  N1  UNL     1      24.713   0.254  53.064  1.00  0.00    -0.244 NA
HETATM    3  C4  UNL     1      23.358   0.275  53.491  1.00  0.00     0.230 A 
HETATM    4  N2  UNL     1      22.510   1.078  52.977  1.00  0.00    -0.246 NA
HETATM    5  C5  UNL     1      22.837   2.028  51.930  1.00  0.00     0.282 A 
HETATM    6  C7  UNL     1      24.262   1.947  51.539  1.00  0.00     0.034 A 
HETATM    7  C8  UNL     1      24.727   2.737  50.600  1.00  0.00     0.104 C 
ENDROOT
BRANCH   1   8
HETATM    8  C2  UNL     1      26.638   0.935  51.755  1.00  0.00     0.226 C 
BRANCH   8   9
HETATM    9  O1  UNL     1      27.387   0.923  52.924  1.00  0.00    -0.390 OA
HETATM   10  C1  UNL     1      27.951   2.159  53.223  1.00  0.00     0.201 C 
ENDBRANCH   8   9
ENDBRANCH   1   8
BRANCH   5  11
HETATM   11  O2  UNL     1      22.463   3.271  52.401  1.00  0.00    -0.365 OA
HETATM   12  C6  UNL     1      21.143   3.606  52.104  1.00  0.00     0.204 C 
ENDBRANCH   5  11
BRANCH   7  13
HETATM   13  N3  UNL     1      24.287   3.765  49.725  1.00  0.00    -0.360 N 
HETATM   14  C9  UNL     1      23.160   3.626  48.824  1.00  0.00     0.155 C 
BRANCH  13  15
HETATM   15  C10 UNL     1      24.992   4.998  49.737  1.00  0.00     0.037 A 
HETATM   16  C11 UNL     1      24.484   6.025  50.515  1.00  0.00     0.049 A 
HETATM   17  C12 UNL     1      25.141   7.250  50.557  1.00  0.00     0.120 A 
HETATM   18  N4  UNL     1      26.275   7.441  49.840  1.00  0.00    -0.253 NA
HETATM   19  C13 UNL     1      26.745   6.427  49.094  1.00  0.00     0.104 A 
HETATM   20 BR1  UNL     1      28.348   6.618  48.048  1.00  0.00    -0.029 Br
HETATM   21  C14 UNL     1      26.146   5.191  49.007  1.00  0.00     0.069 A 
ENDBRANCH  13  15
ENDBRANCH   7  13
TORSDOF 5
ENDMDL
MODEL 9
REMARK VINA RESULT:      -5.9      3.353      5.376
REMARK  5 active torsions:
REMARK  status: ('A' for Active; 'I' for Inactive)
REMARK    1  A    between atoms: O1_2  and  C2_3 
REMARK    2  A    between atoms: C2_3  and  C3_4 
REMARK    3  A    between atoms: C5_8  and  O2_9 
REMARK    4  A    between atoms: C8_12  and  N3_13 
REMARK    5  A    between atoms: N3_13  and  C10_15 
ROOT
HETATM    1  C3  UNL     1      27.301  -0.031  52.995  1.00  0.00     0.071 A 
HETATM    2  N1  UNL     1      28.376   0.581  53.363  1.00  0.00    -0.244 NA
HETATM    3  C4  UNL     1      28.446   1.961  53.695  1.00  0.00     0.230 A 
HETATM    4  N2  UNL     1      27.415   2.711  53.650  1.00  0.00    -0.246 NA
HETATM    5  C5  UNL     1      26.098   2.241  53.261  1.00  0.00     0.282 A 
HETATM    6  C7  UNL     1      26.104   0.797  52.932  1.00  0.00     0.034 A 
HETATM    7  C8  UNL     1      24.991   0.207  52.563  1.00  0.00     0.104 C 
ENDROOT
BRANCH   1   8
HETATM    8  C2  UNL     1      27.309  -1.482  52.663  1.00  0.00     0.226 C 
BRANCH   8   9
HETATM    9  O1  UNL     1      28.074  -2.123  53.627  1.00  0.00    -0.390 OA
HETATM   10  C1  UNL     1      29.314  -2.537  53.150  1.00  0.00     0.201 C 
ENDBRANCH   8   9
ENDBRANCH   1   8
BRANCH   5  11
HETATM   11  O2  UNL     1      25.689   3.044  52.217  1.00  0.00    -0.365 OA
HETATM   12  C6  UNL     1      26.499   2.945  51.087  1.00  0.00     0.204 C 
ENDBRANCH   5  11
BRANCH   7  13
HETATM   13  N3  UNL     1      23.621   0.507  52.344  1.00  0.00    -0.360 N 
HETATM   14  C9  UNL     1      23.156   1.476  51.369  1.00  0.00     0.155 C 
BRANCH  13  15
HETATM   15  C10 UNL     1      22.654  -0.182  53.122  1.00  0.00     0.037 A 
HETATM   16  C11 UNL     1      23.095  -0.862  54.246  1.00  0.00     0.049 A 
HETATM   17  C12 UNL     1      22.182  -1.551  55.038  1.00  0.00     0.120 A 
HETATM   18  N4  UNL     1      20.867  -1.560  54.714  1.00  0.00    -0.253 NA
HETATM   19  C13 UNL     1      20.468  -0.892  53.618  1.00  0.00     0.104 A 
HETATM   20 BR1  UNL     1      18.618  -0.857  53.091  1.00  0.00    -0.029 Br
HETATM   21  C14 UNL     1      21.315  -0.191  52.791  1.00  0.00     0.069 A 
ENDBRANCH  13  15
ENDBRANCH   7  13
TORSDOF 5
ENDMDL
