MODEL 1
REMARK VINA RESULT:      -6.5      0.000      0.000
REMARK  5 active torsions:
REMARK  status: ('A' for Active; 'I' for Inactive)
REMARK    1  A    between atoms: O1_2  and  C2_3 
REMARK    2  A    between atoms: C6_9  and  N3_10 
REMARK    3  A    between atoms: N3_10  and  C8_12 
REMARK    4  A    between atoms: C9_13  and  C10_14 
REMARK    5  A    between atoms: C13_18  and  O2_19 
ROOT
HETATM    1  C2  UNL     1      26.182  -0.348  53.645  1.00  0.00     0.103 A 
HETATM    2  C3  UNL     1      25.216  -0.940  54.434  1.00  0.00     0.072 A 
HETATM    3  C4  UNL     1      23.875  -0.602  54.248  1.00  0.00     0.075 A 
HETATM    4  N1  UNL     1      22.873  -1.142  54.986  1.00  0.00    -0.241 NA
HETATM    5  C5  UNL     1      21.597  -0.777  54.759  1.00  0.00     0.236 A 
HETATM    6  N2  UNL     1      21.296   0.123  53.804  1.00  0.00    -0.223 NA
HETATM    7  C6  UNL     1      22.283   0.667  53.064  1.00  0.00     0.143 A 
HETATM    8  C11 UNL     1      23.608   0.323  53.260  1.00  0.00     0.042 A 
HETATM    9  C12 UNL     1      24.554   0.927  52.458  1.00  0.00     0.057 A 
HETATM   10  C13 UNL     1      25.872   0.575  52.665  1.00  0.00     0.102 A 
ENDROOT
BRANCH   7  11
HETATM   11  N3  UNL     1      21.823   1.607  52.085  1.00  0.00    -0.346 N 
HETATM   12  C7  UNL     1      21.660   3.047  52.166  1.00  0.00     0.157 C 
BRANCH  11  13
HETATM   13  C8  UNL     1      21.485   0.965  50.858  1.00  0.00     0.090 C 
HETATM   14  C9  UNL     1      21.826   1.666  49.793  1.00  0.00     0.021 C 
BRANCH  14  15
HETATM   15  C10 UNL     1      21.610   1.268  48.378  1.00  0.00     0.251 C 
HETATM   16  F1  UNL     1      22.694   1.702  47.636  1.00  0.00    -0.251 F 
ENDBRANCH  14  15
ENDBRANCH  11  13
ENDBRANCH   7  11
BRANCH  10  17
HETATM   17  O2  UNL     1      26.911   1.116  51.920  1.00  0.00    -0.353 OA
HETATM   18  C14 UNL     1      26.695   2.392  51.348  1.00  0.00     0.210 C 
ENDBRANCH  10  17
BRANCH   1  19
HETATM   19  O1  UNL     1      27.508  -0.699  53.848  1.00  0.00    -0.353 OA
HETATM   20  C1  UNL     1      28.263   0.032  54.826  1.00  0.00     0.210 C 
ENDBRANCH   1  19
TORSDOF 5
ENDMDL
MODEL 2
REMARK VINA RESULT:      -6.5      3.160      5.462
REMARK  5 active torsions:
REMARK  status: ('A' for Active; 'I' for Inactive)
REMARK    1  A    between atoms: O1_2  and  C2_3 
REMARK    2  A    between atoms: C6_9  and  N3_10 
REMARK    3  A    between atoms: N3_10  and  C8_12 
REMARK    4  A    between atoms: C9_13  and  C10_14 
REMARK    5  A    between atoms: C13_18  and  O2_19 
ROOT
HETATM    1  C2  UNL     1      21.565   0.879  52.333  1.00  0.00     0.103 A 
HETATM    2  C3  UNL     1      21.410   0.165  53.505  1.00  0.00     0.072 A 
HETATM    3  C4  UNL     1      22.534  -0.373  54.134  1.00  0.00     0.075 A 
HETATM    4  N1  UNL     1      22.458  -1.086  55.286  1.00  0.00    -0.241 NA
HETATM    5  C5  UNL     1      23.578  -1.580  55.847  1.00  0.00     0.236 A 
HETATM    6  N2  UNL     1      24.782  -1.377  55.279  1.00  0.00    -0.223 NA
HETATM    7  C6  UNL     1      24.870  -0.670  54.134  1.00  0.00     0.143 A 
HETATM    8  C11 UNL     1      23.748  -0.143  53.521  1.00  0.00     0.042 A 
HETATM    9  C12 UNL     1      23.928   0.567  52.352  1.00  0.00     0.057 A 
HETATM   10  C13 UNL     1      22.800   1.087  51.752  1.00  0.00     0.102 A 
ENDROOT
BRANCH   7  11
HETATM   11  N3  UNL     1      26.208  -0.530  53.641  1.00  0.00    -0.346 N 
HETATM   12  C7  UNL     1      26.914  -1.268  52.610  1.00  0.00     0.157 C 
BRANCH  11  13
HETATM   13  C8  UNL     1      26.907   0.517  54.309  1.00  0.00     0.090 C 
HETATM   14  C9  UNL     1      28.136   0.693  53.859  1.00  0.00     0.021 C 
BRANCH  14  15
HETATM   15  C10 UNL     1      29.111   1.700  54.348  1.00  0.00     0.251 C 
HETATM   16  F1  UNL     1      28.830   2.909  53.736  1.00  0.00    -0.251 F 
ENDBRANCH  14  15
ENDBRANCH  11  13
ENDBRANCH   7  11
BRANCH  10  17
HETATM   17  O2  UNL     1      22.857   1.820  50.573  1.00  0.00    -0.353 OA
HETATM   18  C14 UNL     1      23.834   2.841  50.498  1.00  0.00     0.210 C 
ENDBRANCH  10  17
BRANCH   1  19
HETATM   19  O1  UNL     1      20.434   1.405  51.725  1.00  0.00    -0.353 OA
HETATM   20  C1  UNL     1      19.925   2.658  52.204  1.00  0.00     0.210 C 
ENDBRANCH   1  19
TORSDOF 5
ENDMDL
MODEL 3
REMARK VINA RESULT:      -6.3      1.471      2.034
REMARK  5 active torsions:
REMARK  status: ('A' for Active; 'I' for Inactive)
REMARK    1  A    between atoms: O1_2  and  C2_3 
REMARK    2  A    between atoms: C6_9  and  N3_10 
REMARK    3  A    between atoms: N3_10  and  C8_12 
REMARK    4  A    between atoms: C9_13  and  C10_14 
REMARK    5  A    between atoms: C13_18  and  O2_19 
ROOT
HETATM    1  C2  UNL     1      26.083  -0.382  53.675  1.00  0.00     0.103 A 
HETATM    2  C3  UNL     1      25.121  -0.918  54.508  1.00  0.00     0.072 A 
HETATM    3  C4  UNL     1      23.774  -0.651  54.263  1.00  0.00     0.075 A 
HETATM    4  N1  UNL     1      22.776  -1.142  55.038  1.00  0.00    -0.241 NA
HETATM    5  C5  UNL     1      21.493  -0.849  54.751  1.00  0.00     0.236 A 
HETATM    6  N2  UNL     1      21.183  -0.070  53.697  1.00  0.00    -0.223 NA
HETATM    7  C6  UNL     1      22.166   0.425  52.919  1.00  0.00     0.143 A 
HETATM    8  C11 UNL     1      23.497   0.152  53.175  1.00  0.00     0.042 A 
HETATM    9  C12 UNL     1      24.440   0.698  52.328  1.00  0.00     0.057 A 
HETATM   10  C13 UNL     1      25.764   0.417  52.595  1.00  0.00     0.102 A 
ENDROOT
BRANCH   7  11
HETATM   11  N3  UNL     1      21.695   1.236  51.836  1.00  0.00    -0.346 N 
HETATM   12  C7  UNL     1      21.498   0.916  50.435  1.00  0.00     0.157 C 
BRANCH  11  13
HETATM   13  C8  UNL     1      21.389   2.560  52.268  1.00  0.00     0.090 C 
HETATM   14  C9  UNL     1      22.139   3.482  51.692  1.00  0.00     0.021 C 
BRANCH  14  15
HETATM   15  C10 UNL     1      22.063   4.946  51.930  1.00  0.00     0.251 C 
HETATM   16  F1  UNL     1      23.291   5.372  52.404  1.00  0.00    -0.251 F 
ENDBRANCH  14  15
ENDBRANCH  11  13
ENDBRANCH   7  11
BRANCH  10  17
HETATM   17  O2  UNL     1      26.800   0.910  51.813  1.00  0.00    -0.353 OA
HETATM   18  C14 UNL     1      26.684   2.247  51.362  1.00  0.00     0.210 C 
ENDBRANCH  10  17
BRANCH   1  19
HETATM   19  O1  UNL     1      27.416  -0.662  53.938  1.00  0.00    -0.353 OA
HETATM   20  C1  UNL     1      28.112   0.168  54.881  1.00  0.00     0.210 C 
ENDBRANCH   1  19
TORSDOF 5
ENDMDL
MODEL 4
REMARK VINA RESULT:      -6.1      3.540      5.765
REMARK  5 active torsions:
REMARK  status: ('A' for Active; 'I' for Inactive)
REMARK    1  A    between atoms: O1_2  and  C2_3 
REMARK    2  A    between atoms: C6_9  and  N3_10 
REMARK    3  A    between atoms: N3_10  and  C8_12 
REMARK    4  A    between atoms: C9_13  and  C10_14 
REMARK    5  A    between atoms: C13_18  and  O2_19 
ROOT
HETATM    1  C2  UNL     1      20.120   0.216  52.166  1.00  0.00     0.103 A 
HETATM    2  C3  UNL     1      20.269  -0.509  53.332  1.00  0.00     0.072 A 
HETATM    3  C4  UNL     1      21.543  -0.687  53.872  1.00  0.00     0.075 A 
HETATM    4  N1  UNL     1      21.764  -1.387  55.013  1.00  0.00    -0.241 NA
HETATM    5  C5  UNL     1      23.018  -1.524  55.485  1.00  0.00     0.236 A 
HETATM    6  N2  UNL     1      24.064  -0.974  54.840  1.00  0.00    -0.223 NA
HETATM    7  C6  UNL     1      23.855  -0.276  53.705  1.00  0.00     0.143 A 
HETATM    8  C11 UNL     1      22.588  -0.108  53.181  1.00  0.00     0.042 A 
HETATM    9  C12 UNL     1      22.464   0.620  52.016  1.00  0.00     0.057 A 
HETATM   10  C13 UNL     1      21.193   0.780  51.505  1.00  0.00     0.102 A 
ENDROOT
BRANCH   7  11
HETATM   11  N3  UNL     1      25.054   0.254  53.123  1.00  0.00    -0.346 N 
HETATM   12  C7  UNL     1      25.344   1.577  52.606  1.00  0.00     0.157 C 
BRANCH  11  13
HETATM   13  C8  UNL     1      26.088  -0.726  53.070  1.00  0.00     0.090 C 
HETATM   14  C9  UNL     1      27.296  -0.216  53.230  1.00  0.00     0.021 C 
BRANCH  14  15
HETATM   15  C10 UNL     1      28.573  -0.974  53.225  1.00  0.00     0.251 C 
HETATM   16  F1  UNL     1      29.223  -0.735  54.423  1.00  0.00    -0.251 F 
ENDBRANCH  14  15
ENDBRANCH  11  13
ENDBRANCH   7  11
BRANCH  10  17
HETATM   17  O2  UNL     1      20.945   1.493  50.339  1.00  0.00    -0.353 OA
HETATM   18  C14 UNL     1      21.396   0.919  49.127  1.00  0.00     0.210 C 
ENDBRANCH  10  17
BRANCH   1  19
HETATM   19  O1  UNL     1      18.844   0.380  51.648  1.00  0.00    -0.353 OA
HETATM   20  C1  UNL     1      17.834  -0.573  52.011  1.00  0.00     0.210 C 
ENDBRANCH   1  19
TORSDOF 5
ENDMDL
MODEL 5
REMARK VINA RESULT:      -6.1      2.398      3.903
REMARK  5 active torsions:
REMARK  status: ('A' for Active; 'I' for Inactive)
REMARK    1  A    between atoms: O1_2  and  C2_3 
REMARK    2  A    between atoms: C6_9  and  N3_10 
REMARK    3  A    between atoms: N3_10  and  C8_12 
REMARK    4  A    between atoms: C9_13  and  C10_14 
REMARK    5  A    between atoms: C13_18  and  O2_19 
ROOT
HETATM    1  C2  UNL     1      27.177   0.298  53.990  1.00  0.00     0.103 A 
HETATM    2  C3  UNL     1      27.556   1.152  52.974  1.00  0.00     0.072 A 
HETATM    3  C4  UNL     1      26.581   1.714  52.149  1.00  0.00     0.075 A 
HETATM    4  N1  UNL     1      26.879   2.560  51.132  1.00  0.00    -0.241 NA
HETATM    5  C5  UNL     1      25.893   3.070  50.369  1.00  0.00     0.236 A 
HETATM    6  N2  UNL     1      24.606   2.751  50.602  1.00  0.00    -0.223 NA
HETATM    7  C6  UNL     1      24.297   1.911  51.610  1.00  0.00     0.143 A 
HETATM    8  C11 UNL     1      25.274   1.362  52.419  1.00  0.00     0.042 A 
HETATM    9  C12 UNL     1      24.871   0.512  53.428  1.00  0.00     0.057 A 
HETATM   10  C13 UNL     1      25.856  -0.028  54.228  1.00  0.00     0.102 A 
ENDROOT
BRANCH   7  11
HETATM   11  N3  UNL     1      22.892   1.659  51.745  1.00  0.00    -0.346 N 
HETATM   12  C7  UNL     1      22.133   0.438  51.559  1.00  0.00     0.157 C 
BRANCH  11  13
HETATM   13  C8  UNL     1      22.182   2.837  52.123  1.00  0.00     0.090 C 
HETATM   14  C9  UNL     1      21.090   3.037  51.408  1.00  0.00     0.021 C 
BRANCH  14  15
HETATM   15  C10 UNL     1      20.142   4.170  51.559  1.00  0.00     0.251 C 
HETATM   16  F1  UNL     1      18.878   3.651  51.774  1.00  0.00    -0.251 F 
ENDBRANCH  14  15
ENDBRANCH  11  13
ENDBRANCH   7  11
BRANCH  10  17
HETATM   17  O2  UNL     1      25.572  -0.896  55.274  1.00  0.00    -0.353 OA
HETATM   18  C14 UNL     1      24.214  -1.246  55.467  1.00  0.00     0.210 C 
ENDBRANCH  10  17
BRANCH   1  19
HETATM   19  O1  UNL     1      28.164  -0.248  54.798  1.00  0.00    -0.353 OA
HETATM   20  C1  UNL     1      29.432  -0.565  54.204  1.00  0.00     0.210 C 
ENDBRANCH   1  19
TORSDOF 5
ENDMDL
MODEL 6
REMARK VINA RESULT:      -6.1      1.642      1.746
REMARK  5 active torsions:
REMARK  status: ('A' for Active; 'I' for Inactive)
REMARK    1  A    between atoms: O1_2  and  C2_3 
REMARK    2  A    between atoms: C6_9  and  N3_10 
REMARK    3  A    between atoms: N3_10  and  C8_12 
REMARK    4  A    between atoms: C9_13  and  C10_14 
REMARK    5  A    between atoms: C13_18  and  O2_19 
ROOT
HETATM    1  C2  UNL     1      26.176  -0.187  53.128  1.00  0.00     0.103 A 
HETATM    2  C3  UNL     1      25.365  -0.804  54.060  1.00  0.00     0.072 A 
HETATM    3  C4  UNL     1      23.997  -0.527  54.072  1.00  0.00     0.075 A 
HETATM    4  N1  UNL     1      23.142  -1.095  54.958  1.00  0.00    -0.241 NA
HETATM    5  C5  UNL     1      21.831  -0.788  54.919  1.00  0.00     0.236 A 
HETATM    6  N2  UNL     1      21.352   0.080  54.009  1.00  0.00    -0.223 NA
HETATM    7  C6  UNL     1      22.193   0.651  53.123  1.00  0.00     0.143 A 
HETATM    8  C11 UNL     1      23.546   0.367  53.123  1.00  0.00     0.042 A 
HETATM    9  C12 UNL     1      24.335   0.996  52.182  1.00  0.00     0.057 A 
HETATM   10  C13 UNL     1      25.683   0.703  52.195  1.00  0.00     0.102 A 
ENDROOT
BRANCH   7  11
HETATM   11  N3  UNL     1      21.550   1.553  52.212  1.00  0.00    -0.346 N 
HETATM   12  C7  UNL     1      21.552   3.002  52.165  1.00  0.00     0.157 C 
BRANCH  11  13
HETATM   13  C8  UNL     1      20.805   0.852  51.219  1.00  0.00     0.090 C 
HETATM   14  C9  UNL     1      19.553   1.262  51.123  1.00  0.00     0.021 C 
BRANCH  14  15
HETATM   15  C10 UNL     1      18.529   0.732  50.187  1.00  0.00     0.251 C 
HETATM   16  F1  UNL     1      17.874  -0.315  50.809  1.00  0.00    -0.251 F 
ENDBRANCH  14  15
ENDBRANCH  11  13
ENDBRANCH   7  11
BRANCH  10  17
HETATM   17  O2  UNL     1      26.575   1.274  51.296  1.00  0.00    -0.353 OA
HETATM   18  C14 UNL     1      26.531   2.681  51.153  1.00  0.00     0.210 C 
ENDBRANCH  10  17
BRANCH   1  19
HETATM   19  O1  UNL     1      27.532  -0.477  53.135  1.00  0.00    -0.353 OA
HETATM   20  C1  UNL     1      28.305  -0.087  54.280  1.00  0.00     0.210 C 
ENDBRANCH   1  19
TORSDOF 5
ENDMDL
MODEL 7
REMARK VINA RESULT:      -5.9      2.266      3.727
REMARK  5 active torsions:
REMARK  status: ('A' for Active; 'I' for Inactive)
REMARK    1  A    between atoms: O1_2  and  C2_3 
REMARK    2  A    between atoms: C6_9  and  N3_10 
REMARK    3  A    between atoms: N3_10  and  C8_12 
REMARK    4  A    between atoms: C9_13  and  C10_14 
REMARK    5  A    between atoms: C13_18  and  O2_19 
ROOT
HETATM    1  C2  UNL     1      25.873  -0.282  52.950  1.00  0.00     0.103 A 
HETATM    2  C3  UNL     1      26.686   0.531  52.185  1.00  0.00     0.072 A 
HETATM    3  C4  UNL     1      26.152   1.677  51.595  1.00  0.00     0.075 A 
HETATM    4  N1  UNL     1      26.890   2.521  50.831  1.00  0.00    -0.241 NA
HETATM    5  C5  UNL     1      26.317   3.612  50.288  1.00  0.00     0.236 A 
HETATM    6  N2  UNL     1      25.014   3.881  50.491  1.00  0.00    -0.223 NA
HETATM    7  C6  UNL     1      24.270   3.050  51.248  1.00  0.00     0.143 A 
HETATM    8  C11 UNL     1      24.813   1.918  51.827  1.00  0.00     0.042 A 
HETATM    9  C12 UNL     1      23.981   1.122  52.587  1.00  0.00     0.057 A 
HETATM   10  C13 UNL     1      24.537  -0.004  53.158  1.00  0.00     0.102 A 
ENDROOT
BRANCH   7  11
HETATM   11  N3  UNL     1      22.902   3.456  51.382  1.00  0.00    -0.346 N 
HETATM   12  C7  UNL     1      22.309   4.527  52.160  1.00  0.00     0.157 C 
BRANCH  11  13
HETATM   13  C8  UNL     1      22.034   2.637  50.602  1.00  0.00     0.090 C 
HETATM   14  C9  UNL     1      22.295   2.685  49.309  1.00  0.00     0.021 C 
BRANCH  14  15
HETATM   15  C10 UNL     1      21.571   1.948  48.242  1.00  0.00     0.251 C 
HETATM   16  F1  UNL     1      21.544   0.608  48.584  1.00  0.00    -0.251 F 
ENDBRANCH  14  15
ENDBRANCH  11  13
ENDBRANCH   7  11
BRANCH  10  17
HETATM   17  O2  UNL     1      23.798  -0.880  53.943  1.00  0.00    -0.353 OA
HETATM   18  C14 UNL     1      22.439  -0.555  54.164  1.00  0.00     0.210 C 
ENDBRANCH  10  17
BRANCH   1  19
HETATM   19  O1  UNL     1      26.426  -1.415  53.527  1.00  0.00    -0.353 OA
HETATM   20  C1  UNL     1      27.238  -2.269  52.707  1.00  0.00     0.210 C 
ENDBRANCH   1  19
TORSDOF 5
ENDMDL
MODEL 8
REMARK VINA RESULT:      -5.5      3.105      4.678
REMARK  5 active torsions:
REMARK  status: ('A' for Active; 'I' for Inactive)
REMARK    1  A    between atoms: O1_2  and  C2_3 
REMARK    2  A    between atoms: C6_9  and  N3_10 
REMARK    3  A    between atoms: N3_10  and  C8_12 
REMARK    4  A    between atoms: C9_13  and  C10_14 
REMARK    5  A    between atoms: C13_18  and  O2_19 
ROOT
HETATM    1  C2  UNL     1      25.895   0.672  52.690  1.00  0.00     0.103 A 
HETATM    2  C3  UNL     1      26.724   1.450  51.906  1.00  0.00     0.072 A 
HETATM    3  C4  UNL     1      26.167   2.403  51.052  1.00  0.00     0.075 A 
HETATM    4  N1  UNL     1      26.919   3.201  50.254  1.00  0.00    -0.241 NA
HETATM    5  C5  UNL     1      26.323   4.102  49.450  1.00  0.00     0.236 A 
HETATM    6  N2  UNL     1      24.983   4.226  49.425  1.00  0.00    -0.223 NA
HETATM    7  C6  UNL     1      24.225   3.438  50.214  1.00  0.00     0.143 A 
HETATM    8  C11 UNL     1      24.790   2.498  51.055  1.00  0.00     0.042 A 
HETATM    9  C12 UNL     1      23.941   1.734  51.829  1.00  0.00     0.057 A 
HETATM   10  C13 UNL     1      24.520   0.800  52.663  1.00  0.00     0.102 A 
ENDROOT
BRANCH   7  11
HETATM   11  N3  UNL     1      22.817   3.675  50.088  1.00  0.00    -0.346 N 
HETATM   12  C7  UNL     1      21.775   2.864  49.486  1.00  0.00     0.157 C 
BRANCH  11  13
HETATM   13  C8  UNL     1      22.441   4.924  50.665  1.00  0.00     0.090 C 
HETATM   14  C9  UNL     1      21.624   5.625  49.900  1.00  0.00     0.021 C 
BRANCH  14  15
HETATM   15  C10 UNL     1      21.057   6.960  50.220  1.00  0.00     0.251 C 
HETATM   16  F1  UNL     1      21.905   7.587  51.115  1.00  0.00    -0.251 F 
ENDBRANCH  14  15
ENDBRANCH  11  13
ENDBRANCH   7  11
BRANCH  10  17
HETATM   17  O2  UNL     1      23.767  -0.026  53.489  1.00  0.00    -0.353 OA
HETATM   18  C14 UNL     1      22.590  -0.584  52.937  1.00  0.00     0.210 C 
ENDBRANCH  10  17
BRANCH   1  19
HETATM   19  O1  UNL     1      26.470  -0.268  53.532  1.00  0.00    -0.353 OA
HETATM   20  C1  UNL     1      27.366  -1.234  52.961  1.00  0.00     0.210 C 
ENDBRANCH   1  19
TORSDOF 5
ENDMDL
MODEL 9
REMARK VINA RESULT:      -5.5      3.600      5.615
REMARK  5 active torsions:
REMARK  status: ('A' for Active; 'I' for Inactive)
REMARK    1  A    between atoms: O1_2  and  C2_3 
REMARK    2  A    between atoms: C6_9  and  N3_10 
REMARK    3  A    between atoms: N3_10  and  C8_12 
REMARK    4  A    between atoms: C9_13  and  C10_14 
REMARK    5  A    between atoms: C13_18  and  O2_19 
ROOT
HETATM    1  C2  UNL     1      25.450   4.521  49.413  1.00  0.00     0.103 A 
HETATM    2  C3  UNL     1      26.464   3.846  50.064  1.00  0.00     0.072 A 
HETATM    3  C4  UNL     1      26.149   2.767  50.892  1.00  0.00     0.075 A 
HETATM    4  N1  UNL     1      27.092   2.059  51.562  1.00  0.00    -0.241 NA
HETATM    5  C5  UNL     1      26.726   1.027  52.347  1.00  0.00     0.236 A 
HETATM    6  N2  UNL     1      25.431   0.684  52.478  1.00  0.00    -0.223 NA
HETATM    7  C6  UNL     1      24.485   1.381  51.816  1.00  0.00     0.143 A 
HETATM    8  C11 UNL     1      24.811   2.448  51.000  1.00  0.00     0.042 A 
HETATM    9  C12 UNL     1      23.781   3.106  50.360  1.00  0.00     0.057 A 
HETATM   10  C13 UNL     1      24.122   4.169  49.548  1.00  0.00     0.102 A 
ENDROOT
BRANCH   7  11
HETATM   11  N3  UNL     1      23.151   0.910  52.046  1.00  0.00    -0.346 N 
HETATM   12  C7  UNL     1      21.979   0.949  51.193  1.00  0.00     0.157 C 
BRANCH  11  13
HETATM   13  C8  UNL     1      23.018   0.320  53.337  1.00  0.00     0.090 C 
HETATM   14  C9  UNL     1      22.075  -0.602  53.393  1.00  0.00     0.021 C 
BRANCH  14  15
HETATM   15  C10 UNL     1      21.697  -1.394  54.591  1.00  0.00     0.251 C 
HETATM   16  F1  UNL     1      22.672  -1.213  55.556  1.00  0.00    -0.251 F 
ENDBRANCH  14  15
ENDBRANCH  11  13
ENDBRANCH   7  11
BRANCH  10  17
HETATM   17  O2  UNL     1      23.172   4.906  48.853  1.00  0.00    -0.353 OA
HETATM   18  C14 UNL     1      22.000   5.271  49.558  1.00  0.00     0.210 C 
ENDBRANCH  10  17
BRANCH   1  19
HETATM   19  O1  UNL     1      25.786   5.590  48.595  1.00  0.00    -0.353 OA
HETATM   20  C1  UNL     1      27.142   6.060  48.614  1.00  0.00     0.210 C 
ENDBRANCH   1  19
TORSDOF 5
ENDMDL
