MODEL 1
REMARK VINA RESULT:      -8.8      0.000      0.000
REMARK  2 active torsions:
REMARK  status: ('A' for Active; 'I' for Inactive)
REMARK    1  A    between atoms: O1_2  and  C2_3 
REMARK    2  A    between atoms: C2_3  and  C3_4 
ROOT
HETATM    1  C3  UNL     1      25.735   3.411  49.682  1.00  0.00     0.037 C 
HETATM    2  C4  UNL     1      26.541   2.462  50.522  1.00  0.00     0.128 C 
HETATM    3  N1  UNL     1      26.099   1.543  51.439  1.00  0.00    -0.380 N 
HETATM    4  C5  UNL     1      25.722   0.548  52.380  1.00  0.00     0.099 C 
HETATM    5  S1  UNL     1      26.819  -0.653  52.486  1.00  0.00    -0.060 SA
HETATM    6  C6  UNL     1      24.466   0.510  53.104  1.00  0.00    -0.032 C 
HETATM    7  C7  UNL     1      23.583   1.535  52.809  1.00  0.00     0.009 C 
HETATM    8  C8  UNL     1      23.199   2.778  52.030  1.00  0.00     0.032 A 
HETATM    9  C9  UNL     1      22.291   3.758  51.838  1.00  0.00     0.001 A 
HETATM   10  C10 UNL     1      23.337   3.935  50.874  1.00  0.00     0.005 A 
HETATM   11  C11 UNL     1      24.415   3.820  50.196  1.00  0.00    -0.020 C 
HETATM   12  C12 UNL     1      23.584   4.125  48.964  1.00  0.00     0.018 C 
HETATM   13  C13 UNL     1      22.114   4.114  49.062  1.00  0.00     0.079 C 
HETATM   14  C14 UNL     1      21.471   2.802  49.391  1.00  0.00     0.127 C 
HETATM   15  O2  UNL     1      20.324   2.540  49.774  1.00  0.00    -0.298 OA
HETATM   16  C15 UNL     1      21.829   1.367  49.415  1.00  0.00     0.080 C 
HETATM   17  C16 UNL     1      20.917   0.466  50.129  1.00  0.00     0.034 C 
HETATM   18  C17 UNL     1      20.840   0.471  51.619  1.00  0.00     0.179 C 
HETATM   19  O3  UNL     1      21.994   0.092  52.297  1.00  0.00    -0.321 OA
HETATM   20  C18 UNL     1      22.151   0.047  53.697  1.00  0.00     0.262 C 
HETATM   21  O4  UNL     1      21.162   0.373  54.437  1.00  0.00    -0.265 OA
HETATM   22  C19 UNL     1      23.623  -0.428  53.873  1.00  0.00     0.148 C 
HETATM   23  H9  UNL     1      25.442   2.278  51.274  1.00  0.00     0.160 HD
ENDROOT
BRANCH   1  24
HETATM   24  C2  UNL     1      26.619   4.600  49.476  1.00  0.00     0.174 C 
BRANCH  24  25
HETATM   25  O1  UNL     1      27.786   4.492  48.813  1.00  0.00    -0.395 OA
HETATM   26  C1  UNL     1      28.295   5.696  48.328  1.00  0.00     0.201 C 
ENDBRANCH  24  25
ENDBRANCH   1  24
TORSDOF 2
ENDMDL
MODEL 2
REMARK VINA RESULT:      -8.3      2.367      3.868
REMARK  2 active torsions:
REMARK  status: ('A' for Active; 'I' for Inactive)
REMARK    1  A    between atoms: O1_2  and  C2_3 
REMARK    2  A    between atoms: C2_3  and  C3_4 
ROOT
HETATM    1  C3  UNL     1      26.105   0.812  52.307  1.00  0.00     0.037 C 
HETATM    2  C4  UNL     1      25.218  -0.098  53.109  1.00  0.00     0.128 C 
HETATM    3  N1  UNL     1      23.854  -0.063  53.245  1.00  0.00    -0.380 N 
HETATM    4  C5  UNL     1      22.444  -0.115  53.413  1.00  0.00     0.099 C 
HETATM    5  S1  UNL     1      21.916  -1.617  53.759  1.00  0.00    -0.060 SA
HETATM    6  C6  UNL     1      21.533   0.992  53.203  1.00  0.00    -0.032 C 
HETATM    7  C7  UNL     1      22.124   2.173  52.786  1.00  0.00     0.009 C 
HETATM    8  C8  UNL     1      23.339   2.978  52.370  1.00  0.00     0.032 A 
HETATM    9  C9  UNL     1      23.829   4.182  52.000  1.00  0.00     0.001 A 
HETATM   10  C10 UNL     1      24.906   3.237  51.951  1.00  0.00     0.005 A 
HETATM   11  C11 UNL     1      25.615   2.176  52.043  1.00  0.00    -0.020 C 
HETATM   12  C12 UNL     1      26.260   2.585  50.732  1.00  0.00     0.018 C 
HETATM   13  C13 UNL     1      25.659   3.670  49.937  1.00  0.00     0.079 C 
HETATM   14  C14 UNL     1      24.285   3.426  49.393  1.00  0.00     0.127 C 
HETATM   15  O2  UNL     1      23.453   4.211  48.923  1.00  0.00    -0.298 OA
HETATM   16  C15 UNL     1      23.367   2.287  49.171  1.00  0.00     0.080 C 
HETATM   17  C16 UNL     1      21.965   2.610  48.885  1.00  0.00     0.034 C 
HETATM   18  C17 UNL     1      21.061   3.129  49.953  1.00  0.00     0.179 C 
HETATM   19  O3  UNL     1      20.808   2.271  51.017  1.00  0.00    -0.321 OA
HETATM   20  C18 UNL     1      20.007   2.562  52.139  1.00  0.00     0.262 C 
HETATM   21  O4  UNL     1      19.445   3.707  52.212  1.00  0.00    -0.265 OA
HETATM   22  C19 UNL     1      20.096   1.260  52.986  1.00  0.00     0.148 C 
HETATM   23  H9  UNL     1      24.242   0.815  52.967  1.00  0.00     0.160 HD
ENDROOT
BRANCH   1  24
HETATM   24  C2  UNL     1      27.405   0.843  53.046  1.00  0.00     0.174 C 
BRANCH  24  25
HETATM   25  O1  UNL     1      27.439   0.876  54.392  1.00  0.00    -0.395 OA
HETATM   26  C1  UNL     1      28.563   0.279  54.961  1.00  0.00     0.201 C 
ENDBRANCH  24  25
ENDBRANCH   1  24
TORSDOF 2
ENDMDL
MODEL 3
REMARK VINA RESULT:      -8.2      2.582      5.168
REMARK  2 active torsions:
REMARK  status: ('A' for Active; 'I' for Inactive)
REMARK    1  A    between atoms: O1_2  and  C2_3 
REMARK    2  A    between atoms: C2_3  and  C3_4 
ROOT
HETATM    1  C3  UNL     1      24.416   1.048  52.850  1.00  0.00     0.037 C 
HETATM    2  C4  UNL     1      25.332   1.818  51.941  1.00  0.00     0.128 C 
HETATM    3  N1  UNL     1      25.009   2.589  50.854  1.00  0.00    -0.380 N 
HETATM    4  C5  UNL     1      24.757   3.430  49.737  1.00  0.00     0.099 C 
HETATM    5  S1  UNL     1      25.916   4.558  49.536  1.00  0.00    -0.060 SA
HETATM    6  C6  UNL     1      23.566   3.393  48.911  1.00  0.00    -0.032 C 
HETATM    7  C7  UNL     1      22.614   2.462  49.289  1.00  0.00     0.009 C 
HETATM    8  C8  UNL     1      22.109   1.377  50.220  1.00  0.00     0.032 A 
HETATM    9  C9  UNL     1      21.141   0.474  50.488  1.00  0.00     0.001 A 
HETATM   10  C10 UNL     1      22.097   0.420  51.555  1.00  0.00     0.005 A 
HETATM   11  C11 UNL     1      23.123   0.607  52.296  1.00  0.00    -0.020 C 
HETATM   12  C12 UNL     1      22.183   0.537  53.484  1.00  0.00     0.018 C 
HETATM   13  C13 UNL     1      20.727   0.584  53.260  1.00  0.00     0.079 C 
HETATM   14  C14 UNL     1      20.177   1.846  52.671  1.00  0.00     0.127 C 
HETATM   15  O2  UNL     1      19.078   2.082  52.153  1.00  0.00    -0.298 OA
HETATM   16  C15 UNL     1      20.605   3.244  52.448  1.00  0.00     0.080 C 
HETATM   17  C16 UNL     1      19.798   4.048  51.523  1.00  0.00     0.034 C 
HETATM   18  C17 UNL     1      19.840   3.802  50.052  1.00  0.00     0.179 C 
HETATM   19  O3  UNL     1      21.061   4.024  49.424  1.00  0.00    -0.321 OA
HETATM   20  C18 UNL     1      21.331   3.834  48.054  1.00  0.00     0.262 C 
HETATM   21  O4  UNL     1      20.389   3.427  47.294  1.00  0.00    -0.265 OA
HETATM   22  C19 UNL     1      22.833   4.222  47.932  1.00  0.00     0.148 C 
HETATM   23  H9  UNL     1      24.306   1.915  51.078  1.00  0.00     0.160 HD
ENDROOT
BRANCH   1  24
HETATM   24  C2  UNL     1      25.222  -0.122  53.319  1.00  0.00     0.174 C 
BRANCH  24  25
HETATM   25  O1  UNL     1      25.559  -0.260  54.615  1.00  0.00    -0.395 OA
HETATM   26  C1  UNL     1      26.824   0.222  54.945  1.00  0.00     0.201 C 
ENDBRANCH  24  25
ENDBRANCH   1  24
TORSDOF 2
ENDMDL
MODEL 4
REMARK VINA RESULT:      -8.1      2.717      6.295
REMARK  2 active torsions:
REMARK  status: ('A' for Active; 'I' for Inactive)
REMARK    1  A    between atoms: O1_2  and  C2_3 
REMARK    2  A    between atoms: C2_3  and  C3_4 
ROOT
HETATM    1  C3  UNL     1      22.698  -0.045  52.398  1.00  0.00     0.037 C 
HETATM    2  C4  UNL     1      21.416   0.569  51.910  1.00  0.00     0.128 C 
HETATM    3  N1  UNL     1      21.205   1.830  51.415  1.00  0.00    -0.380 N 
HETATM    4  C5  UNL     1      20.909   3.105  50.862  1.00  0.00     0.099 C 
HETATM    5  S1  UNL     1      19.621   3.065  49.865  1.00  0.00    -0.060 SA
HETATM    6  C6  UNL     1      21.700   4.306  51.051  1.00  0.00    -0.032 C 
HETATM    7  C7  UNL     1      22.838   4.148  51.823  1.00  0.00     0.009 C 
HETATM    8  C8  UNL     1      23.792   3.286  52.626  1.00  0.00     0.032 A 
HETATM    9  C9  UNL     1      24.901   3.239  53.397  1.00  0.00     0.001 A 
HETATM   10  C10 UNL     1      24.427   1.896  53.228  1.00  0.00     0.005 A 
HETATM   11  C11 UNL     1      23.737   0.868  52.908  1.00  0.00    -0.020 C 
HETATM   12  C12 UNL     1      25.053   0.159  52.648  1.00  0.00     0.018 C 
HETATM   13  C13 UNL     1      26.300   0.943  52.598  1.00  0.00     0.079 C 
HETATM   14  C14 UNL     1      26.419   1.951  51.497  1.00  0.00     0.127 C 
HETATM   15  O2  UNL     1      27.203   2.896  51.350  1.00  0.00    -0.298 OA
HETATM   16  C15 UNL     1      25.757   2.273  50.213  1.00  0.00     0.080 C 
HETATM   17  C16 UNL     1      26.048   3.587  49.627  1.00  0.00     0.034 C 
HETATM   18  C17 UNL     1      25.493   4.836  50.226  1.00  0.00     0.179 C 
HETATM   19  O3  UNL     1      24.108   4.964  50.213  1.00  0.00    -0.321 OA
HETATM   20  C18 UNL     1      23.375   6.044  50.742  1.00  0.00     0.262 C 
HETATM   21  O4  UNL     1      24.010   7.011  51.285  1.00  0.00    -0.265 OA
HETATM   22  C19 UNL     1      21.898   5.644  50.457  1.00  0.00     0.148 C 
HETATM   23  H9  UNL     1      22.023   1.766  51.986  1.00  0.00     0.160 HD
ENDROOT
BRANCH   1  24
HETATM   24  C2  UNL     1      22.287  -1.026  53.449  1.00  0.00     0.174 C 
BRANCH  24  25
HETATM   25  O1  UNL     1      22.313  -0.700  54.755  1.00  0.00    -0.395 OA
HETATM   26  C1  UNL     1      23.096  -1.535  55.550  1.00  0.00     0.201 C 
ENDBRANCH  24  25
ENDBRANCH   1  24
TORSDOF 2
ENDMDL
MODEL 5
REMARK VINA RESULT:      -7.6      2.941      6.202
REMARK  2 active torsions:
REMARK  status: ('A' for Active; 'I' for Inactive)
REMARK    1  A    between atoms: O1_2  and  C2_3 
REMARK    2  A    between atoms: C2_3  and  C3_4 
ROOT
HETATM    1  C3  UNL     1      22.255   0.192  52.096  1.00  0.00     0.037 C 
HETATM    2  C4  UNL     1      20.818   0.444  51.737  1.00  0.00     0.128 C 
HETATM    3  N1  UNL     1      20.244   1.593  51.257  1.00  0.00    -0.380 N 
HETATM    4  C5  UNL     1      19.580   2.733  50.730  1.00  0.00     0.099 C 
HETATM    5  S1  UNL     1      18.255   2.335  49.868  1.00  0.00    -0.060 SA
HETATM    6  C6  UNL     1      20.050   4.100  50.832  1.00  0.00    -0.032 C 
HETATM    7  C7  UNL     1      21.259   4.262  51.486  1.00  0.00     0.009 C 
HETATM    8  C8  UNL     1      22.475   3.697  52.194  1.00  0.00     0.032 A 
HETATM    9  C9  UNL     1      23.627   3.958  52.850  1.00  0.00     0.001 A 
HETATM   10  C10 UNL     1      23.500   2.535  52.737  1.00  0.00     0.005 A 
HETATM   11  C11 UNL     1      23.069   1.355  52.494  1.00  0.00    -0.020 C 
HETATM   12  C12 UNL     1      24.492   0.997  52.107  1.00  0.00     0.018 C 
HETATM   13  C13 UNL     1      25.485   2.070  51.927  1.00  0.00     0.079 C 
HETATM   14  C14 UNL     1      25.235   3.040  50.813  1.00  0.00     0.127 C 
HETATM   15  O2  UNL     1      25.733   4.149  50.583  1.00  0.00    -0.298 OA
HETATM   16  C15 UNL     1      24.393   3.143  49.601  1.00  0.00     0.080 C 
HETATM   17  C16 UNL     1      24.280   4.468  48.982  1.00  0.00     0.034 C 
HETATM   18  C17 UNL     1      23.483   5.554  49.626  1.00  0.00     0.179 C 
HETATM   19  O3  UNL     1      22.117   5.324  49.752  1.00  0.00    -0.321 OA
HETATM   20  C18 UNL     1      21.185   6.198  50.346  1.00  0.00     0.262 C 
HETATM   21  O4  UNL     1      21.600   7.311  50.816  1.00  0.00    -0.265 OA
HETATM   22  C19 UNL     1      19.841   5.425  50.213  1.00  0.00     0.148 C 
HETATM   23  H9  UNL     1      21.102   1.757  51.743  1.00  0.00     0.160 HD
ENDROOT
BRANCH   1  24
HETATM   24  C2  UNL     1      22.212  -0.828  53.190  1.00  0.00     0.174 C 
BRANCH  24  25
HETATM   25  O1  UNL     1      22.223  -0.462  54.485  1.00  0.00    -0.395 OA
HETATM   26  C1  UNL     1      22.989  -1.277  55.316  1.00  0.00     0.201 C 
ENDBRANCH  24  25
ENDBRANCH   1  24
TORSDOF 2
ENDMDL
MODEL 6
REMARK VINA RESULT:      -7.3      1.603      1.907
REMARK  2 active torsions:
REMARK  status: ('A' for Active; 'I' for Inactive)
REMARK    1  A    between atoms: O1_2  and  C2_3 
REMARK    2  A    between atoms: C2_3  and  C3_4 
ROOT
HETATM    1  C3  UNL     1      25.007   5.227  48.864  1.00  0.00     0.037 C 
HETATM    2  C4  UNL     1      25.932   4.675  49.912  1.00  0.00     0.128 C 
HETATM    3  N1  UNL     1      25.675   3.724  50.866  1.00  0.00    -0.380 N 
HETATM    4  C5  UNL     1      25.499   2.724  51.860  1.00  0.00     0.099 C 
HETATM    5  S1  UNL     1      26.899   1.990  52.255  1.00  0.00    -0.060 SA
HETATM    6  C6  UNL     1      24.226   2.301  52.409  1.00  0.00    -0.032 C 
HETATM    7  C7  UNL     1      23.114   2.933  51.877  1.00  0.00     0.009 C 
HETATM    8  C8  UNL     1      22.474   3.910  50.911  1.00  0.00     0.032 A 
HETATM    9  C9  UNL     1      21.336   4.498  50.482  1.00  0.00     0.001 A 
HETATM   10  C10 UNL     1      22.408   4.963  49.653  1.00  0.00     0.005 A 
HETATM   11  C11 UNL     1      23.561   5.185  49.144  1.00  0.00    -0.020 C 
HETATM   12  C12 UNL     1      22.893   5.099  47.785  1.00  0.00     0.018 C 
HETATM   13  C13 UNL     1      21.517   4.584  47.685  1.00  0.00     0.079 C 
HETATM   14  C14 UNL     1      21.302   3.155  48.080  1.00  0.00     0.127 C 
HETATM   15  O2  UNL     1      20.261   2.537  48.336  1.00  0.00    -0.298 OA
HETATM   16  C15 UNL     1      22.108   1.939  48.324  1.00  0.00     0.080 C 
HETATM   17  C16 UNL     1      21.442   0.827  49.013  1.00  0.00     0.034 C 
HETATM   18  C17 UNL     1      21.121   0.905  50.468  1.00  0.00     0.179 C 
HETATM   19  O3  UNL     1      22.205   0.997  51.335  1.00  0.00    -0.321 OA
HETATM   20  C18 UNL     1      22.132   1.103  52.738  1.00  0.00     0.262 C 
HETATM   21  O4  UNL     1      20.983   1.113  53.294  1.00  0.00    -0.265 OA
HETATM   22  C19 UNL     1      23.627   1.182  53.165  1.00  0.00     0.148 C 
HETATM   23  H9  UNL     1      24.848   4.172  50.527  1.00  0.00     0.160 HD
ENDROOT
BRANCH   1  24
HETATM   24  C2  UNL     1      25.467   6.632  48.637  1.00  0.00     0.174 C 
BRANCH  24  25
HETATM   25  O1  UNL     1      26.754   6.982  48.823  1.00  0.00    -0.395 OA
HETATM   26  C1  UNL     1      27.187   8.050  48.039  1.00  0.00     0.201 C 
ENDBRANCH  24  25
ENDBRANCH   1  24
TORSDOF 2
ENDMDL
MODEL 7
REMARK VINA RESULT:      -7.1      3.425      5.446
REMARK  2 active torsions:
REMARK  status: ('A' for Active; 'I' for Inactive)
REMARK    1  A    between atoms: O1_2  and  C2_3 
REMARK    2  A    between atoms: C2_3  and  C3_4 
ROOT
HETATM    1  C3  UNL     1      26.651   5.310  49.245  1.00  0.00     0.037 C 
HETATM    2  C4  UNL     1      26.139   6.541  48.552  1.00  0.00     0.128 C 
HETATM    3  N1  UNL     1      24.843   6.967  48.410  1.00  0.00    -0.380 N 
HETATM    4  C5  UNL     1      23.533   7.493  48.247  1.00  0.00     0.099 C 
HETATM    5  S1  UNL     1      23.533   9.113  48.077  1.00  0.00    -0.060 SA
HETATM    6  C6  UNL     1      22.305   6.726  48.325  1.00  0.00    -0.032 C 
HETATM    7  C7  UNL     1      22.467   5.379  48.603  1.00  0.00     0.009 C 
HETATM    8  C8  UNL     1      23.339   4.182  48.925  1.00  0.00     0.032 A 
HETATM    9  C9  UNL     1      23.398   2.852  49.154  1.00  0.00     0.001 A 
HETATM   10  C10 UNL     1      24.720   3.383  49.314  1.00  0.00     0.005 A 
HETATM   11  C11 UNL     1      25.737   4.159  49.347  1.00  0.00    -0.020 C 
HETATM   12  C12 UNL     1      26.162   3.422  50.604  1.00  0.00     0.018 C 
HETATM   13  C13 UNL     1      25.212   2.511  51.266  1.00  0.00     0.079 C 
HETATM   14  C14 UNL     1      23.970   3.128  51.832  1.00  0.00     0.127 C 
HETATM   15  O2  UNL     1      22.911   2.610  52.206  1.00  0.00    -0.298 OA
HETATM   16  C15 UNL     1      23.461   4.472  52.183  1.00  0.00     0.080 C 
HETATM   17  C16 UNL     1      22.019   4.594  52.427  1.00  0.00     0.034 C 
HETATM   18  C17 UNL     1      21.039   4.517  51.304  1.00  0.00     0.179 C 
HETATM   19  O3  UNL     1      21.120   5.522  50.346  1.00  0.00    -0.321 OA
HETATM   20  C18 UNL     1      20.313   5.632  49.196  1.00  0.00     0.262 C 
HETATM   21  O4  UNL     1      19.415   4.747  48.989  1.00  0.00    -0.265 OA
HETATM   22  C19 UNL     1      20.852   6.919  48.506  1.00  0.00     0.148 C 
HETATM   23  H9  UNL     1      24.915   5.985  48.586  1.00  0.00     0.160 HD
ENDROOT
BRANCH   1  24
HETATM   24  C2  UNL     1      27.899   4.938  48.510  1.00  0.00     0.174 C 
BRANCH  24  25
HETATM   25  O1  UNL     1      28.676   5.877  47.938  1.00  0.00    -0.395 OA
HETATM   26  C1  UNL     1      30.044   5.706  48.142  1.00  0.00     0.201 C 
ENDBRANCH  24  25
ENDBRANCH   1  24
TORSDOF 2
ENDMDL
MODEL 8
REMARK VINA RESULT:      -7.0      3.009      4.885
REMARK  2 active torsions:
REMARK  status: ('A' for Active; 'I' for Inactive)
REMARK    1  A    between atoms: O1_2  and  C2_3 
REMARK    2  A    between atoms: C2_3  and  C3_4 
ROOT
HETATM    1  C3  UNL     1      20.397   3.847  47.986  1.00  0.00     0.037 C 
HETATM    2  C4  UNL     1      19.665   2.637  48.495  1.00  0.00     0.128 C 
HETATM    3  N1  UNL     1      19.996   1.813  49.540  1.00  0.00    -0.380 N 
HETATM    4  C5  UNL     1      20.250   0.933  50.626  1.00  0.00     0.099 C 
HETATM    5  S1  UNL     1      18.887   0.255  51.207  1.00  0.00    -0.060 SA
HETATM    6  C6  UNL     1      21.543   0.717  51.245  1.00  0.00    -0.032 C 
HETATM    7  C7  UNL     1      22.583   1.464  50.719  1.00  0.00     0.009 C 
HETATM    8  C8  UNL     1      23.118   2.509  49.760  1.00  0.00     0.032 A 
HETATM    9  C9  UNL     1      24.201   3.165  49.288  1.00  0.00     0.001 A 
HETATM   10  C10 UNL     1      23.044   3.699  48.631  1.00  0.00     0.005 A 
HETATM   11  C11 UNL     1      21.848   3.914  48.230  1.00  0.00    -0.020 C 
HETATM   12  C12 UNL     1      22.174   5.395  48.295  1.00  0.00     0.018 C 
HETATM   13  C13 UNL     1      23.407   5.836  48.970  1.00  0.00     0.079 C 
HETATM   14  C14 UNL     1      23.505   5.566  50.440  1.00  0.00     0.127 C 
HETATM   15  O2  UNL     1      24.480   5.589  51.200  1.00  0.00    -0.298 OA
HETATM   16  C15 UNL     1      22.613   5.195  51.560  1.00  0.00     0.080 C 
HETATM   17  C16 UNL     1      23.255   4.731  52.795  1.00  0.00     0.034 C 
HETATM   18  C17 UNL     1      23.904   3.389  52.868  1.00  0.00     0.179 C 
HETATM   19  O3  UNL     1      23.068   2.290  52.707  1.00  0.00    -0.321 OA
HETATM   20  C18 UNL     1      23.469   0.940  52.717  1.00  0.00     0.262 C 
HETATM   21  O4  UNL     1      24.704   0.667  52.893  1.00  0.00    -0.265 OA
HETATM   22  C19 UNL     1      22.135   0.172  52.485  1.00  0.00     0.148 C 
HETATM   23  H9  UNL     1      20.779   2.316  49.175  1.00  0.00     0.160 HD
ENDROOT
BRANCH   1  24
HETATM   24  C2  UNL     1      20.098   3.897  46.521  1.00  0.00     0.174 C 
BRANCH  24  25
HETATM   25  O1  UNL     1      21.042   3.604  45.607  1.00  0.00    -0.395 OA
HETATM   26  C1  UNL     1      21.107   4.487  44.531  1.00  0.00     0.201 C 
ENDBRANCH  24  25
ENDBRANCH   1  24
TORSDOF 2
ENDMDL
MODEL 9
REMARK VINA RESULT:      -6.9      3.416      6.527
REMARK  2 active torsions:
REMARK  status: ('A' for Active; 'I' for Inactive)
REMARK    1  A    between atoms: O1_2  and  C2_3 
REMARK    2  A    between atoms: C2_3  and  C3_4 
ROOT
HETATM    1  C3  UNL     1      20.907   0.223  52.680  1.00  0.00     0.037 C 
HETATM    2  C4  UNL     1      19.436   0.438  52.462  1.00  0.00     0.128 C 
HETATM    3  N1  UNL     1      18.810   1.456  51.788  1.00  0.00    -0.380 N 
HETATM    4  C5  UNL     1      18.088   2.456  51.083  1.00  0.00     0.099 C 
HETATM    5  S1  UNL     1      16.653   1.913  50.533  1.00  0.00    -0.060 SA
HETATM    6  C6  UNL     1      18.579   3.784  50.773  1.00  0.00    -0.032 C 
HETATM    7  C7  UNL     1      19.869   4.051  51.199  1.00  0.00     0.009 C 
HETATM    8  C8  UNL     1      21.167   3.629  51.859  1.00  0.00     0.032 A 
HETATM    9  C9  UNL     1      22.401   3.995  52.269  1.00  0.00     0.001 A 
HETATM   10  C10 UNL     1      22.247   2.595  52.537  1.00  0.00     0.005 A 
HETATM   11  C11 UNL     1      21.777   1.412  52.659  1.00  0.00    -0.020 C 
HETATM   12  C12 UNL     1      23.130   0.908  52.190  1.00  0.00     0.018 C 
HETATM   13  C13 UNL     1      24.097   1.860  51.616  1.00  0.00     0.079 C 
HETATM   14  C14 UNL     1      23.703   2.531  50.336  1.00  0.00     0.127 C 
HETATM   15  O2  UNL     1      24.173   3.525  49.770  1.00  0.00    -0.298 OA
HETATM   16  C15 UNL     1      22.702   2.365  49.260  1.00  0.00     0.080 C 
HETATM   17  C16 UNL     1      22.514   3.498  48.347  1.00  0.00     0.034 C 
HETATM   18  C17 UNL     1      21.823   4.743  48.796  1.00  0.00     0.179 C 
HETATM   19  O3  UNL     1      20.486   4.610  49.155  1.00  0.00    -0.321 OA
HETATM   20  C18 UNL     1      19.653   5.644  49.627  1.00  0.00     0.262 C 
HETATM   21  O4  UNL     1      20.138   6.820  49.742  1.00  0.00    -0.265 OA
HETATM   22  C19 UNL     1      18.297   4.921  49.873  1.00  0.00     0.148 C 
HETATM   23  H9  UNL     1      19.729   1.699  52.099  1.00  0.00     0.160 HD
ENDROOT
BRANCH   1  24
HETATM   24  C2  UNL     1      21.008  -0.491  53.991  1.00  0.00     0.174 C 
BRANCH  24  25
HETATM   25  O1  UNL     1      21.854  -1.524  54.157  1.00  0.00    -0.395 OA
HETATM   26  C1  UNL     1      22.813  -1.340  55.152  1.00  0.00     0.201 C 
ENDBRANCH  24  25
ENDBRANCH   1  24
TORSDOF 2
ENDMDL
