MODEL 1
REMARK VINA RESULT:     -10.0      0.000      0.000
REMARK  2 active torsions:
REMARK  status: ('A' for Active; 'I' for Inactive)
REMARK    1  A    between atoms: C9_12  and  N2_13 
REMARK    2  A    between atoms: N2_13  and  C10_14 
ROOT
HETATM    1  O1  UNL     1      22.232   1.442  50.593  1.00  0.00     0.000 OA
HETATM    2  C1  UNL     1      21.628   1.959  49.754  1.00  0.00     0.294 A 
HETATM    3  N1  UNL     1      21.598   2.697  48.535  1.00  0.00    -0.343 N 
HETATM    4  C2  UNL     1      23.034   2.970  48.121  1.00  0.00     0.299 C 
HETATM    5  O2  UNL     1      23.599   3.773  49.114  1.00  0.00    -0.334 OA
HETATM    6  C3  UNL     1      23.904   3.505  50.405  1.00  0.00     0.077 C 
HETATM    7  C4  UNL     1      24.117   2.699  51.456  1.00  0.00     0.037 C 
HETATM    8  C5  UNL     1      24.029   1.233  51.500  1.00  0.00     0.166 A 
HETATM    9  C6  UNL     1      22.595   0.755  51.822  1.00  0.00     0.278 A 
HETATM   10  C7  UNL     1      23.073   0.075  52.846  1.00  0.00     0.063 A 
HETATM   11  C8  UNL     1      23.676  -0.640  53.945  1.00  0.00     0.076 A 
HETATM   12  C9  UNL     1      24.930  -0.232  53.683  1.00  0.00     0.110 A 
HETATM   13  N3  UNL     1      24.440   0.487  52.601  1.00  0.00    -0.322 N 
HETATM   14  N4  UNL     1      21.442   1.202  51.016  1.00  0.00     0.165 N 
HETATM   15  C16 UNL     1      20.063   1.012  51.404  1.00  0.00     0.285 C 
HETATM   16  C17 UNL     1      19.658   2.070  52.365  1.00  0.00     0.061 C 
HETATM   17  C18 UNL     1      19.906   3.507  52.015  1.00  0.00     0.272 C 
HETATM   18  N5  UNL     1      21.280   3.796  52.025  1.00  0.00     0.089 N 
HETATM   19  C19 UNL     1      21.781   5.088  51.848  1.00  0.00     0.238 C 
HETATM   20  C20 UNL     1      21.574   5.793  50.551  1.00  0.00     0.153 C 
HETATM   21  N6  UNL     1      22.762   6.637  50.329  1.00  0.00    -0.203 NA
HETATM   22  O3  UNL     1      23.789   5.896  50.012  1.00  0.00    -0.294 OA
HETATM   23  C21 UNL     1      24.097   4.934  50.919  1.00  0.00     0.204 C 
HETATM   24  C22 UNL     1      23.298   5.167  52.181  1.00  0.00     0.077 C 
HETATM   25  H1  UNL     1      20.615   2.510  48.820  1.00  0.00     0.163 HD
HETATM   26  H18 UNL     1      21.690   3.288  52.871  1.00  0.00     0.316 HD
HETATM   27  H22 UNL     1      22.478   7.325  49.598  1.00  0.00     0.153 HD
ENDROOT
BRANCH  12  28
HETATM   28  N2  UNL     1      26.034  -0.640  54.486  1.00  0.00    -0.342 N 
HETATM   29  H7  UNL     1      25.673  -1.158  55.315  1.00  0.00     0.167 HD
BRANCH  28  30
HETATM   30  C10 UNL     1      27.408  -0.374  54.189  1.00  0.00     0.036 A 
HETATM   31  C11 UNL     1      28.169  -1.319  53.526  1.00  0.00     0.029 A 
HETATM   32  C12 UNL     1      29.507  -1.033  53.251  1.00  0.00     0.005 A 
HETATM   33  C13 UNL     1      30.046   0.181  53.642  1.00  0.00     0.042 A 
HETATM   34  C14 UNL     1      29.224   1.069  54.297  1.00  0.00     0.118 A 
HETATM   35  F1  UNL     1      29.766   2.254  54.675  1.00  0.00    -0.206 F 
HETATM   36  C15 UNL     1      27.896   0.852  54.601  1.00  0.00     0.071 A 
ENDBRANCH  28  30
ENDBRANCH  12  28
TORSDOF 2
ENDMDL
MODEL 2
REMARK VINA RESULT:      -9.2      6.573      8.911
REMARK  2 active torsions:
REMARK  status: ('A' for Active; 'I' for Inactive)
REMARK    1  A    between atoms: C9_12  and  N2_13 
REMARK    2  A    between atoms: N2_13  and  C10_14 
ROOT
HETATM    1  O1  UNL     1      28.995   7.772  47.308  1.00  0.00     0.000 OA
HETATM    2  C1  UNL     1      29.813   8.398  46.784  1.00  0.00     0.294 A 
HETATM    3  N1  UNL     1      30.928   8.473  45.901  1.00  0.00    -0.343 N 
HETATM    4  C2  UNL     1      31.225   7.067  45.406  1.00  0.00     0.299 C 
HETATM    5  O2  UNL     1      31.590   6.312  46.522  1.00  0.00    -0.334 OA
HETATM    6  C3  UNL     1      30.870   5.903  47.591  1.00  0.00     0.077 C 
HETATM    7  C4  UNL     1      29.736   5.673  48.270  1.00  0.00     0.037 C 
HETATM    8  C5  UNL     1      28.356   5.924  47.831  1.00  0.00     0.166 A 
HETATM    9  C6  UNL     1      27.899   7.360  48.172  1.00  0.00     0.278 A 
HETATM   10  C7  UNL     1      26.873   6.858  48.831  1.00  0.00     0.063 A 
HETATM   11  C8  UNL     1      25.780   6.226  49.530  1.00  0.00     0.076 A 
HETATM   12  C9  UNL     1      26.164   4.969  49.248  1.00  0.00     0.110 A 
HETATM   13  N3  UNL     1      27.247   5.486  48.549  1.00  0.00    -0.322 N 
HETATM   14  N4  UNL     1      28.679   8.534  47.732  1.00  0.00     0.165 N 
HETATM   15  C16 UNL     1      28.465   9.876  48.222  1.00  0.00     0.285 C 
HETATM   16  C17 UNL     1      29.149  10.052  49.530  1.00  0.00     0.061 C 
HETATM   17  C18 UNL     1      30.597   9.680  49.651  1.00  0.00     0.272 C 
HETATM   18  N5  UNL     1      30.765   8.288  49.565  1.00  0.00     0.089 N 
HETATM   19  C19 UNL     1      31.999   7.664  49.764  1.00  0.00     0.238 C 
HETATM   20  C20 UNL     1      33.124   7.926  48.822  1.00  0.00     0.153 C 
HETATM   21  N6  UNL     1      33.906   6.680  48.732  1.00  0.00    -0.203 NA
HETATM   22  O3  UNL     1      33.250   5.784  48.044  1.00  0.00    -0.294 OA
HETATM   23  C21 UNL     1      32.014   5.493  48.523  1.00  0.00     0.204 C 
HETATM   24  C22 UNL     1      31.849   6.121  49.889  1.00  0.00     0.077 C 
HETATM   25  H1  UNL     1      30.724   9.434  46.241  1.00  0.00     0.163 HD
HETATM   26  H18 UNL     1      29.967   7.852  50.126  1.00  0.00     0.316 HD
HETATM   27  H22 UNL     1      34.824   6.959  48.321  1.00  0.00     0.153 HD
ENDROOT
BRANCH  12  28
HETATM   28  N2  UNL     1      25.424   3.840  49.705  1.00  0.00    -0.342 N 
HETATM   29  H7  UNL     1      24.769   3.541  48.952  1.00  0.00     0.167 HD
BRANCH  28  30
HETATM   30  C10 UNL     1      25.569   3.228  50.989  1.00  0.00     0.036 A 
HETATM   31  C11 UNL     1      24.538   3.295  51.908  1.00  0.00     0.029 A 
HETATM   32  C12 UNL     1      24.707   2.690  53.155  1.00  0.00     0.005 A 
HETATM   33  C13 UNL     1      25.892   2.037  53.448  1.00  0.00     0.042 A 
HETATM   34  C14 UNL     1      26.871   2.014  52.481  1.00  0.00     0.118 A 
HETATM   35  F1  UNL     1      28.028   1.373  52.783  1.00  0.00    -0.206 F 
HETATM   36  C15 UNL     1      26.772   2.590  51.231  1.00  0.00     0.071 A 
ENDBRANCH  28  30
ENDBRANCH  12  28
TORSDOF 2
ENDMDL
MODEL 3
REMARK VINA RESULT:      -9.2      1.405      1.656
REMARK  2 active torsions:
REMARK  status: ('A' for Active; 'I' for Inactive)
REMARK    1  A    between atoms: C9_12  and  N2_13 
REMARK    2  A    between atoms: N2_13  and  C10_14 
ROOT
HETATM    1  O1  UNL     1      21.731   1.869  49.897  1.00  0.00     0.000 OA
HETATM    2  C1  UNL     1      20.963   2.179  49.091  1.00  0.00     0.294 A 
HETATM    3  N1  UNL     1      20.681   2.697  47.794  1.00  0.00    -0.343 N 
HETATM    4  C2  UNL     1      22.006   3.035  47.131  1.00  0.00     0.299 C 
HETATM    5  O2  UNL     1      22.598   4.043  47.894  1.00  0.00    -0.334 OA
HETATM    6  C3  UNL     1      23.103   4.024  49.149  1.00  0.00     0.077 C 
HETATM    7  C4  UNL     1      23.550   3.430  50.265  1.00  0.00     0.037 C 
HETATM    8  C5  UNL     1      23.645   1.990  50.543  1.00  0.00     0.166 A 
HETATM    9  C6  UNL     1      22.336   1.435  51.147  1.00  0.00     0.278 A 
HETATM   10  C7  UNL     1      23.024   0.985  52.177  1.00  0.00     0.063 A 
HETATM   11  C8  UNL     1      23.850   0.525  53.267  1.00  0.00     0.076 A 
HETATM   12  C9  UNL     1      25.000   1.004  52.760  1.00  0.00     0.110 A 
HETATM   13  N3  UNL     1      24.286   1.481  51.668  1.00  0.00    -0.322 N 
HETATM   14  N4  UNL     1      21.039   1.628  50.467  1.00  0.00     0.165 N 
HETATM   15  C16 UNL     1      19.758   1.372  51.083  1.00  0.00     0.285 C 
HETATM   16  C17 UNL     1      19.361   2.531  51.924  1.00  0.00     0.061 C 
HETATM   17  C18 UNL     1      19.385   3.907  51.328  1.00  0.00     0.272 C 
HETATM   18  N5  UNL     1      20.704   4.325  51.085  1.00  0.00     0.089 N 
HETATM   19  C19 UNL     1      21.018   5.612  50.642  1.00  0.00     0.238 C 
HETATM   20  C20 UNL     1      20.556   6.068  49.300  1.00  0.00     0.153 C 
HETATM   21  N6  UNL     1      21.593   6.975  48.776  1.00  0.00    -0.203 NA
HETATM   22  O3  UNL     1      22.650   6.295  48.422  1.00  0.00    -0.294 OA
HETATM   23  C21 UNL     1      23.191   5.531  49.406  1.00  0.00     0.204 C 
HETATM   24  C22 UNL     1      22.545   5.892  50.726  1.00  0.00     0.077 C 
HETATM   25  H1  UNL     1      19.775   2.465  48.249  1.00  0.00     0.163 HD
HETATM   26  H18 UNL     1      21.281   4.008  51.927  1.00  0.00     0.316 HD
HETATM   27  H22 UNL     1      21.133   7.501  48.000  1.00  0.00     0.153 HD
ENDROOT
BRANCH  12  28
HETATM   28  N2  UNL     1      26.243   0.844  53.439  1.00  0.00    -0.342 N 
HETATM   29  H7  UNL     1      26.395   1.667  54.059  1.00  0.00     0.167 HD
BRANCH  28  30
HETATM   30  C10 UNL     1      27.126  -0.270  53.282  1.00  0.00     0.036 A 
HETATM   31  C11 UNL     1      26.659  -1.455  52.745  1.00  0.00     0.029 A 
HETATM   32  C12 UNL     1      27.544  -2.526  52.606  1.00  0.00     0.005 A 
HETATM   33  C13 UNL     1      28.863  -2.386  53.002  1.00  0.00     0.042 A 
HETATM   34  C14 UNL     1      29.252  -1.174  53.527  1.00  0.00     0.118 A 
HETATM   35  F1  UNL     1      30.546  -1.052  53.913  1.00  0.00    -0.206 F 
HETATM   36  C15 UNL     1      28.432  -0.076  53.694  1.00  0.00     0.071 A 
ENDBRANCH  28  30
ENDBRANCH  12  28
TORSDOF 2
ENDMDL
MODEL 4
REMARK VINA RESULT:      -8.8      4.267      7.127
REMARK  2 active torsions:
REMARK  status: ('A' for Active; 'I' for Inactive)
REMARK    1  A    between atoms: C9_12  and  N2_13 
REMARK    2  A    between atoms: N2_13  and  C10_14 
ROOT
HETATM    1  O1  UNL     1      21.437   3.334  52.061  1.00  0.00     0.000 OA
HETATM    2  C1  UNL     1      21.716   4.335  51.557  1.00  0.00     0.294 A 
HETATM    3  N1  UNL     1      21.345   5.462  50.769  1.00  0.00    -0.343 N 
HETATM    4  C2  UNL     1      19.891   5.285  50.361  1.00  0.00     0.299 C 
HETATM    5  O2  UNL     1      19.829   4.142  49.562  1.00  0.00    -0.334 OA
HETATM    6  C3  UNL     1      20.020   2.837  49.863  1.00  0.00     0.077 C 
HETATM    7  C4  UNL     1      20.154   1.795  50.696  1.00  0.00     0.037 C 
HETATM    8  C5  UNL     1      20.115   1.804  52.165  1.00  0.00     0.166 A 
HETATM    9  C6  UNL     1      21.512   2.067  52.772  1.00  0.00     0.278 A 
HETATM   10  C7  UNL     1      21.404   0.946  53.458  1.00  0.00     0.063 A 
HETATM   11  C8  UNL     1      21.206  -0.293  54.171  1.00  0.00     0.076 A 
HETATM   12  C9  UNL     1      19.991  -0.541  53.650  1.00  0.00     0.110 A 
HETATM   13  N3  UNL     1      20.092   0.639  52.925  1.00  0.00    -0.322 N 
HETATM   14  N4  UNL     1      22.303   3.252  52.384  1.00  0.00     0.165 N 
HETATM   15  C16 UNL     1      23.701   3.430  52.703  1.00  0.00     0.285 C 
HETATM   16  C17 UNL     1      24.540   2.689  51.726  1.00  0.00     0.061 C 
HETATM   17  C18 UNL     1      24.312   2.900  50.260  1.00  0.00     0.272 C 
HETATM   18  N5  UNL     1      23.080   2.356  49.861  1.00  0.00     0.089 N 
HETATM   19  C19 UNL     1      22.671   2.310  48.526  1.00  0.00     0.238 C 
HETATM   20  C20 UNL     1      22.429   3.579  47.781  1.00  0.00     0.153 C 
HETATM   21  N6  UNL     1      21.331   3.315  46.833  1.00  0.00    -0.203 NA
HETATM   22  O3  UNL     1      20.197   3.218  47.473  1.00  0.00    -0.294 OA
HETATM   23  C21 UNL     1      20.172   2.273  48.448  1.00  0.00     0.204 C 
HETATM   24  C22 UNL     1      21.414   1.416  48.339  1.00  0.00     0.077 C 
HETATM   25  H1  UNL     1      22.339   5.582  51.048  1.00  0.00     0.163 HD
HETATM   26  H18 UNL     1      22.982   1.422  50.372  1.00  0.00     0.316 HD
HETATM   27  H22 UNL     1      21.374   4.091  46.138  1.00  0.00     0.153 HD
ENDROOT
BRANCH  12  28
HETATM   28  N2  UNL     1      19.248  -1.704  54.004  1.00  0.00    -0.342 N 
HETATM   29  H7  UNL     1      19.777  -2.233  54.729  1.00  0.00     0.167 HD
BRANCH  28  30
HETATM   30  C10 UNL     1      17.984  -2.072  53.446  1.00  0.00     0.036 A 
HETATM   31  C11 UNL     1      17.247  -1.148  52.729  1.00  0.00     0.029 A 
HETATM   32  C12 UNL     1      16.016  -1.534  52.196  1.00  0.00     0.005 A 
HETATM   33  C13 UNL     1      15.557  -2.825  52.391  1.00  0.00     0.042 A 
HETATM   34  C14 UNL     1      16.348  -3.688  53.115  1.00  0.00     0.118 A 
HETATM   35  F1  UNL     1      15.885  -4.950  53.299  1.00  0.00    -0.206 F 
HETATM   36  C15 UNL     1      17.572  -3.373  53.670  1.00  0.00     0.071 A 
ENDBRANCH  28  30
ENDBRANCH  12  28
TORSDOF 2
ENDMDL
MODEL 5
REMARK VINA RESULT:      -8.7      1.987      3.878
REMARK  2 active torsions:
REMARK  status: ('A' for Active; 'I' for Inactive)
REMARK    1  A    between atoms: C9_12  and  N2_13 
REMARK    2  A    between atoms: N2_13  and  C10_14 
ROOT
HETATM    1  O1  UNL     1      21.878   4.787  51.210  1.00  0.00     0.000 OA
HETATM    2  C1  UNL     1      21.196   5.548  50.671  1.00  0.00     0.294 A 
HETATM    3  N1  UNL     1      19.931   5.883  50.108  1.00  0.00    -0.343 N 
HETATM    4  C2  UNL     1      19.023   4.673  50.252  1.00  0.00     0.299 C 
HETATM    5  O2  UNL     1      19.589   3.647  49.494  1.00  0.00    -0.334 OA
HETATM    6  C3  UNL     1      20.735   2.947  49.663  1.00  0.00     0.077 C 
HETATM    7  C4  UNL     1      21.799   2.519  50.357  1.00  0.00     0.037 C 
HETATM    8  C5  UNL     1      22.169   2.855  51.739  1.00  0.00     0.166 A 
HETATM    9  C6  UNL     1      23.034   4.134  51.805  1.00  0.00     0.278 A 
HETATM   10  C7  UNL     1      23.962   3.451  52.447  1.00  0.00     0.063 A 
HETATM   11  C8  UNL     1      24.925   2.633  53.143  1.00  0.00     0.076 A 
HETATM   12  C9  UNL     1      24.189   1.508  53.093  1.00  0.00     0.110 A 
HETATM   13  N3  UNL     1      23.203   2.217  52.418  1.00  0.00    -0.322 N 
HETATM   14  N4  UNL     1      22.577   5.398  51.193  1.00  0.00     0.165 N 
HETATM   15  C16 UNL     1      23.424   6.550  50.988  1.00  0.00     0.285 C 
HETATM   16  C17 UNL     1      24.227   6.372  49.749  1.00  0.00     0.061 C 
HETATM   17  C18 UNL     1      23.529   6.006  48.474  1.00  0.00     0.272 C 
HETATM   18  N5  UNL     1      23.028   4.696  48.534  1.00  0.00     0.089 N 
HETATM   19  C19 UNL     1      22.436   4.063  47.437  1.00  0.00     0.238 C 
HETATM   20  C20 UNL     1      21.163   4.594  46.872  1.00  0.00     0.153 C 
HETATM   21  N6  UNL     1      20.396   3.435  46.381  1.00  0.00    -0.203 NA
HETATM   22  O3  UNL     1      19.920   2.751  47.386  1.00  0.00    -0.294 OA
HETATM   23  C21 UNL     1      20.852   2.317  48.272  1.00  0.00     0.204 C 
HETATM   24  C22 UNL     1      22.231   2.543  47.693  1.00  0.00     0.077 C 
HETATM   25  H1  UNL     1      20.553   6.710  50.010  1.00  0.00     0.163 HD
HETATM   26  H18 UNL     1      23.779   4.107  49.015  1.00  0.00     0.316 HD
HETATM   27  H22 UNL     1      19.674   3.833  45.743  1.00  0.00     0.153 HD
ENDROOT
BRANCH  12  28
HETATM   28  N2  UNL     1      24.651   0.284  53.656  1.00  0.00    -0.342 N 
HETATM   29  H7  UNL     1      23.845  -0.211  54.091  1.00  0.00     0.167 HD
BRANCH  28  30
HETATM   30  C10 UNL     1      26.005  -0.176  53.622  1.00  0.00     0.036 A 
HETATM   31  C11 UNL     1      26.375  -1.180  52.746  1.00  0.00     0.029 A 
HETATM   32  C12 UNL     1      27.702  -1.610  52.736  1.00  0.00     0.005 A 
HETATM   33  C13 UNL     1      28.621  -1.030  53.594  1.00  0.00     0.042 A 
HETATM   34  C14 UNL     1      28.176  -0.036  54.436  1.00  0.00     0.118 A 
HETATM   35  F1  UNL     1      29.087   0.523  55.273  1.00  0.00    -0.206 F 
HETATM   36  C15 UNL     1      26.881   0.437  54.499  1.00  0.00     0.071 A 
ENDBRANCH  28  30
ENDBRANCH  12  28
TORSDOF 2
ENDMDL
MODEL 6
REMARK VINA RESULT:      -8.2      3.806      5.663
REMARK  2 active torsions:
REMARK  status: ('A' for Active; 'I' for Inactive)
REMARK    1  A    between atoms: C9_12  and  N2_13 
REMARK    2  A    between atoms: N2_13  and  C10_14 
ROOT
HETATM    1  O1  UNL     1      22.313   2.421  49.274  1.00  0.00     0.000 OA
HETATM    2  C1  UNL     1      21.230   2.049  49.118  1.00  0.00     0.294 A 
HETATM    3  N1  UNL     1      20.044   2.010  48.329  1.00  0.00    -0.343 N 
HETATM    4  C2  UNL     1      20.270   2.885  47.107  1.00  0.00     0.299 C 
HETATM    5  O2  UNL     1      20.455   4.189  47.569  1.00  0.00    -0.334 OA
HETATM    6  C3  UNL     1      21.459   4.742  48.288  1.00  0.00     0.077 C 
HETATM    7  C4  UNL     1      22.688   4.774  48.823  1.00  0.00     0.037 C 
HETATM    8  C5  UNL     1      23.739   3.751  48.730  1.00  0.00     0.166 A 
HETATM    9  C6  UNL     1      23.616   2.700  49.857  1.00  0.00     0.278 A 
HETATM   10  C7  UNL     1      24.858   2.965  50.213  1.00  0.00     0.063 A 
HETATM   11  C8  UNL     1      26.220   3.315  50.537  1.00  0.00     0.076 A 
HETATM   12  C9  UNL     1      26.345   4.236  49.565  1.00  0.00     0.110 A 
HETATM   13  N3  UNL     1      25.039   3.964  49.179  1.00  0.00    -0.322 N 
HETATM   14  N4  UNL     1      22.357   1.963  50.080  1.00  0.00     0.165 N 
HETATM   15  C16 UNL     1      22.083   1.167  51.254  1.00  0.00     0.285 C 
HETATM   16  C17 UNL     1      21.634   2.045  52.366  1.00  0.00     0.061 C 
HETATM   17  C18 UNL     1      20.517   3.015  52.123  1.00  0.00     0.272 C 
HETATM   18  N5  UNL     1      20.924   4.043  51.258  1.00  0.00     0.089 N 
HETATM   19  C19 UNL     1      20.115   5.142  50.958  1.00  0.00     0.238 C 
HETATM   20  C20 UNL     1      18.832   4.941  50.224  1.00  0.00     0.153 C 
HETATM   21  N6  UNL     1      18.631   6.133  49.380  1.00  0.00    -0.203 NA
HETATM   22  O3  UNL     1      19.462   6.118  48.374  1.00  0.00    -0.294 OA
HETATM   23  C21 UNL     1      20.773   6.041  48.719  1.00  0.00     0.204 C 
HETATM   24  C22 UNL     1      20.906   6.252  50.211  1.00  0.00     0.077 C 
HETATM   25  H1  UNL     1      19.892   1.412  49.166  1.00  0.00     0.163 HD
HETATM   26  H18 UNL     1      21.917   4.308  51.549  1.00  0.00     0.316 HD
HETATM   27  H22 UNL     1      17.623   6.114  49.113  1.00  0.00     0.153 HD
ENDROOT
BRANCH  12  28
HETATM   28  N2  UNL     1      27.553   4.968  49.377  1.00  0.00    -0.342 N 
HETATM   29  H7  UNL     1      28.281   4.584  50.015  1.00  0.00     0.167 HD
BRANCH  28  30
HETATM   30  C10 UNL     1      27.722   6.051  48.459  1.00  0.00     0.036 A 
HETATM   31  C11 UNL     1      28.956   6.285  47.882  1.00  0.00     0.029 A 
HETATM   32  C12 UNL     1      29.092   7.350  46.990  1.00  0.00     0.005 A 
HETATM   33  C13 UNL     1      27.999   8.149  46.700  1.00  0.00     0.042 A 
HETATM   34  C14 UNL     1      26.804   7.853  47.315  1.00  0.00     0.118 A 
HETATM   35  F1  UNL     1      25.742   8.645  47.023  1.00  0.00    -0.206 F 
HETATM   36  C15 UNL     1      26.599   6.818  48.205  1.00  0.00     0.071 A 
ENDBRANCH  28  30
ENDBRANCH  12  28
TORSDOF 2
ENDMDL
MODEL 7
REMARK VINA RESULT:      -8.1      3.317      5.737
REMARK  2 active torsions:
REMARK  status: ('A' for Active; 'I' for Inactive)
REMARK    1  A    between atoms: C9_12  and  N2_13 
REMARK    2  A    between atoms: N2_13  and  C10_14 
ROOT
HETATM    1  O1  UNL     1      22.238   6.426  50.636  1.00  0.00     0.000 OA
HETATM    2  C1  UNL     1      21.791   7.428  50.274  1.00  0.00     0.294 A 
HETATM    3  N1  UNL     1      20.680   8.175  49.786  1.00  0.00    -0.343 N 
HETATM    4  C2  UNL     1      19.507   7.220  49.639  1.00  0.00     0.299 C 
HETATM    5  O2  UNL     1      19.868   6.278  48.675  1.00  0.00    -0.334 OA
HETATM    6  C3  UNL     1      20.804   5.301  48.695  1.00  0.00     0.077 C 
HETATM    7  C4  UNL     1      21.690   4.486  49.287  1.00  0.00     0.037 C 
HETATM    8  C5  UNL     1      22.033   4.413  50.714  1.00  0.00     0.166 A 
HETATM    9  C6  UNL     1      23.167   5.398  51.081  1.00  0.00     0.278 A 
HETATM   10  C7  UNL     1      23.863   4.387  51.563  1.00  0.00     0.063 A 
HETATM   11  C8  UNL     1      24.559   3.228  52.067  1.00  0.00     0.076 A 
HETATM   12  C9  UNL     1      23.586   2.355  51.752  1.00  0.00     0.110 A 
HETATM   13  N3  UNL     1      22.841   3.411  51.244  1.00  0.00    -0.322 N 
HETATM   14  N4  UNL     1      23.060   6.837  50.767  1.00  0.00     0.165 N 
HETATM   15  C16 UNL     1      24.165   7.764  50.841  1.00  0.00     0.285 C 
HETATM   16  C17 UNL     1      24.985   7.671  49.605  1.00  0.00     0.061 C 
HETATM   17  C18 UNL     1      24.309   7.773  48.271  1.00  0.00     0.272 C 
HETATM   18  N5  UNL     1      23.514   6.643  48.024  1.00  0.00     0.089 N 
HETATM   19  C19 UNL     1      22.866   6.427  46.805  1.00  0.00     0.238 C 
HETATM   20  C20 UNL     1      21.794   7.362  46.359  1.00  0.00     0.153 C 
HETATM   21  N6  UNL     1      20.812   6.559  45.607  1.00  0.00    -0.203 NA
HETATM   22  O3  UNL     1      20.122   5.810  46.423  1.00  0.00    -0.294 OA
HETATM   23  C21 UNL     1      20.865   4.980  47.199  1.00  0.00     0.204 C 
HETATM   24  C22 UNL     1      22.294   4.985  46.705  1.00  0.00     0.077 C 
HETATM   25  H1  UNL     1      21.484   8.827  49.888  1.00  0.00     0.163 HD
HETATM   26  H18 UNL     1      24.072   5.799  48.369  1.00  0.00     0.316 HD
HETATM   27  H22 UNL     1      20.247   7.250  45.066  1.00  0.00     0.153 HD
ENDROOT
BRANCH  12  28
HETATM   28  N2  UNL     1      23.710   0.962  52.028  1.00  0.00    -0.342 N 
HETATM   29  H7  UNL     1      24.532   0.589  51.507  1.00  0.00     0.167 HD
BRANCH  28  30
HETATM   30  C10 UNL     1      22.840   0.213  52.880  1.00  0.00     0.036 A 
HETATM   31  C11 UNL     1      21.477   0.209  52.649  1.00  0.00     0.029 A 
HETATM   32  C12 UNL     1      20.652  -0.530  53.498  1.00  0.00     0.005 A 
HETATM   33  C13 UNL     1      21.206  -1.242  54.548  1.00  0.00     0.042 A 
HETATM   34  C14 UNL     1      22.572  -1.189  54.713  1.00  0.00     0.118 A 
HETATM   35  F1  UNL     1      23.100  -1.890  55.747  1.00  0.00    -0.206 F 
HETATM   36  C15 UNL     1      23.445  -0.479  53.913  1.00  0.00     0.071 A 
ENDBRANCH  28  30
ENDBRANCH  12  28
TORSDOF 2
ENDMDL
MODEL 8
REMARK VINA RESULT:      -8.1      4.243      6.815
REMARK  2 active torsions:
REMARK  status: ('A' for Active; 'I' for Inactive)
REMARK    1  A    between atoms: C9_12  and  N2_13 
REMARK    2  A    between atoms: N2_13  and  C10_14 
ROOT
HETATM    1  O1  UNL     1      23.772   6.700  50.396  1.00  0.00     0.000 OA
HETATM    2  C1  UNL     1      22.871   6.477  51.084  1.00  0.00     0.294 A 
HETATM    3  N1  UNL     1      22.312   5.776  52.191  1.00  0.00    -0.343 N 
HETATM    4  C2  UNL     1      23.384   4.853  52.746  1.00  0.00     0.299 C 
HETATM    5  O2  UNL     1      23.686   3.931  51.742  1.00  0.00    -0.334 OA
HETATM    6  C3  UNL     1      24.290   4.093  50.541  1.00  0.00     0.077 C 
HETATM    7  C4  UNL     1      25.011   4.761  49.630  1.00  0.00     0.037 C 
HETATM    8  C5  UNL     1      25.596   6.104  49.753  1.00  0.00     0.166 A 
HETATM    9  C6  UNL     1      24.603   7.204  49.313  1.00  0.00     0.278 A 
HETATM   10  C7  UNL     1      25.497   7.638  48.447  1.00  0.00     0.063 A 
HETATM   11  C8  UNL     1      26.529   8.050  47.526  1.00  0.00     0.076 A 
HETATM   12  C9  UNL     1      27.406   7.098  47.892  1.00  0.00     0.110 A 
HETATM   13  N3  UNL     1      26.474   6.632  48.810  1.00  0.00    -0.322 N 
HETATM   14  N4  UNL     1      23.255   7.297  49.909  1.00  0.00     0.165 N 
HETATM   15  C16 UNL     1      22.192   8.120  49.378  1.00  0.00     0.285 C 
HETATM   16  C17 UNL     1      21.523   7.416  48.253  1.00  0.00     0.061 C 
HETATM   17  C18 UNL     1      21.041   6.010  48.455  1.00  0.00     0.272 C 
HETATM   18  N5  UNL     1      22.122   5.123  48.583  1.00  0.00     0.089 N 
HETATM   19  C19 UNL     1      21.956   3.738  48.663  1.00  0.00     0.238 C 
HETATM   20  C20 UNL     1      21.243   3.143  49.829  1.00  0.00     0.153 C 
HETATM   21  N6  UNL     1      21.873   1.837  50.095  1.00  0.00    -0.203 NA
HETATM   22  O3  UNL     1      23.054   2.006  50.625  1.00  0.00    -0.294 OA
HETATM   23  C21 UNL     1      23.906   2.762  49.887  1.00  0.00     0.204 C 
HETATM   24  C22 UNL     1      23.310   2.987  48.516  1.00  0.00     0.077 C 
HETATM   25  H1  UNL     1      21.579   6.408  51.810  1.00  0.00     0.163 HD
HETATM   26  H18 UNL     1      22.850   5.427  47.861  1.00  0.00     0.316 HD
HETATM   27  H22 UNL     1      21.195   1.321  50.697  1.00  0.00     0.153 HD
ENDROOT
BRANCH  12  28
HETATM   28  N2  UNL     1      28.692   6.992  47.289  1.00  0.00    -0.342 N 
HETATM   29  H7  UNL     1      28.587   7.078  46.256  1.00  0.00     0.167 HD
BRANCH  28  30
HETATM   30  C10 UNL     1      29.919   6.799  47.999  1.00  0.00     0.036 A 
HETATM   31  C11 UNL     1      30.429   7.812  48.789  1.00  0.00     0.029 A 
HETATM   32  C12 UNL     1      31.629   7.596  49.470  1.00  0.00     0.005 A 
HETATM   33  C13 UNL     1      32.282   6.381  49.345  1.00  0.00     0.042 A 
HETATM   34  C14 UNL     1      31.710   5.422  48.540  1.00  0.00     0.118 A 
HETATM   35  F1  UNL     1      32.361   4.238  48.426  1.00  0.00    -0.206 F 
HETATM   36  C15 UNL     1      30.530   5.569  47.840  1.00  0.00     0.071 A 
ENDBRANCH  28  30
ENDBRANCH  12  28
TORSDOF 2
ENDMDL
MODEL 9
REMARK VINA RESULT:      -8.0      8.827     10.372
REMARK  2 active torsions:
REMARK  status: ('A' for Active; 'I' for Inactive)
REMARK    1  A    between atoms: C9_12  and  N2_13 
REMARK    2  A    between atoms: N2_13  and  C10_14 
ROOT
HETATM    1  O1  UNL     1      28.746  10.126  48.832  1.00  0.00     0.000 OA
HETATM    2  C1  UNL     1      27.893  10.889  48.675  1.00  0.00     0.294 A 
HETATM    3  N1  UNL     1      26.505  11.167  48.514  1.00  0.00    -0.343 N 
HETATM    4  C2  UNL     1      25.760   9.843  48.533  1.00  0.00     0.299 C 
HETATM    5  O2  UNL     1      26.199   9.113  47.427  1.00  0.00    -0.334 OA
HETATM    6  C3  UNL     1      27.402   8.559  47.150  1.00  0.00     0.077 C 
HETATM    7  C4  UNL     1      28.637   8.133  47.454  1.00  0.00     0.037 C 
HETATM    8  C5  UNL     1      29.312   8.184  48.759  1.00  0.00     0.166 A 
HETATM    9  C6  UNL     1      30.062   9.519  48.964  1.00  0.00     0.278 A 
HETATM   10  C7  UNL     1      31.171   8.841  49.183  1.00  0.00     0.063 A 
HETATM   11  C8  UNL     1      32.339   8.024  49.411  1.00  0.00     0.076 A 
HETATM   12  C9  UNL     1      31.705   6.852  49.231  1.00  0.00     0.110 A 
HETATM   13  N3  UNL     1      30.529   7.555  49.001  1.00  0.00    -0.322 N 
HETATM   14  N4  UNL     1      29.367  10.815  48.821  1.00  0.00     0.165 N 
HETATM   15  C16 UNL     1      30.043  12.089  48.742  1.00  0.00     0.285 C 
HETATM   16  C17 UNL     1      30.523  12.321  47.355  1.00  0.00     0.061 C 
HETATM   17  C18 UNL     1      29.560  12.172  46.215  1.00  0.00     0.272 C 
HETATM   18  N5  UNL     1      29.196  10.828  46.039  1.00  0.00     0.089 N 
HETATM   19  C19 UNL     1      28.402  10.394  44.974  1.00  0.00     0.238 C 
HETATM   20  C20 UNL     1      26.990  10.861  44.864  1.00  0.00     0.153 C 
HETATM   21  N6  UNL     1      26.219   9.754  44.269  1.00  0.00    -0.203 NA
HETATM   22  O3  UNL     1      26.064   8.794  45.139  1.00  0.00    -0.294 OA
HETATM   23  C21 UNL     1      27.219   8.298  45.652  1.00  0.00     0.204 C 
HETATM   24  C22 UNL     1      28.387   8.844  44.862  1.00  0.00     0.077 C 
HETATM   25  H1  UNL     1      27.016  12.073  48.501  1.00  0.00     0.163 HD
HETATM   26  H18 UNL     1      30.087  10.253  46.172  1.00  0.00     0.316 HD
HETATM   27  H22 UNL     1      25.331  10.186  43.933  1.00  0.00     0.153 HD
ENDROOT
BRANCH  12  28
HETATM   28  N2  UNL     1      32.389   5.606  49.337  1.00  0.00    -0.342 N 
HETATM   29  H7  UNL     1      32.625   5.437  50.337  1.00  0.00     0.167 HD
BRANCH  28  30
HETATM   30  C10 UNL     1      32.694   4.741  48.240  1.00  0.00     0.036 A 
HETATM   31  C11 UNL     1      31.686   4.299  47.404  1.00  0.00     0.029 A 
HETATM   32  C12 UNL     1      32.013   3.454  46.342  1.00  0.00     0.005 A 
HETATM   33  C13 UNL     1      33.330   3.076  46.144  1.00  0.00     0.042 A 
HETATM   34  C14 UNL     1      34.277   3.558  47.018  1.00  0.00     0.118 A 
HETATM   35  F1  UNL     1      35.563   3.178  46.813  1.00  0.00    -0.206 F 
HETATM   36  C15 UNL     1      34.024   4.394  48.087  1.00  0.00     0.071 A 
ENDBRANCH  28  30
ENDBRANCH  12  28
TORSDOF 2
ENDMDL
