MODEL 1
REMARK VINA RESULT:      -8.0      0.000      0.000
REMARK  0 active torsions:
REMARK  status: ('A' for Active; 'I' for Inactive)
ROOT
HETATM    1  F1  UNL     1      27.092   1.309  51.281  1.00  0.00    -0.244 F 
HETATM    2  C1  UNL     1      26.412   2.565  51.230  1.00  0.00     0.204 C 
HETATM    3  C2  UNL     1      26.085   2.758  49.809  1.00  0.00     0.081 C 
HETATM    4  C3  UNL     1      25.523   4.031  49.328  1.00  0.00    -0.043 A 
HETATM    5  C4  UNL     1      26.550   4.990  49.290  1.00  0.00     0.008 A 
HETATM    6  C5  UNL     1      26.389   6.292  48.856  1.00  0.00     0.001 A 
HETATM    7  C6  UNL     1      25.165   6.747  48.417  1.00  0.00     0.001 A 
HETATM    8  C7  UNL     1      24.132   5.839  48.438  1.00  0.00     0.014 A 
HETATM    9  C8  UNL     1      24.296   4.559  48.867  1.00  0.00    -0.001 A 
HETATM   10  C9  UNL     1      23.402   3.437  49.030  1.00  0.00     0.070 A 
HETATM   11  C10 UNL     1      23.387   2.851  50.266  1.00  0.00     0.060 A 
HETATM   12  C11 UNL     1      22.928   1.887  51.086  1.00  0.00     0.047 A 
HETATM   13  N1  UNL     1      22.104   1.229  50.260  1.00  0.00    -0.246 NA
HETATM   14  C12 UNL     1      21.920   1.600  48.956  1.00  0.00     0.234 A 
HETATM   15  N2  UNL     1      22.540   2.659  48.358  1.00  0.00    -0.241 NA
HETATM   16  C13 UNL     1      23.380   1.709  52.443  1.00  0.00     0.083 C 
HETATM   17  C14 UNL     1      24.763   1.087  52.349  1.00  0.00    -0.007 C 
HETATM   18  C15 UNL     1      25.239   2.315  52.124  1.00  0.00    -0.030 C 
HETATM   19  C16 UNL     1      24.175   2.779  53.058  1.00  0.00     0.127 C 
HETATM   20 CL1  UNL     1      23.636   4.434  52.956  1.00  0.00    -0.119 Cl
ENDROOT
TORSDOF 0
ENDMDL
MODEL 2
REMARK VINA RESULT:      -8.0      3.596      5.100
REMARK  0 active torsions:
REMARK  status: ('A' for Active; 'I' for Inactive)
ROOT
HETATM    1  F1  UNL     1      23.114   4.938  53.075  1.00  0.00    -0.244 F 
HETATM    2  C1  UNL     1      23.530   3.779  52.349  1.00  0.00     0.204 C 
HETATM    3  C2  UNL     1      24.124   2.895  53.363  1.00  0.00     0.081 C 
HETATM    4  C3  UNL     1      24.825   1.661  52.972  1.00  0.00    -0.043 A 
HETATM    5  C4  UNL     1      26.080   2.004  52.441  1.00  0.00     0.008 A 
HETATM    6  C5  UNL     1      27.020   1.092  52.002  1.00  0.00     0.001 A 
HETATM    7  C6  UNL     1      26.776  -0.262  52.061  1.00  0.00     0.001 A 
HETATM    8  C7  UNL     1      25.558  -0.642  52.574  1.00  0.00     0.014 A 
HETATM    9  C8  UNL     1      24.635   0.260  53.004  1.00  0.00    -0.001 A 
HETATM   10  C9  UNL     1      23.298   0.146  53.536  1.00  0.00     0.070 A 
HETATM   11  C10 UNL     1      22.331   0.877  52.901  1.00  0.00     0.060 A 
HETATM   12  C11 UNL     1      21.049   1.280  52.819  1.00  0.00     0.047 A 
HETATM   13  N1  UNL     1      20.517   0.631  53.862  1.00  0.00    -0.246 NA
HETATM   14  C12 UNL     1      21.256  -0.182  54.677  1.00  0.00     0.234 A 
HETATM   15  N2  UNL     1      22.593  -0.419  54.527  1.00  0.00    -0.241 NA
HETATM   16  C13 UNL     1      20.570   2.233  51.849  1.00  0.00     0.083 C 
HETATM   17  C14 UNL     1      21.056   3.595  52.320  1.00  0.00    -0.007 C 
HETATM   18  C15 UNL     1      22.237   3.302  51.768  1.00  0.00    -0.030 C 
HETATM   19  C16 UNL     1      21.448   2.585  50.727  1.00  0.00     0.127 C 
HETATM   20 CL1  UNL     1      22.230   1.328  49.804  1.00  0.00    -0.119 Cl
ENDROOT
TORSDOF 0
ENDMDL
MODEL 3
REMARK VINA RESULT:      -7.7      2.547      5.525
REMARK  0 active torsions:
REMARK  status: ('A' for Active; 'I' for Inactive)
ROOT
HETATM    1  F1  UNL     1      22.469   2.221  48.440  1.00  0.00    -0.244 F 
HETATM    2  C1  UNL     1      22.259   2.368  49.846  1.00  0.00     0.204 C 
HETATM    3  C2  UNL     1      22.407   1.010  50.392  1.00  0.00     0.081 C 
HETATM    4  C3  UNL     1      22.093   0.724  51.802  1.00  0.00    -0.043 A 
HETATM    5  C4  UNL     1      20.696   0.706  51.957  1.00  0.00     0.008 A 
HETATM    6  C5  UNL     1      20.045   0.434  53.144  1.00  0.00     0.001 A 
HETATM    7  C6  UNL     1      20.751   0.154  54.293  1.00  0.00     0.001 A 
HETATM    8  C7  UNL     1      22.122   0.162  54.185  1.00  0.00     0.014 A 
HETATM    9  C8  UNL     1      22.758   0.431  53.013  1.00  0.00    -0.001 A 
HETATM   10  C9  UNL     1      24.146   0.543  52.633  1.00  0.00     0.070 A 
HETATM   11  C10 UNL     1      24.509   1.703  52.004  1.00  0.00     0.060 A 
HETATM   12  C11 UNL     1      25.453   2.447  51.399  1.00  0.00     0.047 A 
HETATM   13  N1  UNL     1      26.508   1.627  51.482  1.00  0.00    -0.246 NA
HETATM   14  C12 UNL     1      26.435   0.393  52.068  1.00  0.00     0.234 A 
HETATM   15  N2  UNL     1      25.304  -0.135  52.623  1.00  0.00    -0.241 NA
HETATM   16  C13 UNL     1      25.196   3.733  50.799  1.00  0.00     0.083 C 
HETATM   17  C14 UNL     1      24.463   3.452  49.497  1.00  0.00    -0.007 C 
HETATM   18  C15 UNL     1      23.346   3.326  50.219  1.00  0.00    -0.030 C 
HETATM   19  C16 UNL     1      23.918   4.392  51.088  1.00  0.00     0.127 C 
HETATM   20 CL1  UNL     1      23.355   4.521  52.733  1.00  0.00    -0.119 Cl
ENDROOT
TORSDOF 0
ENDMDL
MODEL 4
REMARK VINA RESULT:      -7.4      2.757      5.646
REMARK  0 active torsions:
REMARK  status: ('A' for Active; 'I' for Inactive)
ROOT
HETATM    1  F1  UNL     1      22.920   2.208  48.134  1.00  0.00    -0.244 F 
HETATM    2  C1  UNL     1      22.051   2.313  49.264  1.00  0.00     0.204 C 
HETATM    3  C2  UNL     1      21.918   0.937  49.764  1.00  0.00     0.081 C 
HETATM    4  C3  UNL     1      20.957   0.610  50.831  1.00  0.00    -0.043 A 
HETATM    5  C4  UNL     1      19.662   0.607  50.286  1.00  0.00     0.008 A 
HETATM    6  C5  UNL     1      18.515   0.308  50.996  1.00  0.00     0.001 A 
HETATM    7  C6  UNL     1      18.573  -0.019  52.332  1.00  0.00     0.001 A 
HETATM    8  C7  UNL     1      19.823  -0.028  52.906  1.00  0.00     0.014 A 
HETATM    9  C8  UNL     1      20.949   0.269  52.203  1.00  0.00    -0.001 A 
HETATM   10  C9  UNL     1      22.346   0.373  52.551  1.00  0.00     0.070 A 
HETATM   11  C10 UNL     1      22.965   1.547  52.220  1.00  0.00     0.060 A 
HETATM   12  C11 UNL     1      24.084   2.296  52.177  1.00  0.00     0.047 A 
HETATM   13  N1  UNL     1      24.966   1.457  52.735  1.00  0.00    -0.246 NA
HETATM   14  C12 UNL     1      24.620   0.207  53.168  1.00  0.00     0.234 A 
HETATM   15  N2  UNL     1      23.363  -0.322  53.082  1.00  0.00    -0.241 NA
HETATM   16  C13 UNL     1      24.148   3.603  51.573  1.00  0.00     0.083 C 
HETATM   17  C14 UNL     1      24.143   3.375  50.071  1.00  0.00    -0.007 C 
HETATM   18  C15 UNL     1      22.816   3.242  50.152  1.00  0.00    -0.030 C 
HETATM   19  C16 UNL     1      22.889   4.272  51.226  1.00  0.00     0.127 C 
HETATM   20 CL1  UNL     1      21.595   4.357  52.392  1.00  0.00    -0.119 Cl
ENDROOT
TORSDOF 0
ENDMDL
MODEL 5
REMARK VINA RESULT:      -7.2      2.666      3.896
REMARK  0 active torsions:
REMARK  status: ('A' for Active; 'I' for Inactive)
ROOT
HETATM    1  F1  UNL     1      20.895   5.004  51.588  1.00  0.00    -0.244 F 
HETATM    2  C1  UNL     1      21.849   4.479  50.661  1.00  0.00     0.204 C 
HETATM    3  C2  UNL     1      23.110   4.419  51.415  1.00  0.00     0.081 C 
HETATM    4  C3  UNL     1      24.377   4.085  50.743  1.00  0.00    -0.043 A 
HETATM    5  C4  UNL     1      24.799   5.199  49.998  1.00  0.00     0.008 A 
HETATM    6  C5  UNL     1      25.969   5.253  49.265  1.00  0.00     0.001 A 
HETATM    7  C6  UNL     1      26.827   4.176  49.218  1.00  0.00     0.001 A 
HETATM    8  C7  UNL     1      26.451   3.064  49.934  1.00  0.00     0.014 A 
HETATM    9  C8  UNL     1      25.297   3.016  50.653  1.00  0.00    -0.001 A 
HETATM   10  C9  UNL     1      24.654   1.993  51.443  1.00  0.00     0.070 A 
HETATM   11  C10 UNL     1      23.355   1.708  51.120  1.00  0.00     0.060 A 
HETATM   12  C11 UNL     1      22.225   1.017  51.363  1.00  0.00     0.047 A 
HETATM   13  N1  UNL     1      22.605   0.280  52.414  1.00  0.00    -0.246 NA
HETATM   14  C12 UNL     1      23.860   0.358  52.951  1.00  0.00     0.234 A 
HETATM   15  N2  UNL     1      24.850   1.179  52.491  1.00  0.00    -0.241 NA
HETATM   16  C13 UNL     1      20.997   1.213  50.635  1.00  0.00     0.083 C 
HETATM   17  C14 UNL     1      20.408   2.518  51.144  1.00  0.00    -0.007 C 
HETATM   18  C15 UNL     1      21.247   3.153  50.321  1.00  0.00    -0.030 C 
HETATM   19  C16 UNL     1      21.038   2.002  49.398  1.00  0.00     0.127 C 
HETATM   20 CL1  UNL     1      22.251   1.667  48.190  1.00  0.00    -0.119 Cl
ENDROOT
TORSDOF 0
ENDMDL
MODEL 6
REMARK VINA RESULT:      -7.1      2.578      5.237
REMARK  0 active torsions:
REMARK  status: ('A' for Active; 'I' for Inactive)
ROOT
HETATM    1  F1  UNL     1      22.183   4.354  47.503  1.00  0.00    -0.244 F 
HETATM    2  C1  UNL     1      22.635   4.333  48.859  1.00  0.00     0.204 C 
HETATM    3  C2  UNL     1      23.628   3.250  48.907  1.00  0.00     0.081 C 
HETATM    4  C3  UNL     1      24.202   2.806  50.189  1.00  0.00    -0.043 A 
HETATM    5  C4  UNL     1      23.240   2.044  50.873  1.00  0.00     0.008 A 
HETATM    6  C5  UNL     1      23.448   1.439  52.097  1.00  0.00     0.001 A 
HETATM    7  C6  UNL     1      24.656   1.550  52.748  1.00  0.00     0.001 A 
HETATM    8  C7  UNL     1      25.627   2.289  52.112  1.00  0.00     0.014 A 
HETATM    9  C8  UNL     1      25.416   2.884  50.907  1.00  0.00    -0.001 A 
HETATM   10  C9  UNL     1      26.221   3.727  50.055  1.00  0.00     0.070 A 
HETATM   11  C10 UNL     1      25.659   4.916  49.678  1.00  0.00     0.060 A 
HETATM   12  C11 UNL     1      25.735   6.063  48.977  1.00  0.00     0.047 A 
HETATM   13  N1  UNL     1      26.939   5.929  48.408  1.00  0.00    -0.246 NA
HETATM   14  C12 UNL     1      27.730   4.832  48.613  1.00  0.00     0.234 A 
HETATM   15  N2  UNL     1      27.392   3.770  49.402  1.00  0.00    -0.241 NA
HETATM   16  C13 UNL     1      24.666   7.028  48.905  1.00  0.00     0.083 C 
HETATM   17  C14 UNL     1      23.620   6.432  47.978  1.00  0.00    -0.007 C 
HETATM   18  C15 UNL     1      23.189   5.713  49.018  1.00  0.00    -0.030 C 
HETATM   19  C16 UNL     1      23.547   6.899  49.845  1.00  0.00     0.127 C 
HETATM   20 CL1  UNL     1      23.858   6.669  51.546  1.00  0.00    -0.119 Cl
ENDROOT
TORSDOF 0
ENDMDL
MODEL 7
REMARK VINA RESULT:      -7.0      5.847      8.352
REMARK  0 active torsions:
REMARK  status: ('A' for Active; 'I' for Inactive)
ROOT
HETATM    1  F1  UNL     1      30.975   9.771  49.852  1.00  0.00    -0.244 F 
HETATM    2  C1  UNL     1      31.265   8.898  48.758  1.00  0.00     0.204 C 
HETATM    3  C2  UNL     1      31.216   7.545  49.334  1.00  0.00     0.081 C 
HETATM    4  C3  UNL     1      31.630   6.373  48.546  1.00  0.00    -0.043 A 
HETATM    5  C4  UNL     1      33.033   6.358  48.465  1.00  0.00     0.008 A 
HETATM    6  C5  UNL     1      33.769   5.379  47.826  1.00  0.00     0.001 A 
HETATM    7  C6  UNL     1      33.150   4.316  47.207  1.00  0.00     0.001 A 
HETATM    8  C7  UNL     1      31.776   4.292  47.263  1.00  0.00     0.014 A 
HETATM    9  C8  UNL     1      31.056   5.259  47.892  1.00  0.00    -0.001 A 
HETATM   10  C9  UNL     1      29.643   5.499  48.066  1.00  0.00     0.070 A 
HETATM   11  C10 UNL     1      29.188   6.731  47.684  1.00  0.00     0.060 A 
HETATM   12  C11 UNL     1      28.174   7.610  47.574  1.00  0.00     0.047 A 
HETATM   13  N1  UNL     1      27.166   6.892  48.085  1.00  0.00    -0.246 NA
HETATM   14  C12 UNL     1      27.334   5.615  48.547  1.00  0.00     0.234 A 
HETATM   15  N2  UNL     1      28.520   4.939  48.542  1.00  0.00    -0.241 NA
HETATM   16  C13 UNL     1      28.332   8.958  47.088  1.00  0.00     0.083 C 
HETATM   17  C14 UNL     1      28.995   9.736  48.213  1.00  0.00    -0.007 C 
HETATM   18  C15 UNL     1      30.160   9.224  47.805  1.00  0.00    -0.030 C 
HETATM   19  C16 UNL     1      29.594   9.317  46.431  1.00  0.00     0.127 C 
HETATM   20 CL1  UNL     1      30.251   8.290  45.184  1.00  0.00    -0.119 Cl
ENDROOT
TORSDOF 0
ENDMDL
MODEL 8
REMARK VINA RESULT:      -6.8      9.594     10.586
REMARK  0 active torsions:
REMARK  status: ('A' for Active; 'I' for Inactive)
ROOT
HETATM    1  F1  UNL     1      35.732   5.394  49.181  1.00  0.00    -0.244 F 
HETATM    2  C1  UNL     1      34.428   5.724  48.699  1.00  0.00     0.204 C 
HETATM    3  C2  UNL     1      34.642   6.852  47.780  1.00  0.00     0.081 C 
HETATM    4  C3  UNL     1      33.501   7.587  47.207  1.00  0.00    -0.043 A 
HETATM    5  C4  UNL     1      32.954   8.415  48.201  1.00  0.00     0.008 A 
HETATM    6  C5  UNL     1      31.889   9.273  48.006  1.00  0.00     0.001 A 
HETATM    7  C6  UNL     1      31.275   9.373  46.777  1.00  0.00     0.001 A 
HETATM    8  C7  UNL     1      31.781   8.579  45.774  1.00  0.00     0.014 A 
HETATM    9  C8  UNL     1      32.829   7.735  45.973  1.00  0.00    -0.001 A 
HETATM   10  C9  UNL     1      33.518   6.783  45.134  1.00  0.00     0.070 A 
HETATM   11  C10 UNL     1      33.621   5.510  45.623  1.00  0.00     0.060 A 
HETATM   12  C11 UNL     1      34.073   4.249  45.487  1.00  0.00     0.047 A 
HETATM   13  N1  UNL     1      34.702   4.335  44.309  1.00  0.00    -0.246 NA
HETATM   14  C12 UNL     1      34.758   5.497  43.589  1.00  0.00     0.234 A 
HETATM   15  N2  UNL     1      34.192   6.677  43.979  1.00  0.00    -0.241 NA
HETATM   16  C13 UNL     1      33.904   3.226  46.489  1.00  0.00     0.083 C 
HETATM   17  C14 UNL     1      34.894   3.552  47.596  1.00  0.00    -0.007 C 
HETATM   18  C15 UNL     1      34.009   4.444  48.049  1.00  0.00    -0.030 C 
HETATM   19  C16 UNL     1      32.969   3.480  47.592  1.00  0.00     0.127 C 
HETATM   20 CL1  UNL     1      31.366   4.077  47.256  1.00  0.00    -0.119 Cl
ENDROOT
TORSDOF 0
ENDMDL
MODEL 9
REMARK VINA RESULT:      -6.8      2.992      4.331
REMARK  0 active torsions:
REMARK  status: ('A' for Active; 'I' for Inactive)
ROOT
HETATM    1  F1  UNL     1      22.978   8.454  50.803  1.00  0.00    -0.244 F 
HETATM    2  C1  UNL     1      23.558   7.516  49.895  1.00  0.00     0.204 C 
HETATM    3  C2  UNL     1      24.642   6.877  50.656  1.00  0.00     0.081 C 
HETATM    4  C3  UNL     1      25.590   5.962  49.999  1.00  0.00    -0.043 A 
HETATM    5  C4  UNL     1      26.489   6.720  49.230  1.00  0.00     0.008 A 
HETATM    6  C5  UNL     1      27.537   6.190  48.503  1.00  0.00     0.001 A 
HETATM    7  C6  UNL     1      27.774   4.834  48.486  1.00  0.00     0.001 A 
HETATM    8  C7  UNL     1      26.917   4.054  49.227  1.00  0.00     0.014 A 
HETATM    9  C8  UNL     1      25.886   4.581  49.940  1.00  0.00    -0.001 A 
HETATM   10  C9  UNL     1      24.837   4.010  50.751  1.00  0.00     0.070 A 
HETATM   11  C10 UNL     1      23.558   4.373  50.427  1.00  0.00     0.060 A 
HETATM   12  C11 UNL     1      22.237   4.313  50.680  1.00  0.00     0.047 A 
HETATM   13  N1  UNL     1      22.224   3.509  51.751  1.00  0.00    -0.246 NA
HETATM   14  C12 UNL     1      23.367   2.990  52.293  1.00  0.00     0.234 A 
HETATM   15  N2  UNL     1      24.626   3.226  51.819  1.00  0.00    -0.241 NA
HETATM   16  C13 UNL     1      21.247   5.056  49.941  1.00  0.00     0.083 C 
HETATM   17  C14 UNL     1      21.358   6.496  50.416  1.00  0.00    -0.007 C 
HETATM   18  C15 UNL     1      22.393   6.632  49.582  1.00  0.00    -0.030 C 
HETATM   19  C16 UNL     1      21.653   5.700  48.687  1.00  0.00     0.127 C 
HETATM   20 CL1  UNL     1      22.549   4.797  47.494  1.00  0.00    -0.119 Cl
ENDROOT
TORSDOF 0
ENDMDL
