MODEL 1
REMARK VINA RESULT:      -7.8      0.000      0.000
REMARK  4 active torsions:
REMARK  status: ('A' for Active; 'I' for Inactive)
REMARK    1  A    between atoms: N1_1  and  C1_2 
REMARK    2  A    between atoms: C4_5  and  S1_6 
REMARK    3  A    between atoms: S1_6  and  N2_9 
REMARK       I    between atoms: N2_9  and  C5_10 
REMARK    4  A    between atoms: C5_10  and  C6_12 
ROOT
HETATM    1  S1  UNL     1      27.191   2.186  52.984  1.00  0.00     0.265 S 
HETATM    2  O1  UNL     1      27.623   2.825  51.713  1.00  0.00    -0.200 OA
HETATM    3  O2  UNL     1      27.946   2.848  54.099  1.00  0.00    -0.200 OA
ENDROOT
BRANCH   1   4
HETATM    4  C4  UNL     1      27.562   0.461  53.015  1.00  0.00     0.080 A 
HETATM    5  C3  UNL     1      28.816   0.049  53.452  1.00  0.00     0.027 A 
HETATM    6  C2  UNL     1      29.187  -1.286  53.506  1.00  0.00     0.030 A 
HETATM    7  C1  UNL     1      28.258  -2.233  53.105  1.00  0.00     0.025 A 
HETATM    8  C12 UNL     1      27.003  -1.848  52.666  1.00  0.00     0.030 A 
HETATM    9  C11 UNL     1      26.652  -0.509  52.620  1.00  0.00     0.027 A 
BRANCH   7  10
HETATM   10  N1  UNL     1      28.665  -3.596  53.172  1.00  0.00    -0.399 N 
HETATM   11  H1  UNL     1      28.113  -4.484  53.035  1.00  0.00     0.156 HD
HETATM   12  H2  UNL     1      29.679  -3.639  53.395  1.00  0.00     0.156 HD
ENDBRANCH   7  10
ENDBRANCH   1   4
BRANCH   1  13
HETATM   13  N2  UNL     1      25.516   2.377  53.298  1.00  0.00    -0.246 N 
HETATM   14  C5  UNL     1      24.628   2.351  52.191  1.00  0.00     0.266 C 
HETATM   15  O3  UNL     1      25.154   2.187  51.060  1.00  0.00    -0.267 OA
HETATM   16  H5  UNL     1      25.127   2.509  54.237  1.00  0.00     0.182 HD
BRANCH  14  17
HETATM   17  C6  UNL     1      23.181   2.498  52.285  1.00  0.00     0.051 A 
HETATM   18  C7  UNL     1      22.698   3.787  52.205  1.00  0.00     0.133 A 
HETATM   19  N3  UNL     1      21.352   3.999  52.287  1.00  0.00    -0.271 NA
HETATM   20  C8  UNL     1      20.534   2.936  52.441  1.00  0.00     0.135 A 
HETATM   21  C9  UNL     1      20.985   1.632  52.524  1.00  0.00     0.029 A 
HETATM   22 BR1  UNL     1      19.781   0.172  52.743  1.00  0.00    -0.050 Br
HETATM   23  C10 UNL     1      22.363   1.403  52.442  1.00  0.00     0.039 A 
ENDBRANCH  14  17
ENDBRANCH   1  13
TORSDOF 4
ENDMDL
MODEL 2
REMARK VINA RESULT:      -7.3      3.404      6.829
REMARK  4 active torsions:
REMARK  status: ('A' for Active; 'I' for Inactive)
REMARK    1  A    between atoms: N1_1  and  C1_2 
REMARK    2  A    between atoms: C4_5  and  S1_6 
REMARK    3  A    between atoms: S1_6  and  N2_9 
REMARK       I    between atoms: N2_9  and  C5_10 
REMARK    4  A    between atoms: C5_10  and  C6_12 
ROOT
HETATM    1  S1  UNL     1      22.947   1.683  52.102  1.00  0.00     0.265 S 
HETATM    2  O1  UNL     1      22.683   3.125  52.349  1.00  0.00    -0.200 OA
HETATM    3  O2  UNL     1      23.080   1.498  50.619  1.00  0.00    -0.200 OA
ENDROOT
BRANCH   1   4
HETATM    4  C4  UNL     1      21.623   0.663  52.669  1.00  0.00     0.080 A 
HETATM    5  C3  UNL     1      20.409   0.697  51.991  1.00  0.00     0.027 A 
HETATM    6  C2  UNL     1      19.320  -0.072  52.372  1.00  0.00     0.030 A 
HETATM    7  C1  UNL     1      19.465  -0.901  53.474  1.00  0.00     0.025 A 
HETATM    8  C12 UNL     1      20.662  -0.951  54.165  1.00  0.00     0.030 A 
HETATM    9  C11 UNL     1      21.739  -0.175  53.768  1.00  0.00     0.027 A 
BRANCH   7  10
HETATM   10  N1  UNL     1      18.331  -1.679  53.842  1.00  0.00    -0.399 N 
HETATM   11  H1  UNL     1      17.708  -1.624  54.691  1.00  0.00     0.156 HD
HETATM   12  H2  UNL     1      18.152  -2.391  53.108  1.00  0.00     0.156 HD
ENDBRANCH   7  10
ENDBRANCH   1   4
BRANCH   1  13
HETATM   13  N2  UNL     1      24.397   1.130  52.833  1.00  0.00    -0.246 N 
HETATM   14  C5  UNL     1      25.594   1.835  52.545  1.00  0.00     0.266 C 
HETATM   15  O3  UNL     1      25.487   2.819  51.768  1.00  0.00    -0.267 OA
HETATM   16  H5  UNL     1      24.441   0.322  53.462  1.00  0.00     0.182 HD
BRANCH  14  17
HETATM   17  C6  UNL     1      26.906   1.496  53.083  1.00  0.00     0.051 A 
HETATM   18  C7  UNL     1      27.581   2.516  53.719  1.00  0.00     0.133 A 
HETATM   19  N3  UNL     1      28.816   2.269  54.247  1.00  0.00    -0.271 NA
HETATM   20  C8  UNL     1      29.338   1.030  54.127  1.00  0.00     0.135 A 
HETATM   21  C9  UNL     1      28.689  -0.015  53.496  1.00  0.00     0.029 A 
HETATM   22 BR1  UNL     1      29.478  -1.743  53.358  1.00  0.00    -0.050 Br
HETATM   23  C10 UNL     1      27.422   0.228  52.951  1.00  0.00     0.039 A 
ENDBRANCH  14  17
ENDBRANCH   1  13
TORSDOF 4
ENDMDL
MODEL 3
REMARK VINA RESULT:      -7.2      4.068      7.292
REMARK  4 active torsions:
REMARK  status: ('A' for Active; 'I' for Inactive)
REMARK    1  A    between atoms: N1_1  and  C1_2 
REMARK    2  A    between atoms: C4_5  and  S1_6 
REMARK    3  A    between atoms: S1_6  and  N2_9 
REMARK       I    between atoms: N2_9  and  C5_10 
REMARK    4  A    between atoms: C5_10  and  C6_12 
ROOT
HETATM    1  S1  UNL     1      22.196  -0.225  53.134  1.00  0.00     0.265 S 
HETATM    2  O1  UNL     1      22.236  -1.711  53.169  1.00  0.00    -0.200 OA
HETATM    3  O2  UNL     1      21.601   0.239  54.431  1.00  0.00    -0.200 OA
ENDROOT
BRANCH   1   4
HETATM    4  C4  UNL     1      21.188   0.377  51.817  1.00  0.00     0.080 A 
HETATM    5  C3  UNL     1      21.799   0.965  50.715  1.00  0.00     0.027 A 
HETATM    6  C2  UNL     1      21.080   1.464  49.640  1.00  0.00     0.030 A 
HETATM    7  C1  UNL     1      19.698   1.362  49.681  1.00  0.00     0.025 A 
HETATM    8  C12 UNL     1      19.066   0.781  50.766  1.00  0.00     0.030 A 
HETATM    9  C11 UNL     1      19.803   0.289  51.831  1.00  0.00     0.027 A 
BRANCH   7  10
HETATM   10  N1  UNL     1      18.985   1.882  48.563  1.00  0.00    -0.399 N 
HETATM   11  H1  UNL     1      18.651   2.861  48.359  1.00  0.00     0.156 HD
HETATM   12  H2  UNL     1      18.803   1.114  47.887  1.00  0.00     0.156 HD
ENDBRANCH   7  10
ENDBRANCH   1   4
BRANCH   1  13
HETATM   13  N2  UNL     1      23.750   0.486  52.985  1.00  0.00    -0.246 N 
HETATM   14  C5  UNL     1      24.783   0.002  53.829  1.00  0.00     0.266 C 
HETATM   15  O3  UNL     1      24.466  -0.919  54.625  1.00  0.00    -0.267 OA
HETATM   16  H5  UNL     1      23.967   1.237  52.321  1.00  0.00     0.182 HD
BRANCH  14  17
HETATM   17  C6  UNL     1      26.154   0.497  53.828  1.00  0.00     0.051 A 
HETATM   18  C7  UNL     1      26.304   1.863  53.933  1.00  0.00     0.133 A 
HETATM   19  N3  UNL     1      27.560   2.397  53.939  1.00  0.00    -0.271 NA
HETATM   20  C8  UNL     1      28.620   1.566  53.841  1.00  0.00     0.135 A 
HETATM   21  C9  UNL     1      28.505   0.192  53.734  1.00  0.00     0.029 A 
HETATM   22 BR1  UNL     1      30.039  -0.930  53.599  1.00  0.00    -0.050 Br
HETATM   23  C10 UNL     1      27.221  -0.365  53.727  1.00  0.00     0.039 A 
ENDBRANCH  14  17
ENDBRANCH   1  13
TORSDOF 4
ENDMDL
MODEL 4
REMARK VINA RESULT:      -7.0      5.447      6.544
REMARK  4 active torsions:
REMARK  status: ('A' for Active; 'I' for Inactive)
REMARK    1  A    between atoms: N1_1  and  C1_2 
REMARK    2  A    between atoms: C4_5  and  S1_6 
REMARK    3  A    between atoms: S1_6  and  N2_9 
REMARK       I    between atoms: N2_9  and  C5_10 
REMARK    4  A    between atoms: C5_10  and  C6_12 
ROOT
HETATM    1  S1  UNL     1      24.845   3.528  50.833  1.00  0.00     0.265 S 
HETATM    2  O1  UNL     1      24.028   4.453  51.663  1.00  0.00    -0.200 OA
HETATM    3  O2  UNL     1      24.001   3.108  49.666  1.00  0.00    -0.200 OA
ENDROOT
BRANCH   1   4
HETATM    4  C4  UNL     1      25.311   2.079  51.726  1.00  0.00     0.080 A 
HETATM    5  C3  UNL     1      24.398   1.507  52.606  1.00  0.00     0.027 A 
HETATM    6  C2  UNL     1      24.686   0.369  53.345  1.00  0.00     0.030 A 
HETATM    7  C1  UNL     1      25.938  -0.206  53.188  1.00  0.00     0.025 A 
HETATM    8  C12 UNL     1      26.863   0.344  52.319  1.00  0.00     0.030 A 
HETATM    9  C11 UNL     1      26.556   1.481  51.589  1.00  0.00     0.027 A 
BRANCH   7  10
HETATM   10  N1  UNL     1      26.206  -1.373  53.959  1.00  0.00    -0.399 N 
HETATM   11  H1  UNL     1      26.950  -1.560  54.682  1.00  0.00     0.156 HD
HETATM   12  H2  UNL     1      25.517  -2.111  53.713  1.00  0.00     0.156 HD
ENDBRANCH   7  10
ENDBRANCH   1   4
BRANCH   1  13
HETATM   13  N2  UNL     1      26.270   4.257  50.217  1.00  0.00    -0.246 N 
HETATM   14  C5  UNL     1      26.130   5.194  49.161  1.00  0.00     0.266 C 
HETATM   15  O3  UNL     1      24.957   5.413  48.762  1.00  0.00    -0.267 OA
HETATM   16  H5  UNL     1      27.210   4.050  50.571  1.00  0.00     0.182 HD
BRANCH  14  17
HETATM   17  C6  UNL     1      27.237   5.900  48.527  1.00  0.00     0.051 A 
HETATM   18  C7  UNL     1      26.941   7.138  47.998  1.00  0.00     0.133 A 
HETATM   19  N3  UNL     1      27.930   7.856  47.388  1.00  0.00    -0.271 NA
HETATM   20  C8  UNL     1      29.171   7.327  47.325  1.00  0.00     0.135 A 
HETATM   21  C9  UNL     1      29.502   6.090  47.845  1.00  0.00     0.029 A 
HETATM   22 BR1  UNL     1      31.273   5.398  47.724  1.00  0.00    -0.050 Br
HETATM   23  C10 UNL     1      28.495   5.346  48.472  1.00  0.00     0.039 A 
ENDBRANCH  14  17
ENDBRANCH   1  13
TORSDOF 4
ENDMDL
MODEL 5
REMARK VINA RESULT:      -7.0      2.023      2.686
REMARK  4 active torsions:
REMARK  status: ('A' for Active; 'I' for Inactive)
REMARK    1  A    between atoms: N1_1  and  C1_2 
REMARK    2  A    between atoms: C4_5  and  S1_6 
REMARK    3  A    between atoms: S1_6  and  N2_9 
REMARK       I    between atoms: N2_9  and  C5_10 
REMARK    4  A    between atoms: C5_10  and  C6_12 
ROOT
HETATM    1  S1  UNL     1      25.300   1.585  52.817  1.00  0.00     0.265 S 
HETATM    2  O1  UNL     1      25.383   2.255  51.493  1.00  0.00    -0.200 OA
HETATM    3  O2  UNL     1      25.680   2.596  53.858  1.00  0.00    -0.200 OA
ENDROOT
BRANCH   1   4
HETATM    4  C4  UNL     1      26.417   0.223  52.937  1.00  0.00     0.080 A 
HETATM    5  C3  UNL     1      25.994  -1.034  52.519  1.00  0.00     0.027 A 
HETATM    6  C2  UNL     1      26.809  -2.154  52.581  1.00  0.00     0.030 A 
HETATM    7  C1  UNL     1      28.092  -1.996  53.082  1.00  0.00     0.025 A 
HETATM    8  C12 UNL     1      28.535  -0.756  53.504  1.00  0.00     0.030 A 
HETATM    9  C11 UNL     1      27.706   0.352  53.434  1.00  0.00     0.027 A 
BRANCH   7  10
HETATM   10  N1  UNL     1      28.906  -3.163  53.133  1.00  0.00    -0.399 N 
HETATM   11  H1  UNL     1      28.742  -4.131  52.748  1.00  0.00     0.156 HD
HETATM   12  H2  UNL     1      29.782  -2.946  53.647  1.00  0.00     0.156 HD
ENDBRANCH   7  10
ENDBRANCH   1   4
BRANCH   1  13
HETATM   13  N2  UNL     1      23.724   1.016  53.186  1.00  0.00    -0.246 N 
HETATM   14  C5  UNL     1      22.784   0.938  52.127  1.00  0.00     0.266 C 
HETATM   15  O3  UNL     1      23.192   1.297  50.992  1.00  0.00    -0.267 OA
HETATM   16  H5  UNL     1      23.431   0.733  54.127  1.00  0.00     0.182 HD
BRANCH  14  17
HETATM   17  C6  UNL     1      21.408   0.478  52.272  1.00  0.00     0.051 A 
HETATM   18  C7  UNL     1      21.111  -0.180  53.445  1.00  0.00     0.133 A 
HETATM   19  N3  UNL     1      19.841  -0.639  53.649  1.00  0.00    -0.271 NA
HETATM   20  C8  UNL     1      18.914  -0.432  52.689  1.00  0.00     0.135 A 
HETATM   21  C9  UNL     1      19.178   0.224  51.501  1.00  0.00     0.029 A 
HETATM   22 BR1  UNL     1      17.827   0.486  50.184  1.00  0.00    -0.050 Br
HETATM   23  C10 UNL     1      20.477   0.698  51.283  1.00  0.00     0.039 A 
ENDBRANCH  14  17
ENDBRANCH   1  13
TORSDOF 4
ENDMDL
MODEL 6
REMARK VINA RESULT:      -7.0      4.459      7.773
REMARK  4 active torsions:
REMARK  status: ('A' for Active; 'I' for Inactive)
REMARK    1  A    between atoms: N1_1  and  C1_2 
REMARK    2  A    between atoms: C4_5  and  S1_6 
REMARK    3  A    between atoms: S1_6  and  N2_9 
REMARK       I    between atoms: N2_9  and  C5_10 
REMARK    4  A    between atoms: C5_10  and  C6_12 
ROOT
HETATM    1  S1  UNL     1      20.995  -0.567  54.084  1.00  0.00     0.265 S 
HETATM    2  O1  UNL     1      21.126  -1.918  54.691  1.00  0.00    -0.200 OA
HETATM    3  O2  UNL     1      20.769   0.408  55.201  1.00  0.00    -0.200 OA
ENDROOT
BRANCH   1   4
HETATM    4  C4  UNL     1      19.620  -0.471  52.981  1.00  0.00     0.080 A 
HETATM    5  C3  UNL     1      19.749   0.261  51.806  1.00  0.00     0.027 A 
HETATM    6  C2  UNL     1      18.718   0.388  50.888  1.00  0.00     0.030 A 
HETATM    7  C1  UNL     1      17.518  -0.250  51.168  1.00  0.00     0.025 A 
HETATM    8  C12 UNL     1      17.366  -0.984  52.330  1.00  0.00     0.030 A 
HETATM    9  C11 UNL     1      18.409  -1.098  53.235  1.00  0.00     0.027 A 
BRANCH   7  10
HETATM   10  N1  UNL     1      16.478  -0.104  50.207  1.00  0.00    -0.399 N 
HETATM   11  H1  UNL     1      15.754   0.654  50.092  1.00  0.00     0.156 HD
HETATM   12  H2  UNL     1      16.501  -0.910  49.553  1.00  0.00     0.156 HD
ENDBRANCH   7  10
ENDBRANCH   1   4
BRANCH   1  13
HETATM   13  N2  UNL     1      22.398  -0.074  53.231  1.00  0.00    -0.246 N 
HETATM   14  C5  UNL     1      23.661  -0.369  53.807  1.00  0.00     0.266 C 
HETATM   15  O3  UNL     1      23.641  -0.976  54.909  1.00  0.00    -0.267 OA
HETATM   16  H5  UNL     1      22.371   0.420  52.332  1.00  0.00     0.182 HD
BRANCH  14  17
HETATM   17  C6  UNL     1      24.946  -0.020  53.213  1.00  0.00     0.051 A 
HETATM   18  C7  UNL     1      24.923   0.986  52.271  1.00  0.00     0.133 A 
HETATM   19  N3  UNL     1      26.090   1.365  51.673  1.00  0.00    -0.271 NA
HETATM   20  C8  UNL     1      27.234   0.740  52.026  1.00  0.00     0.135 A 
HETATM   21  C9  UNL     1      27.292  -0.272  52.967  1.00  0.00     0.029 A 
HETATM   22 BR1  UNL     1      28.938  -1.117  53.422  1.00  0.00    -0.050 Br
HETATM   23  C10 UNL     1      26.101  -0.668  53.585  1.00  0.00     0.039 A 
ENDBRANCH  14  17
ENDBRANCH   1  13
TORSDOF 4
ENDMDL
MODEL 7
REMARK VINA RESULT:      -7.0      4.397      7.683
REMARK  4 active torsions:
REMARK  status: ('A' for Active; 'I' for Inactive)
REMARK    1  A    between atoms: N1_1  and  C1_2 
REMARK    2  A    between atoms: C4_5  and  S1_6 
REMARK    3  A    between atoms: S1_6  and  N2_9 
REMARK       I    between atoms: N2_9  and  C5_10 
REMARK    4  A    between atoms: C5_10  and  C6_12 
ROOT
HETATM    1  S1  UNL     1      20.487   1.315  52.269  1.00  0.00     0.265 S 
HETATM    2  O1  UNL     1      20.157   2.630  52.878  1.00  0.00    -0.200 OA
HETATM    3  O2  UNL     1      20.703   1.540  50.802  1.00  0.00    -0.200 OA
ENDROOT
BRANCH   1   4
HETATM    4  C4  UNL     1      19.173   0.152  52.461  1.00  0.00     0.080 A 
HETATM    5  C3  UNL     1      19.301  -0.860  53.407  1.00  0.00     0.027 A 
HETATM    6  C2  UNL     1      18.317  -1.813  53.619  1.00  0.00     0.030 A 
HETATM    7  C1  UNL     1      17.166  -1.738  52.849  1.00  0.00     0.025 A 
HETATM    8  C12 UNL     1      17.015  -0.742  51.902  1.00  0.00     0.030 A 
HETATM    9  C11 UNL     1      18.011   0.201  51.705  1.00  0.00     0.027 A 
BRANCH   7  10
HETATM   10  N1  UNL     1      16.172  -2.729  53.089  1.00  0.00    -0.399 N 
HETATM   11  H1  UNL     1      15.189  -2.638  53.459  1.00  0.00     0.156 HD
HETATM   12  H2  UNL     1      16.552  -3.663  52.835  1.00  0.00     0.156 HD
ENDBRANCH   7  10
ENDBRANCH   1   4
BRANCH   1  13
HETATM   13  N2  UNL     1      21.916   0.616  52.910  1.00  0.00    -0.246 N 
HETATM   14  C5  UNL     1      23.127   1.343  52.773  1.00  0.00     0.266 C 
HETATM   15  O3  UNL     1      23.047   2.452  52.186  1.00  0.00    -0.267 OA
HETATM   16  H5  UNL     1      21.938  -0.294  53.383  1.00  0.00     0.182 HD
BRANCH  14  17
HETATM   17  C6  UNL     1      24.425   0.891  53.261  1.00  0.00     0.051 A 
HETATM   18  C7  UNL     1      24.456  -0.368  53.821  1.00  0.00     0.133 A 
HETATM   19  N3  UNL     1      25.638  -0.855  54.299  1.00  0.00    -0.271 NA
HETATM   20  C8  UNL     1      26.743  -0.085  54.206  1.00  0.00     0.135 A 
HETATM   21  C9  UNL     1      26.747   1.181  53.650  1.00  0.00     0.029 A 
HETATM   22 BR1  UNL     1      28.340   2.221  53.548  1.00  0.00    -0.050 Br
HETATM   23  C10 UNL     1      25.540   1.691  53.158  1.00  0.00     0.039 A 
ENDBRANCH  14  17
ENDBRANCH   1  13
TORSDOF 4
ENDMDL
MODEL 8
REMARK VINA RESULT:      -6.9      4.291      5.673
REMARK  4 active torsions:
REMARK  status: ('A' for Active; 'I' for Inactive)
REMARK    1  A    between atoms: N1_1  and  C1_2 
REMARK    2  A    between atoms: C4_5  and  S1_6 
REMARK    3  A    between atoms: S1_6  and  N2_9 
REMARK       I    between atoms: N2_9  and  C5_10 
REMARK    4  A    between atoms: C5_10  and  C6_12 
ROOT
HETATM    1  S1  UNL     1      25.308   0.950  52.633  1.00  0.00     0.265 S 
HETATM    2  O1  UNL     1      26.238  -0.018  51.994  1.00  0.00    -0.200 OA
HETATM    3  O2  UNL     1      25.999   1.507  53.842  1.00  0.00    -0.200 OA
ENDROOT
BRANCH   1   4
HETATM    4  C4  UNL     1      23.811   0.177  53.160  1.00  0.00     0.080 A 
HETATM    5  C3  UNL     1      22.646   0.400  52.435  1.00  0.00     0.027 A 
HETATM    6  C2  UNL     1      21.429  -0.168  52.782  1.00  0.00     0.030 A 
HETATM    7  C1  UNL     1      21.393  -0.990  53.898  1.00  0.00     0.025 A 
HETATM    8  C12 UNL     1      22.539  -1.228  54.636  1.00  0.00     0.030 A 
HETATM    9  C11 UNL     1      23.745  -0.650  54.272  1.00  0.00     0.027 A 
BRANCH   7  10
HETATM   10  N1  UNL     1      20.132  -1.560  54.231  1.00  0.00    -0.399 N 
HETATM   11  H1  UNL     1      19.614  -2.374  53.804  1.00  0.00     0.156 HD
HETATM   12  H2  UNL     1      19.720  -1.037  55.028  1.00  0.00     0.156 HD
ENDBRANCH   7  10
ENDBRANCH   1   4
BRANCH   1  13
HETATM   13  N2  UNL     1      24.897   2.264  51.609  1.00  0.00    -0.246 N 
HETATM   14  C5  UNL     1      25.956   2.965  50.976  1.00  0.00     0.266 C 
HETATM   15  O3  UNL     1      27.120   2.556  51.223  1.00  0.00    -0.267 OA
HETATM   16  H5  UNL     1      23.933   2.566  51.434  1.00  0.00     0.182 HD
BRANCH  14  17
HETATM   17  C6  UNL     1      25.779   4.101  50.079  1.00  0.00     0.051 A 
HETATM   18  C7  UNL     1      24.476   4.462  49.810  1.00  0.00     0.133 A 
HETATM   19  N3  UNL     1      24.236   5.517  48.978  1.00  0.00    -0.271 NA
HETATM   20  C8  UNL     1      25.287   6.176  48.444  1.00  0.00     0.135 A 
HETATM   21  C9  UNL     1      26.604   5.840  48.693  1.00  0.00     0.029 A 
HETATM   22 BR1  UNL     1      28.046   6.809  47.908  1.00  0.00    -0.050 Br
HETATM   23  C10 UNL     1      26.862   4.760  49.544  1.00  0.00     0.039 A 
ENDBRANCH  14  17
ENDBRANCH   1  13
TORSDOF 4
ENDMDL
MODEL 9
REMARK VINA RESULT:      -6.9      4.006      5.402
REMARK  4 active torsions:
REMARK  status: ('A' for Active; 'I' for Inactive)
REMARK    1  A    between atoms: N1_1  and  C1_2 
REMARK    2  A    between atoms: C4_5  and  S1_6 
REMARK    3  A    between atoms: S1_6  and  N2_9 
REMARK       I    between atoms: N2_9  and  C5_10 
REMARK    4  A    between atoms: C5_10  and  C6_12 
ROOT
HETATM    1  S1  UNL     1      25.529  -0.173  53.411  1.00  0.00     0.265 S 
HETATM    2  O1  UNL     1      26.357  -1.402  53.294  1.00  0.00    -0.200 OA
HETATM    3  O2  UNL     1      26.040   0.604  54.587  1.00  0.00    -0.200 OA
ENDROOT
BRANCH   1   4
HETATM    4  C4  UNL     1      23.828  -0.550  53.696  1.00  0.00     0.080 A 
HETATM    5  C3  UNL     1      22.900  -0.270  52.699  1.00  0.00     0.027 A 
HETATM    6  C2  UNL     1      21.546  -0.533  52.843  1.00  0.00     0.030 A 
HETATM    7  C1  UNL     1      21.120  -1.100  54.035  1.00  0.00     0.025 A 
HETATM    8  C12 UNL     1      22.024  -1.388  55.042  1.00  0.00     0.030 A 
HETATM    9  C11 UNL     1      23.373  -1.116  54.877  1.00  0.00     0.027 A 
BRANCH   7  10
HETATM   10  N1  UNL     1      19.725  -1.361  54.155  1.00  0.00    -0.399 N 
HETATM   11  H1  UNL     1      19.190  -1.906  54.882  1.00  0.00     0.156 HD
HETATM   12  H2  UNL     1      19.224  -0.909  53.365  1.00  0.00     0.156 HD
ENDBRANCH   7  10
ENDBRANCH   1   4
BRANCH   1  13
HETATM   13  N2  UNL     1      25.627   0.838  52.029  1.00  0.00    -0.246 N 
HETATM   14  C5  UNL     1      25.214   2.189  52.168  1.00  0.00     0.266 C 
HETATM   15  O3  UNL     1      24.806   2.532  53.307  1.00  0.00    -0.267 OA
HETATM   16  H5  UNL     1      25.966   0.518  51.116  1.00  0.00     0.182 HD
BRANCH  14  17
HETATM   17  C6  UNL     1      25.234   3.176  51.095  1.00  0.00     0.051 A 
HETATM   18  C7  UNL     1      24.017   3.728  50.759  1.00  0.00     0.133 A 
HETATM   19  N3  UNL     1      23.961   4.660  49.762  1.00  0.00    -0.271 NA
HETATM   20  C8  UNL     1      25.104   5.012  49.137  1.00  0.00     0.135 A 
HETATM   21  C9  UNL     1      26.341   4.479  49.449  1.00  0.00     0.029 A 
HETATM   22 BR1  UNL     1      27.921   5.016  48.530  1.00  0.00    -0.050 Br
HETATM   23  C10 UNL     1      26.410   3.522  50.470  1.00  0.00     0.039 A 
ENDBRANCH  14  17
ENDBRANCH   1  13
TORSDOF 4
ENDMDL
