MODEL 1
REMARK VINA RESULT:      -8.1      0.000      0.000
REMARK  3 active torsions:
REMARK  status: ('A' for Active; 'I' for Inactive)
REMARK    1  A    between atoms: O1_1  and  C1_2 
REMARK    2  A    between atoms: C10_13  and  C11_14 
REMARK    3  A    between atoms: C11_14  and  C12_15 
ROOT
HETATM    1  C1  UNL     1      20.745   0.031  53.305  1.00  0.00     0.066 A 
HETATM    2  C2  UNL     1      20.452   0.223  51.977  1.00  0.00     0.037 A 
HETATM    3  C3  UNL     1      21.330   0.794  51.093  1.00  0.00     0.012 A 
HETATM    4  C4  UNL     1      22.581   1.207  51.530  1.00  0.00    -0.026 A 
HETATM    5  C5  UNL     1      22.852   1.000  52.886  1.00  0.00    -0.022 A 
HETATM    6  C6  UNL     1      21.977   0.425  53.788  1.00  0.00     0.046 A 
HETATM    7  C7  UNL     1      24.243   1.512  53.147  1.00  0.00     0.149 C 
HETATM    8  N1  UNL     1      24.216   2.938  53.380  1.00  0.00    -0.275 NA
HETATM    9  C8  UNL     1      23.611   3.713  52.534  1.00  0.00     0.197 C 
HETATM   10  N2  UNL     1      23.678   3.287  51.181  1.00  0.00    -0.376 N 
HETATM   11  C9  UNL     1      23.799   1.854  50.918  1.00  0.00     0.123 C 
HETATM   12  C10 UNL     1      24.864   1.227  51.794  1.00  0.00     0.046 C 
HETATM   13  H7  UNL     1      23.644   3.954  50.358  1.00  0.00     0.161 HD
ENDROOT
BRANCH  12  14
HETATM   14  C11 UNL     1      26.217   1.831  51.604  1.00  0.00     0.048 C 
BRANCH  14  15
HETATM   15  C12 UNL     1      27.249   1.226  52.484  1.00  0.00    -0.058 A 
HETATM   16  C13 UNL     1      27.395  -0.158  52.555  1.00  0.00     0.007 A 
HETATM   17  C14 UNL     1      28.321  -0.821  53.340  1.00  0.00     0.001 A 
HETATM   18  C15 UNL     1      29.163  -0.022  54.111  1.00  0.00     0.000 A 
HETATM   19  C16 UNL     1      29.048   1.360  54.067  1.00  0.00     0.001 A 
HETATM   20  C17 UNL     1      28.113   1.969  53.273  1.00  0.00     0.007 A 
ENDBRANCH  14  15
ENDBRANCH  12  14
BRANCH   1  21
HETATM   21  O1  UNL     1      19.844  -0.553  54.205  1.00  0.00    -0.361 OA
HETATM   22  H1  UNL     1      20.033  -0.396  55.182  1.00  0.00     0.217 HD
ENDBRANCH   1  21
TORSDOF 3
ENDMDL
MODEL 2
REMARK VINA RESULT:      -7.9      2.533      6.110
REMARK  3 active torsions:
REMARK  status: ('A' for Active; 'I' for Inactive)
REMARK    1  A    between atoms: O1_1  and  C1_2 
REMARK    2  A    between atoms: C10_13  and  C11_14 
REMARK    3  A    between atoms: C11_14  and  C12_15 
ROOT
HETATM    1  C1  UNL     1      28.738  -1.524  53.458  1.00  0.00     0.066 A 
HETATM    2  C2  UNL     1      29.245  -0.525  54.254  1.00  0.00     0.037 A 
HETATM    3  C3  UNL     1      28.629   0.689  54.414  1.00  0.00     0.012 A 
HETATM    4  C4  UNL     1      27.435   0.950  53.755  1.00  0.00    -0.026 A 
HETATM    5  C5  UNL     1      26.943  -0.083  52.951  1.00  0.00    -0.022 A 
HETATM    6  C6  UNL     1      27.553  -1.311  52.781  1.00  0.00     0.046 A 
HETATM    7  C7  UNL     1      25.658   0.403  52.336  1.00  0.00     0.149 C 
HETATM    8  N1  UNL     1      25.934   1.181  51.149  1.00  0.00    -0.275 NA
HETATM    9  C8  UNL     1      26.792   2.152  51.207  1.00  0.00     0.197 C 
HETATM   10  N2  UNL     1      26.831   2.842  52.448  1.00  0.00    -0.376 N 
HETATM   11  C9  UNL     1      26.467   2.102  53.655  1.00  0.00     0.123 C 
HETATM   12  C10 UNL     1      25.188   1.318  53.448  1.00  0.00     0.046 C 
HETATM   13  H7  UNL     1      27.111   3.860  52.539  1.00  0.00     0.161 HD
ENDROOT
BRANCH  12  14
HETATM   14  C11 UNL     1      24.020   2.175  53.083  1.00  0.00     0.048 C 
BRANCH  14  15
HETATM   15  C12 UNL     1      22.823   1.386  52.695  1.00  0.00    -0.058 A 
HETATM   16  C13 UNL     1      22.171   0.586  53.631  1.00  0.00     0.007 A 
HETATM   17  C14 UNL     1      21.051  -0.185  53.376  1.00  0.00     0.001 A 
HETATM   18  C15 UNL     1      20.554  -0.142  52.074  1.00  0.00     0.000 A 
HETATM   19  C16 UNL     1      21.177   0.643  51.114  1.00  0.00     0.001 A 
HETATM   20  C17 UNL     1      22.285   1.389  51.418  1.00  0.00     0.007 A 
ENDBRANCH  14  15
ENDBRANCH  12  14
BRANCH   1  21
HETATM   21  O1  UNL     1      29.372  -2.762  53.297  1.00  0.00    -0.361 OA
HETATM   22  H1  UNL     1      29.809  -3.144  54.122  1.00  0.00     0.217 HD
ENDBRANCH   1  21
TORSDOF 3
ENDMDL
MODEL 3
REMARK VINA RESULT:      -7.7      1.852      2.673
REMARK  3 active torsions:
REMARK  status: ('A' for Active; 'I' for Inactive)
REMARK    1  A    between atoms: O1_1  and  C1_2 
REMARK    2  A    between atoms: C10_13  and  C11_14 
REMARK    3  A    between atoms: C11_14  and  C12_15 
ROOT
HETATM    1  C1  UNL     1      21.461   1.579  49.344  1.00  0.00     0.066 A 
HETATM    2  C2  UNL     1      22.166   2.400  48.498  1.00  0.00     0.037 A 
HETATM    3  C3  UNL     1      23.372   2.959  48.832  1.00  0.00     0.012 A 
HETATM    4  C4  UNL     1      23.933   2.701  50.075  1.00  0.00    -0.026 A 
HETATM    5  C5  UNL     1      23.194   1.862  50.915  1.00  0.00    -0.022 A 
HETATM    6  C6  UNL     1      21.978   1.292  50.591  1.00  0.00     0.046 A 
HETATM    7  C7  UNL     1      23.972   1.714  52.195  1.00  0.00     0.149 C 
HETATM    8  N1  UNL     1      23.697   2.825  53.079  1.00  0.00    -0.275 NA
HETATM    9  C8  UNL     1      23.805   4.039  52.633  1.00  0.00     0.197 C 
HETATM   10  N2  UNL     1      24.824   4.230  51.662  1.00  0.00    -0.376 N 
HETATM   11  C9  UNL     1      25.187   3.094  50.816  1.00  0.00     0.123 C 
HETATM   12  C10 UNL     1      25.376   1.838  51.641  1.00  0.00     0.046 C 
HETATM   13  H7  UNL     1      25.330   5.150  51.523  1.00  0.00     0.161 HD
ENDROOT
BRANCH  12  14
HETATM   14  C11 UNL     1      26.436   1.971  52.686  1.00  0.00     0.048 C 
BRANCH  14  15
HETATM   15  C12 UNL     1      27.224   0.726  52.870  1.00  0.00    -0.058 A 
HETATM   16  C13 UNL     1      28.515   0.777  53.394  1.00  0.00     0.007 A 
HETATM   17  C14 UNL     1      29.331  -0.320  53.606  1.00  0.00     0.001 A 
HETATM   18  C15 UNL     1      28.800  -1.562  53.264  1.00  0.00     0.000 A 
HETATM   19  C16 UNL     1      27.518  -1.653  52.740  1.00  0.00     0.001 A 
HETATM   20  C17 UNL     1      26.749  -0.536  52.548  1.00  0.00     0.007 A 
ENDBRANCH  14  15
ENDBRANCH  12  14
BRANCH   1  21
HETATM   21  O1  UNL     1      20.228   1.011  48.998  1.00  0.00    -0.361 OA
HETATM   22  H1  UNL     1      19.411   1.552  49.236  1.00  0.00     0.217 HD
ENDBRANCH   1  21
TORSDOF 3
ENDMDL
MODEL 4
REMARK VINA RESULT:      -7.6      2.727      3.992
REMARK  3 active torsions:
REMARK  status: ('A' for Active; 'I' for Inactive)
REMARK    1  A    between atoms: O1_1  and  C1_2 
REMARK    2  A    between atoms: C10_13  and  C11_14 
REMARK    3  A    between atoms: C11_14  and  C12_15 
ROOT
HETATM    1  C1  UNL     1      23.963   3.863  49.010  1.00  0.00     0.066 A 
HETATM    2  C2  UNL     1      25.270   4.273  49.124  1.00  0.00     0.037 A 
HETATM    3  C3  UNL     1      26.123   3.792  50.083  1.00  0.00     0.012 A 
HETATM    4  C4  UNL     1      25.676   2.845  50.994  1.00  0.00    -0.026 A 
HETATM    5  C5  UNL     1      24.343   2.446  50.855  1.00  0.00    -0.022 A 
HETATM    6  C6  UNL     1      23.472   2.923  49.893  1.00  0.00     0.046 A 
HETATM    7  C7  UNL     1      24.067   1.428  51.928  1.00  0.00     0.149 C 
HETATM    8  N1  UNL     1      23.729   2.089  53.169  1.00  0.00    -0.275 NA
HETATM    9  C8  UNL     1      24.507   3.019  53.631  1.00  0.00     0.197 C 
HETATM   10  N2  UNL     1      25.889   2.830  53.362  1.00  0.00    -0.376 N 
HETATM   11  C9  UNL     1      26.257   2.084  52.159  1.00  0.00     0.123 C 
HETATM   12  C10 UNL     1      25.446   0.811  52.037  1.00  0.00     0.046 C 
HETATM   13  H7  UNL     1      26.660   3.201  53.986  1.00  0.00     0.161 HD
ENDROOT
BRANCH  12  14
HETATM   14  C11 UNL     1      25.613  -0.111  53.201  1.00  0.00     0.048 C 
BRANCH  14  15
HETATM   15  C12 UNL     1      26.942  -0.772  53.228  1.00  0.00    -0.058 A 
HETATM   16  C13 UNL     1      28.039  -0.132  53.801  1.00  0.00     0.007 A 
HETATM   17  C14 UNL     1      29.316  -0.657  53.880  1.00  0.00     0.001 A 
HETATM   18  C15 UNL     1      29.496  -1.928  53.336  1.00  0.00     0.000 A 
HETATM   19  C16 UNL     1      28.428  -2.598  52.756  1.00  0.00     0.001 A 
HETATM   20  C17 UNL     1      27.181  -2.033  52.704  1.00  0.00     0.007 A 
ENDBRANCH  14  15
ENDBRANCH  12  14
BRANCH   1  21
HETATM   21  O1  UNL     1      23.095   4.358  48.028  1.00  0.00    -0.361 OA
HETATM   22  H1  UNL     1      22.567   3.667  47.518  1.00  0.00     0.217 HD
ENDBRANCH   1  21
TORSDOF 3
ENDMDL
MODEL 5
REMARK VINA RESULT:      -7.6      3.692      6.065
REMARK  3 active torsions:
REMARK  status: ('A' for Active; 'I' for Inactive)
REMARK    1  A    between atoms: O1_1  and  C1_2 
REMARK    2  A    between atoms: C10_13  and  C11_14 
REMARK    3  A    between atoms: C11_14  and  C12_15 
ROOT
HETATM    1  C1  UNL     1      29.783  -1.454  53.725  1.00  0.00     0.066 A 
HETATM    2  C2  UNL     1      29.022  -2.456  53.174  1.00  0.00     0.037 A 
HETATM    3  C3  UNL     1      27.743  -2.261  52.721  1.00  0.00     0.012 A 
HETATM    4  C4  UNL     1      27.164  -1.003  52.807  1.00  0.00    -0.026 A 
HETATM    5  C5  UNL     1      27.961  -0.002  53.372  1.00  0.00    -0.022 A 
HETATM    6  C6  UNL     1      29.251  -0.185  53.833  1.00  0.00     0.046 A 
HETATM    7  C7  UNL     1      27.152   1.267  53.370  1.00  0.00     0.149 C 
HETATM    8  N1  UNL     1      26.290   1.313  54.530  1.00  0.00    -0.275 NA
HETATM    9  C8  UNL     1      25.525   0.300  54.799  1.00  0.00     0.197 C 
HETATM   10  N2  UNL     1      25.031  -0.393  53.661  1.00  0.00    -0.376 N 
HETATM   11  C9  UNL     1      25.841  -0.377  52.444  1.00  0.00     0.123 C 
HETATM   12  C10 UNL     1      26.321   1.024  52.127  1.00  0.00     0.046 C 
HETATM   13  H7  UNL     1      24.110  -0.917  53.654  1.00  0.00     0.161 HD
ENDROOT
BRANCH  12  14
HETATM   14  C11 UNL     1      25.208   2.002  51.934  1.00  0.00     0.048 C 
BRANCH  14  15
HETATM   15  C12 UNL     1      25.535   3.061  50.946  1.00  0.00    -0.058 A 
HETATM   16  C13 UNL     1      24.712   4.176  50.807  1.00  0.00     0.007 A 
HETATM   17  C14 UNL     1      24.925   5.217  49.921  1.00  0.00     0.001 A 
HETATM   18  C15 UNL     1      26.058   5.121  49.115  1.00  0.00     0.000 A 
HETATM   19  C16 UNL     1      26.903   4.025  49.225  1.00  0.00     0.001 A 
HETATM   20  C17 UNL     1      26.647   3.020  50.119  1.00  0.00     0.007 A 
ENDBRANCH  14  15
ENDBRANCH  12  14
BRANCH   1  21
HETATM   21  O1  UNL     1      31.089  -1.659  54.187  1.00  0.00    -0.361 OA
HETATM   22  H1  UNL     1      31.684  -0.845  54.203  1.00  0.00     0.217 HD
ENDBRANCH   1  21
TORSDOF 3
ENDMDL
MODEL 6
REMARK VINA RESULT:      -7.3      2.852      5.602
REMARK  3 active torsions:
REMARK  status: ('A' for Active; 'I' for Inactive)
REMARK    1  A    between atoms: O1_1  and  C1_2 
REMARK    2  A    between atoms: C10_13  and  C11_14 
REMARK    3  A    between atoms: C11_14  and  C12_15 
ROOT
HETATM    1  C1  UNL     1      25.180   5.150  50.075  1.00  0.00     0.066 A 
HETATM    2  C2  UNL     1      26.142   4.469  49.369  1.00  0.00     0.037 A 
HETATM    3  C3  UNL     1      26.564   3.209  49.705  1.00  0.00     0.012 A 
HETATM    4  C4  UNL     1      26.012   2.565  50.803  1.00  0.00    -0.026 A 
HETATM    5  C5  UNL     1      25.036   3.281  51.503  1.00  0.00    -0.022 A 
HETATM    6  C6  UNL     1      24.601   4.551  51.175  1.00  0.00     0.046 A 
HETATM    7  C7  UNL     1      24.574   2.412  52.642  1.00  0.00     0.149 C 
HETATM    8  N1  UNL     1      25.469   2.548  53.769  1.00  0.00    -0.275 NA
HETATM    9  C8  UNL     1      26.747   2.406  53.593  1.00  0.00     0.197 C 
HETATM   10  N2  UNL     1      27.110   1.460  52.598  1.00  0.00    -0.376 N 
HETATM   11  C9  UNL     1      26.179   1.234  51.494  1.00  0.00     0.123 C 
HETATM   12  C10 UNL     1      24.764   1.052  52.001  1.00  0.00     0.046 C 
HETATM   13  H7  UNL     1      28.018   0.914  52.619  1.00  0.00     0.161 HD
ENDROOT
BRANCH  12  14
HETATM   14  C11 UNL     1      24.618  -0.095  52.947  1.00  0.00     0.048 C 
BRANCH  14  15
HETATM   15  C12 UNL     1      23.204  -0.368  53.310  1.00  0.00    -0.058 A 
HETATM   16  C13 UNL     1      22.170  -0.004  52.450  1.00  0.00     0.007 A 
HETATM   17  C14 UNL     1      20.824  -0.212  52.690  1.00  0.00     0.001 A 
HETATM   18  C15 UNL     1      20.500  -0.838  53.893  1.00  0.00     0.000 A 
HETATM   19  C16 UNL     1      21.502  -1.216  54.776  1.00  0.00     0.001 A 
HETATM   20  C17 UNL     1      22.822  -0.986  54.490  1.00  0.00     0.007 A 
ENDBRANCH  14  15
ENDBRANCH  12  14
BRANCH   1  21
HETATM   21  O1  UNL     1      24.752   6.438  49.727  1.00  0.00    -0.361 OA
HETATM   22  H1  UNL     1      24.180   6.911  50.409  1.00  0.00     0.217 HD
ENDBRANCH   1  21
TORSDOF 3
ENDMDL
MODEL 7
REMARK VINA RESULT:      -7.3      2.629      4.911
REMARK  3 active torsions:
REMARK  status: ('A' for Active; 'I' for Inactive)
REMARK    1  A    between atoms: O1_1  and  C1_2 
REMARK    2  A    between atoms: C10_13  and  C11_14 
REMARK    3  A    between atoms: C11_14  and  C12_15 
ROOT
HETATM    1  C1  UNL     1      22.241  -0.829  54.474  1.00  0.00     0.066 A 
HETATM    2  C2  UNL     1      21.125  -0.043  54.320  1.00  0.00     0.037 A 
HETATM    3  C3  UNL     1      21.098   1.068  53.517  1.00  0.00     0.012 A 
HETATM    4  C4  UNL     1      22.234   1.439  52.812  1.00  0.00    -0.026 A 
HETATM    5  C5  UNL     1      23.355   0.621  52.988  1.00  0.00    -0.022 A 
HETATM    6  C6  UNL     1      23.396  -0.500  53.794  1.00  0.00     0.046 A 
HETATM    7  C7  UNL     1      24.463   1.195  52.146  1.00  0.00     0.149 C 
HETATM    8  N1  UNL     1      25.137   2.255  52.861  1.00  0.00    -0.275 NA
HETATM    9  C8  UNL     1      24.440   3.214  53.389  1.00  0.00     0.197 C 
HETATM   10  N2  UNL     1      23.272   3.572  52.664  1.00  0.00    -0.376 N 
HETATM   11  C9  UNL     1      22.622   2.540  51.858  1.00  0.00     0.123 C 
HETATM   12  C10 UNL     1      23.634   1.783  51.023  1.00  0.00     0.046 C 
HETATM   13  H7  UNL     1      22.853   4.545  52.681  1.00  0.00     0.161 HD
ENDROOT
BRANCH  12  14
HETATM   14  C11 UNL     1      24.404   2.659  50.088  1.00  0.00     0.048 C 
BRANCH  14  15
HETATM   15  C12 UNL     1      23.555   3.258  49.027  1.00  0.00    -0.058 A 
HETATM   16  C13 UNL     1      22.741   2.453  48.233  1.00  0.00     0.007 A 
HETATM   17  C14 UNL     1      21.915   2.908  47.221  1.00  0.00     0.001 A 
HETATM   18  C15 UNL     1      21.913   4.284  46.997  1.00  0.00     0.000 A 
HETATM   19  C16 UNL     1      22.710   5.119  47.768  1.00  0.00     0.001 A 
HETATM   20  C17 UNL     1      23.512   4.617  48.759  1.00  0.00     0.007 A 
ENDBRANCH  14  15
ENDBRANCH  12  14
BRANCH   1  21
HETATM   21  O1  UNL     1      22.263  -1.963  55.296  1.00  0.00    -0.361 OA
HETATM   22  H1  UNL     1      22.915  -1.936  56.066  1.00  0.00     0.217 HD
ENDBRANCH   1  21
TORSDOF 3
ENDMDL
MODEL 8
REMARK VINA RESULT:      -7.2      2.998      4.535
REMARK  3 active torsions:
REMARK  status: ('A' for Active; 'I' for Inactive)
REMARK    1  A    between atoms: O1_1  and  C1_2 
REMARK    2  A    between atoms: C10_13  and  C11_14 
REMARK    3  A    between atoms: C11_14  and  C12_15 
ROOT
HETATM    1  C1  UNL     1      24.836  -0.117  53.962  1.00  0.00     0.066 A 
HETATM    2  C2  UNL     1      23.681  -0.681  53.478  1.00  0.00     0.037 A 
HETATM    3  C3  UNL     1      22.896  -0.080  52.528  1.00  0.00     0.012 A 
HETATM    4  C4  UNL     1      23.260   1.156  52.012  1.00  0.00    -0.026 A 
HETATM    5  C5  UNL     1      24.439   1.707  52.523  1.00  0.00    -0.022 A 
HETATM    6  C6  UNL     1      25.240   1.112  53.480  1.00  0.00     0.046 A 
HETATM    7  C7  UNL     1      24.648   3.030  51.838  1.00  0.00     0.149 C 
HETATM    8  N1  UNL     1      23.888   4.064  52.504  1.00  0.00    -0.275 NA
HETATM    9  C8  UNL     1      22.624   3.880  52.737  1.00  0.00     0.197 C 
HETATM   10  N2  UNL     1      21.941   3.117  51.753  1.00  0.00    -0.376 N 
HETATM   11  C9  UNL     1      22.709   2.127  50.998  1.00  0.00     0.123 C 
HETATM   12  C10 UNL     1      24.013   2.713  50.499  1.00  0.00     0.046 C 
HETATM   13  H7  UNL     1      20.909   3.230  51.542  1.00  0.00     0.161 HD
ENDROOT
BRANCH  12  14
HETATM   14  C11 UNL     1      23.827   3.902  49.613  1.00  0.00     0.048 C 
BRANCH  14  15
HETATM   15  C12 UNL     1      25.110   4.543  49.231  1.00  0.00    -0.058 A 
HETATM   16  C13 UNL     1      25.147   5.887  48.864  1.00  0.00     0.007 A 
HETATM   17  C14 UNL     1      26.286   6.579  48.492  1.00  0.00     0.001 A 
HETATM   18  C15 UNL     1      27.477   5.856  48.493  1.00  0.00     0.000 A 
HETATM   19  C16 UNL     1      27.481   4.516  48.853  1.00  0.00     0.001 A 
HETATM   20  C17 UNL     1      26.325   3.876  49.213  1.00  0.00     0.007 A 
ENDBRANCH  14  15
ENDBRANCH  12  14
BRANCH   1  21
HETATM   21  O1  UNL     1      25.634  -0.735  54.933  1.00  0.00    -0.361 OA
HETATM   22  H1  UNL     1      26.195  -0.119  55.500  1.00  0.00     0.217 HD
ENDBRANCH   1  21
TORSDOF 3
ENDMDL
MODEL 9
REMARK VINA RESULT:      -7.2      3.446      5.414
REMARK  3 active torsions:
REMARK  status: ('A' for Active; 'I' for Inactive)
REMARK    1  A    between atoms: O1_1  and  C1_2 
REMARK    2  A    between atoms: C10_13  and  C11_14 
REMARK    3  A    between atoms: C11_14  and  C12_15 
ROOT
HETATM    1  C1  UNL     1      27.404   0.010  54.255  1.00  0.00     0.066 A 
HETATM    2  C2  UNL     1      27.139  -0.862  53.227  1.00  0.00     0.037 A 
HETATM    3  C3  UNL     1      26.419  -0.511  52.115  1.00  0.00     0.012 A 
HETATM    4  C4  UNL     1      25.923   0.779  51.993  1.00  0.00    -0.026 A 
HETATM    5  C5  UNL     1      26.207   1.646  53.053  1.00  0.00    -0.022 A 
HETATM    6  C6  UNL     1      26.931   1.305  54.179  1.00  0.00     0.046 A 
HETATM    7  C7  UNL     1      25.584   2.976  52.723  1.00  0.00     0.149 C 
HETATM    8  N1  UNL     1      24.190   2.984  53.103  1.00  0.00    -0.275 NA
HETATM    9  C8  UNL     1      23.413   2.021  52.709  1.00  0.00     0.197 C 
HETATM   10  N2  UNL     1      23.725   1.490  51.429  1.00  0.00    -0.376 N 
HETATM   11  C9  UNL     1      25.115   1.553  50.980  1.00  0.00     0.123 C 
HETATM   12  C10 UNL     1      25.701   2.930  51.213  1.00  0.00     0.046 C 
HETATM   13  H7  UNL     1      23.002   1.053  50.789  1.00  0.00     0.161 HD
ENDROOT
BRANCH  12  14
HETATM   14  C11 UNL     1      24.957   4.017  50.509  1.00  0.00     0.048 C 
BRANCH  14  15
HETATM   15  C12 UNL     1      25.832   4.852  49.648  1.00  0.00    -0.058 A 
HETATM   16  C13 UNL     1      25.409   6.107  49.215  1.00  0.00     0.007 A 
HETATM   17  C14 UNL     1      26.144   6.963  48.415  1.00  0.00     0.001 A 
HETATM   18  C15 UNL     1      27.404   6.514  48.023  1.00  0.00     0.000 A 
HETATM   19  C16 UNL     1      27.861   5.270  48.434  1.00  0.00     0.001 A 
HETATM   20  C17 UNL     1      27.093   4.459  49.228  1.00  0.00     0.007 A 
ENDBRANCH  14  15
ENDBRANCH  12  14
BRANCH   1  21
HETATM   21  O1  UNL     1      28.141  -0.355  55.389  1.00  0.00    -0.361 OA
HETATM   22  H1  UNL     1      28.860   0.292  55.674  1.00  0.00     0.217 HD
ENDBRANCH   1  21
TORSDOF 3
ENDMDL
