MODEL 1
REMARK VINA RESULT:      -8.8      0.000      0.000
REMARK  5 active torsions:
REMARK  status: ('A' for Active; 'I' for Inactive)
REMARK    1  A    between atoms: O1_2  and  C2_3 
REMARK    2  A    between atoms: C6_7  and  C7_8 
REMARK    3  A    between atoms: C9_10  and  C10_11 
REMARK    4  A    between atoms: P1_19  and  C15_20 
REMARK    5  A    between atoms: C16_22  and  O2_23 
ROOT
HETATM    1  C7  UNL     1      22.834   0.908  53.309  1.00  0.00     0.081 C 
HETATM    2  C8  UNL     1      23.778  -0.219  53.652  1.00  0.00     0.073 C 
HETATM    3  C9  UNL     1      25.136   0.162  53.171  1.00  0.00     0.041 C 
HETATM    4  N2  UNL     1      25.309   1.002  52.221  1.00  0.00    -0.260 NA
HETATM    5  P1  UNL     1      23.658   1.487  51.745  1.00  0.00     0.079 P 
ENDROOT
BRANCH   1   6
HETATM    6  C6  UNL     1      21.447   0.456  53.104  1.00  0.00    -0.041 A 
HETATM    7  C5  UNL     1      21.034  -0.670  53.918  1.00  0.00     0.010 A 
HETATM    8  C4  UNL     1      19.805  -1.131  53.791  1.00  0.00     0.021 A 
HETATM    9  C3  UNL     1      18.728  -0.682  52.925  1.00  0.00     0.026 A 
HETATM   10  C2  UNL     1      17.546  -1.251  52.912  1.00  0.00     0.152 C 
HETATM   11  S2  UNL     1      19.081   0.706  51.853  1.00  0.00    -0.100 SA
HETATM   12  C18 UNL     1      20.776   1.136  52.211  1.00  0.00     0.058 A 
BRANCH  10  13
HETATM   13  O1  UNL     1      16.561  -0.770  52.060  1.00  0.00    -0.366 OA
HETATM   14  C1  UNL     1      15.426  -0.166  52.651  1.00  0.00     0.209 C 
ENDBRANCH  10  13
ENDBRANCH   1   6
BRANCH   5  15
HETATM   15  C15 UNL     1      23.605   3.272  51.516  1.00  0.00     0.127 A 
HETATM   16  N3  UNL     1      24.019   4.353  52.098  1.00  0.00    -0.215 NA
HETATM   17  C16 UNL     1      23.706   5.503  51.499  1.00  0.00     0.169 A 
HETATM   18  C17 UNL     1      22.911   5.630  50.205  1.00  0.00     0.109 A 
HETATM   19  S1  UNL     1      22.661   3.765  49.951  1.00  0.00    -0.075 SA
BRANCH  17  20
HETATM   20  O2  UNL     1      24.230   6.568  52.261  1.00  0.00    -0.344 OA
HETATM   21  H13 UNL     1      24.807   7.268  51.832  1.00  0.00     0.219 HD
ENDBRANCH  17  20
ENDBRANCH   5  15
BRANCH   3  22
HETATM   22  C10 UNL     1      26.343  -0.469  53.826  1.00  0.00     0.179 C 
HETATM   23  C11 UNL     1      26.983  -1.435  52.864  1.00  0.00     0.009 C 
HETATM   24  C12 UNL     1      28.306  -1.494  52.817  1.00  0.00     0.043 C 
HETATM   25  C13 UNL     1      29.069  -0.615  53.705  1.00  0.00     0.146 C 
HETATM   26  F1  UNL     1      30.415  -0.843  53.855  1.00  0.00    -0.204 F 
HETATM   27  C14 UNL     1      28.521   0.375  54.357  1.00  0.00     0.122 C 
HETATM   28  N1  UNL     1      27.291   0.560  54.209  1.00  0.00    -0.269 NA
ENDBRANCH   3  22
TORSDOF 5
ENDMDL
MODEL 2
REMARK VINA RESULT:      -8.5      3.126      7.012
REMARK  5 active torsions:
REMARK  status: ('A' for Active; 'I' for Inactive)
REMARK    1  A    between atoms: O1_2  and  C2_3 
REMARK    2  A    between atoms: C6_7  and  C7_8 
REMARK    3  A    between atoms: C9_10  and  C10_11 
REMARK    4  A    between atoms: P1_19  and  C15_20 
REMARK    5  A    between atoms: C16_22  and  O2_23 
ROOT
HETATM    1  C7  UNL     1      25.735   2.673  50.769  1.00  0.00     0.081 C 
HETATM    2  C8  UNL     1      26.771   2.370  51.824  1.00  0.00     0.073 C 
HETATM    3  C9  UNL     1      26.131   1.508  52.857  1.00  0.00     0.041 C 
HETATM    4  N2  UNL     1      24.865   1.501  53.047  1.00  0.00    -0.260 NA
HETATM    5  P1  UNL     1      24.227   2.671  51.860  1.00  0.00     0.079 P 
ENDROOT
BRANCH   1   6
HETATM    6  C6  UNL     1      25.962   3.961  50.091  1.00  0.00    -0.041 A 
HETATM    7  C5  UNL     1      27.124   4.011  49.227  1.00  0.00     0.010 A 
HETATM    8  C4  UNL     1      27.393   5.130  48.584  1.00  0.00     0.021 A 
HETATM    9  C3  UNL     1      26.685   6.399  48.592  1.00  0.00     0.026 A 
HETATM   10  C2  UNL     1      27.082   7.435  47.891  1.00  0.00     0.152 C 
HETATM   11  S2  UNL     1      25.221   6.500  49.615  1.00  0.00    -0.100 SA
HETATM   12  C18 UNL     1      25.079   4.886  50.363  1.00  0.00     0.058 A 
BRANCH  10  13
HETATM   13  O1  UNL     1      26.358   8.619  47.943  1.00  0.00    -0.366 OA
HETATM   14  C1  UNL     1      26.998   9.750  48.502  1.00  0.00     0.209 C 
ENDBRANCH  10  13
ENDBRANCH   1   6
BRANCH   5  15
HETATM   15  C15 UNL     1      22.763   1.982  51.071  1.00  0.00     0.127 A 
HETATM   16  N3  UNL     1      22.196   1.944  49.907  1.00  0.00    -0.215 NA
HETATM   17  C16 UNL     1      21.053   1.262  49.829  1.00  0.00     0.169 A 
HETATM   18  C17 UNL     1      20.381   0.540  50.992  1.00  0.00     0.109 A 
HETATM   19  S1  UNL     1      21.691   1.001  52.285  1.00  0.00    -0.075 SA
BRANCH  17  20
HETATM   20  O2  UNL     1      20.578   1.323  48.502  1.00  0.00    -0.344 OA
HETATM   21  H13 UNL     1      21.216   1.440  47.736  1.00  0.00     0.219 HD
ENDBRANCH  17  20
ENDBRANCH   5  15
BRANCH   3  22
HETATM   22  C10 UNL     1      27.009   0.618  53.707  1.00  0.00     0.179 C 
HETATM   23  C11 UNL     1      27.159  -0.721  53.033  1.00  0.00     0.009 C 
HETATM   24  C12 UNL     1      28.342  -1.317  53.073  1.00  0.00     0.043 C 
HETATM   25  C13 UNL     1      29.434  -0.638  53.772  1.00  0.00     0.146 C 
HETATM   26  F1  UNL     1      30.579  -1.347  54.044  1.00  0.00    -0.204 F 
HETATM   27  C14 UNL     1      29.364   0.611  54.144  1.00  0.00     0.122 C 
HETATM   28  N1  UNL     1      28.308   1.236  53.890  1.00  0.00    -0.269 NA
ENDBRANCH   3  22
TORSDOF 5
ENDMDL
MODEL 3
REMARK VINA RESULT:      -8.4      1.777      1.888
REMARK  5 active torsions:
REMARK  status: ('A' for Active; 'I' for Inactive)
REMARK    1  A    between atoms: O1_2  and  C2_3 
REMARK    2  A    between atoms: C6_7  and  C7_8 
REMARK    3  A    between atoms: C9_10  and  C10_11 
REMARK    4  A    between atoms: P1_19  and  C15_20 
REMARK    5  A    between atoms: C16_22  and  O2_23 
ROOT
HETATM    1  C7  UNL     1      23.451   2.296  52.579  1.00  0.00     0.081 C 
HETATM    2  C8  UNL     1      24.242   1.111  53.077  1.00  0.00     0.073 C 
HETATM    3  C9  UNL     1      25.683   1.376  52.803  1.00  0.00     0.041 C 
HETATM    4  N2  UNL     1      26.062   2.177  51.879  1.00  0.00    -0.260 NA
HETATM    5  P1  UNL     1      24.545   2.772  51.151  1.00  0.00     0.079 P 
ENDROOT
BRANCH   1   6
HETATM    6  C6  UNL     1      22.080   1.945  52.171  1.00  0.00    -0.041 A 
HETATM    7  C5  UNL     1      21.902   0.585  51.703  1.00  0.00     0.010 A 
HETATM    8  C4  UNL     1      20.702   0.195  51.320  1.00  0.00     0.021 A 
HETATM    9  C3  UNL     1      19.452   0.936  51.283  1.00  0.00     0.026 A 
HETATM   10  C2  UNL     1      18.326   0.403  50.871  1.00  0.00     0.152 C 
HETATM   11  S2  UNL     1      19.506   2.637  51.832  1.00  0.00    -0.100 SA
HETATM   12  C18 UNL     1      21.209   2.913  52.288  1.00  0.00     0.058 A 
BRANCH  10  13
HETATM   13  O1  UNL     1      17.166   1.167  50.862  1.00  0.00    -0.366 OA
HETATM   14  C1  UNL     1      16.101   0.744  51.691  1.00  0.00     0.209 C 
ENDBRANCH  10  13
ENDBRANCH   1   6
BRANCH   5  15
HETATM   15  C15 UNL     1      24.667   4.549  50.891  1.00  0.00     0.127 A 
HETATM   16  N3  UNL     1      24.183   5.651  51.372  1.00  0.00    -0.215 NA
HETATM   17  C16 UNL     1      24.610   6.780  50.805  1.00  0.00     0.169 A 
HETATM   18  C17 UNL     1      25.606   6.862  49.654  1.00  0.00     0.109 A 
HETATM   19  S1  UNL     1      25.861   4.988  49.489  1.00  0.00    -0.075 SA
BRANCH  17  20
HETATM   20  O2  UNL     1      23.988   7.872  51.447  1.00  0.00    -0.344 OA
HETATM   21  H13 UNL     1      24.333   8.212  52.325  1.00  0.00     0.219 HD
ENDBRANCH  17  20
ENDBRANCH   5  15
BRANCH   3  22
HETATM   22  C10 UNL     1      26.724   0.673  53.644  1.00  0.00     0.179 C 
HETATM   23  C11 UNL     1      26.949  -0.713  53.100  1.00  0.00     0.009 C 
HETATM   24  C12 UNL     1      28.186  -1.188  53.078  1.00  0.00     0.043 C 
HETATM   25  C13 UNL     1      29.262  -0.336  53.584  1.00  0.00     0.146 C 
HETATM   26  F1  UNL     1      30.495  -0.900  53.807  1.00  0.00    -0.204 F 
HETATM   27  C14 UNL     1      29.098   0.936  53.831  1.00  0.00     0.122 C 
HETATM   28  N1  UNL     1      27.963   1.426  53.625  1.00  0.00    -0.269 NA
ENDBRANCH   3  22
TORSDOF 5
ENDMDL
MODEL 4
REMARK VINA RESULT:      -7.8      2.190      5.822
REMARK  5 active torsions:
REMARK  status: ('A' for Active; 'I' for Inactive)
REMARK    1  A    between atoms: O1_2  and  C2_3 
REMARK    2  A    between atoms: C6_7  and  C7_8 
REMARK    3  A    between atoms: C9_10  and  C10_11 
REMARK    4  A    between atoms: P1_19  and  C15_20 
REMARK    5  A    between atoms: C16_22  and  O2_23 
ROOT
HETATM    1  C7  UNL     1      24.312   2.101  51.223  1.00  0.00     0.081 C 
HETATM    2  C8  UNL     1      25.820   2.121  51.280  1.00  0.00     0.073 C 
HETATM    3  C9  UNL     1      26.247   1.207  52.377  1.00  0.00     0.041 C 
HETATM    4  N2  UNL     1      25.478   0.919  53.360  1.00  0.00    -0.260 NA
HETATM    5  P1  UNL     1      23.974   1.824  53.031  1.00  0.00     0.079 P 
ENDROOT
BRANCH   1   6
HETATM    6  C6  UNL     1      23.737   3.355  50.708  1.00  0.00    -0.041 A 
HETATM    7  C5  UNL     1      23.357   3.336  49.310  1.00  0.00     0.010 A 
HETATM    8  C4  UNL     1      22.834   4.423  48.776  1.00  0.00     0.021 A 
HETATM    9  C3  UNL     1      22.557   5.714  49.382  1.00  0.00     0.026 A 
HETATM   10  C2  UNL     1      22.028   6.711  48.711  1.00  0.00     0.152 C 
HETATM   11  S2  UNL     1      22.972   5.900  51.111  1.00  0.00    -0.100 SA
HETATM   12  C18 UNL     1      23.649   4.319  51.588  1.00  0.00     0.058 A 
BRANCH  10  13
HETATM   13  O1  UNL     1      21.788   7.919  49.352  1.00  0.00    -0.366 OA
HETATM   14  C1  UNL     1      21.695   9.077  48.545  1.00  0.00     0.209 C 
ENDBRANCH  10  13
ENDBRANCH   1   6
BRANCH   5  15
HETATM   15  C15 UNL     1      22.558   0.760  53.350  1.00  0.00     0.127 A 
HETATM   16  N3  UNL     1      22.228  -0.243  54.101  1.00  0.00    -0.215 NA
HETATM   17  C16 UNL     1      20.985  -0.705  53.958  1.00  0.00     0.169 A 
HETATM   18  C17 UNL     1      19.948  -0.146  52.990  1.00  0.00     0.109 A 
HETATM   19  S1  UNL     1      21.067   1.211  52.276  1.00  0.00    -0.075 SA
BRANCH  17  20
HETATM   20  O2  UNL     1      20.799  -1.787  54.844  1.00  0.00    -0.344 OA
HETATM   21  H13 UNL     1      21.008  -1.689  55.821  1.00  0.00     0.219 HD
ENDBRANCH  17  20
ENDBRANCH   5  15
BRANCH   3  22
HETATM   22  C10 UNL     1      27.633   0.607  52.325  1.00  0.00     0.179 C 
HETATM   23  C11 UNL     1      28.540   1.370  53.254  1.00  0.00     0.009 C 
HETATM   24  C12 UNL     1      29.430   0.692  53.965  1.00  0.00     0.043 C 
HETATM   25  C13 UNL     1      29.478  -0.763  53.805  1.00  0.00     0.146 C 
HETATM   26  F1  UNL     1      30.549  -1.445  54.329  1.00  0.00    -0.204 F 
HETATM   27  C14 UNL     1      28.544  -1.435  53.187  1.00  0.00     0.122 C 
HETATM   28  N1  UNL     1      27.580  -0.790  52.713  1.00  0.00    -0.269 NA
ENDBRANCH   3  22
TORSDOF 5
ENDMDL
MODEL 5
REMARK VINA RESULT:      -7.8      3.700      4.340
REMARK  5 active torsions:
REMARK  status: ('A' for Active; 'I' for Inactive)
REMARK    1  A    between atoms: O1_2  and  C2_3 
REMARK    2  A    between atoms: C6_7  and  C7_8 
REMARK    3  A    between atoms: C9_10  and  C10_11 
REMARK    4  A    between atoms: P1_19  and  C15_20 
REMARK    5  A    between atoms: C16_22  and  O2_23 
ROOT
HETATM    1  C7  UNL     1      24.613   3.570  50.968  1.00  0.00     0.081 C 
HETATM    2  C8  UNL     1      24.898   2.361  51.825  1.00  0.00     0.073 C 
HETATM    3  C9  UNL     1      26.372   2.139  51.825  1.00  0.00     0.041 C 
HETATM    4  N2  UNL     1      27.122   2.564  50.877  1.00  0.00    -0.260 NA
HETATM    5  P1  UNL     1      26.003   3.374  49.747  1.00  0.00     0.079 P 
ENDROOT
BRANCH   1   6
HETATM    6  C6  UNL     1      23.279   3.532  50.344  1.00  0.00    -0.041 A 
HETATM    7  C5  UNL     1      23.209   2.841  49.072  1.00  0.00     0.010 A 
HETATM    8  C4  UNL     1      22.048   2.765  48.451  1.00  0.00     0.021 A 
HETATM    9  C3  UNL     1      20.748   3.285  48.843  1.00  0.00     0.026 A 
HETATM   10  C2  UNL     1      19.673   3.126  48.109  1.00  0.00     0.152 C 
HETATM   11  S2  UNL     1      20.668   4.168  50.397  1.00  0.00    -0.100 SA
HETATM   12  C18 UNL     1      22.338   4.131  51.026  1.00  0.00     0.058 A 
BRANCH  10  13
HETATM   13  O1  UNL     1      18.461   3.648  48.544  1.00  0.00    -0.366 OA
HETATM   14  C1  UNL     1      17.364   2.760  48.634  1.00  0.00     0.209 C 
ENDBRANCH  10  13
ENDBRANCH   1   6
BRANCH   5  15
HETATM   15  C15 UNL     1      26.724   4.934  49.212  1.00  0.00     0.127 A 
HETATM   16  N3  UNL     1      27.766   5.373  48.580  1.00  0.00    -0.215 NA
HETATM   17  C16 UNL     1      27.852   6.695  48.428  1.00  0.00     0.169 A 
HETATM   18  C17 UNL     1      26.830   7.704  48.938  1.00  0.00     0.109 A 
HETATM   19  S1  UNL     1      25.662   6.421  49.708  1.00  0.00    -0.075 SA
BRANCH  17  20
HETATM   20  O2  UNL     1      29.037   6.994  47.724  1.00  0.00    -0.344 OA
HETATM   21  H13 UNL     1      29.094   7.810  47.143  1.00  0.00     0.219 HD
ENDBRANCH  17  20
ENDBRANCH   5  15
BRANCH   3  22
HETATM   22  C10 UNL     1      26.995   1.389  52.979  1.00  0.00     0.179 C 
HETATM   23  C11 UNL     1      26.827  -0.092  52.757  1.00  0.00     0.009 C 
HETATM   24  C12 UNL     1      27.829  -0.895  53.082  1.00  0.00     0.043 C 
HETATM   25  C13 UNL     1      29.043  -0.296  53.639  1.00  0.00     0.146 C 
HETATM   26  F1  UNL     1      29.977  -1.122  54.214  1.00  0.00    -0.204 F 
HETATM   27  C14 UNL     1      29.272   0.990  53.608  1.00  0.00     0.122 C 
HETATM   28  N1  UNL     1      28.403   1.723  53.083  1.00  0.00    -0.269 NA
ENDBRANCH   3  22
TORSDOF 5
ENDMDL
MODEL 6
REMARK VINA RESULT:      -7.8      4.695      8.921
REMARK  5 active torsions:
REMARK  status: ('A' for Active; 'I' for Inactive)
REMARK    1  A    between atoms: O1_2  and  C2_3 
REMARK    2  A    between atoms: C6_7  and  C7_8 
REMARK    3  A    between atoms: C9_10  and  C10_11 
REMARK    4  A    between atoms: P1_19  and  C15_20 
REMARK    5  A    between atoms: C16_22  and  O2_23 
ROOT
HETATM    1  C7  UNL     1      25.183   4.222  50.767  1.00  0.00     0.081 C 
HETATM    2  C8  UNL     1      23.800   3.971  50.217  1.00  0.00     0.073 C 
HETATM    3  C9  UNL     1      23.351   2.636  50.704  1.00  0.00     0.041 C 
HETATM    4  N2  UNL     1      24.181   1.724  51.050  1.00  0.00    -0.260 NA
HETATM    5  P1  UNL     1      25.787   2.462  50.799  1.00  0.00     0.079 P 
ENDROOT
BRANCH   1   6
HETATM    6  C6  UNL     1      25.995   5.101  49.907  1.00  0.00    -0.041 A 
HETATM    7  C5  UNL     1      27.091   4.452  49.216  1.00  0.00     0.010 A 
HETATM    8  C4  UNL     1      27.863   5.174  48.427  1.00  0.00     0.021 A 
HETATM    9  C3  UNL     1      27.803   6.591  48.112  1.00  0.00     0.026 A 
HETATM   10  C2  UNL     1      28.654   7.171  47.299  1.00  0.00     0.152 C 
HETATM   11  S2  UNL     1      26.499   7.536  48.890  1.00  0.00    -0.100 SA
HETATM   12  C18 UNL     1      25.612   6.351  49.887  1.00  0.00     0.058 A 
BRANCH  10  13
HETATM   13  O1  UNL     1      28.539   8.531  47.040  1.00  0.00    -0.366 OA
HETATM   14  C1  UNL     1      28.258   8.919  45.709  1.00  0.00     0.209 C 
ENDBRANCH  10  13
ENDBRANCH   1   6
BRANCH   5  15
HETATM   15  C15 UNL     1      26.842   2.083  52.207  1.00  0.00     0.127 A 
HETATM   16  N3  UNL     1      27.938   2.500  52.758  1.00  0.00    -0.215 NA
HETATM   17  C16 UNL     1      28.333   1.851  53.854  1.00  0.00     0.169 A 
HETATM   18  C17 UNL     1      27.599   0.676  54.489  1.00  0.00     0.109 A 
HETATM   19  S1  UNL     1      26.184   0.629  53.225  1.00  0.00    -0.075 SA
BRANCH  17  20
HETATM   20  O2  UNL     1      29.532   2.433  54.317  1.00  0.00    -0.344 OA
HETATM   21  H13 UNL     1      30.008   2.054  55.116  1.00  0.00     0.219 HD
ENDBRANCH  17  20
ENDBRANCH   5  15
BRANCH   3  22
HETATM   22  C10 UNL     1      21.868   2.354  50.787  1.00  0.00     0.179 C 
HETATM   23  C11 UNL     1      21.613   0.921  50.401  1.00  0.00     0.009 C 
HETATM   24  C12 UNL     1      20.699   0.239  51.076  1.00  0.00     0.043 C 
HETATM   25  C13 UNL     1      19.991   0.920  52.161  1.00  0.00     0.146 C 
HETATM   26  F1  UNL     1      18.876   0.321  52.694  1.00  0.00    -0.204 F 
HETATM   27  C14 UNL     1      20.378   2.072  52.641  1.00  0.00     0.122 C 
HETATM   28  N1  UNL     1      21.394   2.601  52.135  1.00  0.00    -0.269 NA
ENDBRANCH   3  22
TORSDOF 5
ENDMDL
MODEL 7
REMARK VINA RESULT:      -7.7      4.051      7.803
REMARK  5 active torsions:
REMARK  status: ('A' for Active; 'I' for Inactive)
REMARK    1  A    between atoms: O1_2  and  C2_3 
REMARK    2  A    between atoms: C6_7  and  C7_8 
REMARK    3  A    between atoms: C9_10  and  C10_11 
REMARK    4  A    between atoms: P1_19  and  C15_20 
REMARK    5  A    between atoms: C16_22  and  O2_23 
ROOT
HETATM    1  C7  UNL     1      25.474   3.647  49.809  1.00  0.00     0.081 C 
HETATM    2  C8  UNL     1      26.155   2.952  50.963  1.00  0.00     0.073 C 
HETATM    3  C9  UNL     1      25.109   2.235  51.745  1.00  0.00     0.041 C 
HETATM    4  N2  UNL     1      23.880   2.595  51.725  1.00  0.00    -0.260 NA
HETATM    5  P1  UNL     1      23.843   4.004  50.630  1.00  0.00     0.079 P 
ENDROOT
BRANCH   1   6
HETATM    6  C6  UNL     1      26.183   4.861  49.367  1.00  0.00    -0.041 A 
HETATM    7  C5  UNL     1      27.475   4.635  48.752  1.00  0.00     0.010 A 
HETATM    8  C4  UNL     1      28.170   5.674  48.330  1.00  0.00     0.021 A 
HETATM    9  C3  UNL     1      27.846   7.090  48.378  1.00  0.00     0.026 A 
HETATM   10  C2  UNL     1      28.650   8.016  47.911  1.00  0.00     0.152 C 
HETATM   11  S2  UNL     1      26.276   7.534  49.111  1.00  0.00    -0.100 SA
HETATM   12  C18 UNL     1      25.544   5.979  49.592  1.00  0.00     0.058 A 
BRANCH  10  13
HETATM   13  O1  UNL     1      28.278   9.351  47.988  1.00  0.00    -0.366 OA
HETATM   14  C1  UNL     1      29.219  10.259  48.529  1.00  0.00     0.209 C 
ENDBRANCH  10  13
ENDBRANCH   1   6
BRANCH   5  15
HETATM   15  C15 UNL     1      22.429   3.862  49.525  1.00  0.00     0.127 A 
HETATM   16  N3  UNL     1      21.656   2.950  49.026  1.00  0.00    -0.215 NA
HETATM   17  C16 UNL     1      20.693   3.375  48.208  1.00  0.00     0.169 A 
HETATM   18  C17 UNL     1      20.446   4.830  47.825  1.00  0.00     0.109 A 
HETATM   19  S1  UNL     1      21.866   5.544  48.863  1.00  0.00    -0.075 SA
BRANCH  17  20
HETATM   20  O2  UNL     1      19.952   2.260  47.761  1.00  0.00    -0.344 OA
HETATM   21  H13 UNL     1      19.001   2.366  47.460  1.00  0.00     0.219 HD
ENDBRANCH  17  20
ENDBRANCH   5  15
BRANCH   3  22
HETATM   22  C10 UNL     1      25.516   1.050  52.589  1.00  0.00     0.179 C 
HETATM   23  C11 UNL     1      26.668   0.341  51.927  1.00  0.00     0.009 C 
HETATM   24  C12 UNL     1      27.641  -0.132  52.693  1.00  0.00     0.043 C 
HETATM   25  C13 UNL     1      27.538   0.063  54.140  1.00  0.00     0.146 C 
HETATM   26  F1  UNL     1      28.392  -0.636  54.958  1.00  0.00    -0.204 F 
HETATM   27  C14 UNL     1      26.669   0.874  54.681  1.00  0.00     0.122 C 
HETATM   28  N1  UNL     1      25.898   1.496  53.916  1.00  0.00    -0.269 NA
ENDBRANCH   3  22
TORSDOF 5
ENDMDL
MODEL 8
REMARK VINA RESULT:      -7.7      3.904      8.153
REMARK  5 active torsions:
REMARK  status: ('A' for Active; 'I' for Inactive)
REMARK    1  A    between atoms: O1_2  and  C2_3 
REMARK    2  A    between atoms: C6_7  and  C7_8 
REMARK    3  A    between atoms: C9_10  and  C10_11 
REMARK    4  A    between atoms: P1_19  and  C15_20 
REMARK    5  A    between atoms: C16_22  and  O2_23 
ROOT
HETATM    1  C7  UNL     1      23.049   2.498  52.213  1.00  0.00     0.081 C 
HETATM    2  C8  UNL     1      23.347   3.660  51.296  1.00  0.00     0.073 C 
HETATM    3  C9  UNL     1      22.205   3.799  50.349  1.00  0.00     0.041 C 
HETATM    4  N2  UNL     1      21.435   2.816  50.064  1.00  0.00    -0.260 NA
HETATM    5  P1  UNL     1      22.078   1.451  51.019  1.00  0.00     0.079 P 
ENDROOT
BRANCH   1   6
HETATM    6  C6  UNL     1      24.263   1.834  52.716  1.00  0.00    -0.041 A 
HETATM    7  C5  UNL     1      25.196   2.694  53.415  1.00  0.00     0.010 A 
HETATM    8  C4  UNL     1      26.307   2.171  53.896  1.00  0.00     0.021 A 
HETATM    9  C3  UNL     1      26.788   0.801  53.844  1.00  0.00     0.026 A 
HETATM   10  C2  UNL     1      27.930   0.431  54.375  1.00  0.00     0.152 C 
HETATM   11  S2  UNL     1      25.745  -0.389  53.011  1.00  0.00    -0.100 SA
HETATM   12  C18 UNL     1      24.332   0.553  52.462  1.00  0.00     0.058 A 
BRANCH  10  13
HETATM   13  O1  UNL     1      28.330  -0.896  54.290  1.00  0.00    -0.366 OA
HETATM   14  C1  UNL     1      29.547  -1.168  53.622  1.00  0.00     0.209 C 
ENDBRANCH  10  13
ENDBRANCH   1   6
BRANCH   5  15
HETATM   15  C15 UNL     1      20.711   0.562  51.780  1.00  0.00     0.127 A 
HETATM   16  N3  UNL     1      20.471  -0.175  52.819  1.00  0.00    -0.215 NA
HETATM   17  C16 UNL     1      19.222  -0.625  52.948  1.00  0.00     0.169 A 
HETATM   18  C17 UNL     1      18.082  -0.339  51.977  1.00  0.00     0.109 A 
HETATM   19  S1  UNL     1      19.108   0.726  50.787  1.00  0.00    -0.075 SA
BRANCH  17  20
HETATM   20  O2  UNL     1      19.140  -1.402  54.123  1.00  0.00    -0.344 OA
HETATM   21  H13 UNL     1      19.964  -1.810  54.524  1.00  0.00     0.219 HD
ENDBRANCH  17  20
ENDBRANCH   5  15
BRANCH   3  22
HETATM   22  C10 UNL     1      21.952   5.143  49.707  1.00  0.00     0.179 C 
HETATM   23  C11 UNL     1      21.363   6.080  50.729  1.00  0.00     0.009 C 
HETATM   24  C12 UNL     1      21.757   7.345  50.726  1.00  0.00     0.043 C 
HETATM   25  C13 UNL     1      22.745   7.758  49.728  1.00  0.00     0.146 C 
HETATM   26  F1  UNL     1      22.968   9.101  49.544  1.00  0.00    -0.204 F 
HETATM   27  C14 UNL     1      23.420   6.903  49.008  1.00  0.00     0.122 C 
HETATM   28  N1  UNL     1      23.195   5.684  49.190  1.00  0.00    -0.269 NA
ENDBRANCH   3  22
TORSDOF 5
ENDMDL
MODEL 9
REMARK VINA RESULT:      -7.5      4.209      8.353
REMARK  5 active torsions:
REMARK  status: ('A' for Active; 'I' for Inactive)
REMARK    1  A    between atoms: O1_2  and  C2_3 
REMARK    2  A    between atoms: C6_7  and  C7_8 
REMARK    3  A    between atoms: C9_10  and  C10_11 
REMARK    4  A    between atoms: P1_19  and  C15_20 
REMARK    5  A    between atoms: C16_22  and  O2_23 
ROOT
HETATM    1  C7  UNL     1      25.244   4.673  49.566  1.00  0.00     0.081 C 
HETATM    2  C8  UNL     1      25.734   3.413  50.238  1.00  0.00     0.073 C 
HETATM    3  C9  UNL     1      24.668   2.951  51.172  1.00  0.00     0.041 C 
HETATM    4  N2  UNL     1      23.797   3.752  51.659  1.00  0.00    -0.260 NA
HETATM    5  P1  UNL     1      24.212   5.343  50.962  1.00  0.00     0.079 P 
ENDROOT
BRANCH   1   6
HETATM    6  C6  UNL     1      26.337   5.576  49.165  1.00  0.00    -0.041 A 
HETATM    7  C5  UNL     1      27.523   4.922  48.649  1.00  0.00     0.010 A 
HETATM    8  C4  UNL     1      28.544   5.664  48.268  1.00  0.00     0.021 A 
HETATM    9  C3  UNL     1      28.698   7.109  48.277  1.00  0.00     0.026 A 
HETATM   10  C2  UNL     1      29.789   7.707  47.861  1.00  0.00     0.152 C 
HETATM   11  S2  UNL     1      27.315   8.063  48.888  1.00  0.00    -0.100 SA
HETATM   12  C18 UNL     1      26.085   6.848  49.331  1.00  0.00     0.058 A 
BRANCH  10  13
HETATM   13  O1  UNL     1      29.870   9.093  47.896  1.00  0.00    -0.366 OA
HETATM   14  C1  UNL     1      30.786   9.669  48.807  1.00  0.00     0.209 C 
ENDBRANCH  10  13
ENDBRANCH   1   6
BRANCH   5  15
HETATM   15  C15 UNL     1      22.705   6.166  50.421  1.00  0.00     0.127 A 
HETATM   16  N3  UNL     1      22.210   7.361  50.339  1.00  0.00    -0.215 NA
HETATM   17  C16 UNL     1      20.979   7.456  49.836  1.00  0.00     0.169 A 
HETATM   18  C17 UNL     1      20.132   6.281  49.362  1.00  0.00     0.109 A 
HETATM   19  S1  UNL     1      21.420   4.945  49.759  1.00  0.00    -0.075 SA
BRANCH  17  20
HETATM   20  O2  UNL     1      20.600   8.815  49.820  1.00  0.00    -0.344 OA
HETATM   21  H13 UNL     1      20.151   9.211  49.015  1.00  0.00     0.219 HD
ENDBRANCH  17  20
ENDBRANCH   5  15
BRANCH   3  22
HETATM   22  C10 UNL     1      24.622   1.489  51.554  1.00  0.00     0.179 C 
HETATM   23  C11 UNL     1      26.013   1.017  51.886  1.00  0.00     0.009 C 
HETATM   24  C12 UNL     1      26.169   0.182  52.902  1.00  0.00     0.043 C 
HETATM   25  C13 UNL     1      24.978  -0.235  53.644  1.00  0.00     0.146 C 
HETATM   26  F1  UNL     1      25.087  -1.286  54.522  1.00  0.00    -0.204 F 
HETATM   27  C14 UNL     1      23.821   0.354  53.505  1.00  0.00     0.122 C 
HETATM   28  N1  UNL     1      23.745   1.306  52.695  1.00  0.00    -0.269 NA
ENDBRANCH   3  22
TORSDOF 5
ENDMDL
