MODEL 1
REMARK VINA RESULT:      -8.7      0.000      0.000
REMARK  10 active torsions:
REMARK  status: ('A' for Active; 'I' for Inactive)
REMARK    1  A    between atoms: C2_2  and  C3_3 
REMARK    2  A    between atoms: C3_3  and  C4_4 
REMARK    3  A    between atoms: C4_4  and  C5_5 
REMARK    4  A    between atoms: C6_6  and  C7_7 
REMARK    5  A    between atoms: C7_7  and  C8_8 
REMARK    6  A    between atoms: C8_8  and  C9_9 
REMARK    7  A    between atoms: C9_9  and  O2_11 
REMARK    8  A    between atoms: C12_14  and  C13_15 
REMARK    9  A    between atoms: C18_23  and  S1_24 
REMARK   10  A    between atoms: S1_24  and  N3_25 
ROOT
HETATM    1  C5  UNL     1      24.446   1.857  51.972  1.00  0.00     0.008 A 
HETATM    2  C6  UNL     1      25.593   1.364  52.018  1.00  0.00    -0.079 A 
HETATM    3  C10 UNL     1      25.710   2.261  50.942  1.00  0.00     0.012 A 
HETATM    4  C11 UNL     1      26.745   2.729  49.949  1.00  0.00     0.022 A 
HETATM    5  C12 UNL     1      25.400   3.301  49.901  1.00  0.00     0.022 A 
HETATM    6  C13 UNL     1      24.361   2.783  50.934  1.00  0.00     0.056 A 
HETATM    7  N1  UNL     1      25.205   3.192  50.108  1.00  0.00     0.000 N 
HETATM    8  C14 UNL     1      23.590   3.505  49.533  1.00  0.00     0.234 A 
HETATM    9  O3  UNL     1      22.476   2.750  49.249  1.00  0.00    -0.198 OA
HETATM   10  N2  UNL     1      23.220   4.853  49.245  1.00  0.00    -0.351 N 
HETATM   11  C15 UNL     1      24.467   5.531  48.862  1.00  0.00     0.037 A 
HETATM   12  C16 UNL     1      24.527   6.821  48.378  1.00  0.00     0.031 A 
HETATM   13  C17 UNL     1      25.894   7.166  48.204  1.00  0.00     0.027 A 
HETATM   14  C18 UNL     1      26.941   6.407  48.456  1.00  0.00     0.075 A 
HETATM   15  C19 UNL     1      26.966   5.170  48.921  1.00  0.00     0.035 A 
HETATM   16  C20 UNL     1      25.670   4.716  49.130  1.00  0.00    -0.019 A 
HETATM   17  H16 UNL     1      22.404   5.527  49.276  1.00  0.00     0.163 HD
ENDROOT
BRANCH   2  18
HETATM   18  C7  UNL     1      26.693   0.552  52.419  1.00  0.00     0.042 C 
BRANCH  18  19
HETATM   19  C8  UNL     1      27.301   0.841  53.770  1.00  0.00     0.114 C 
BRANCH  19  20
HETATM   20  C9  UNL     1      28.247   2.008  53.561  1.00  0.00     0.139 C 
HETATM   21  O1  UNL     1      28.950   2.411  54.552  1.00  0.00    -0.650 OA
BRANCH  20  22
HETATM   22  O2  UNL     1      28.815   2.969  52.813  1.00  0.00    -0.776 OA
HETATM   23  H14 UNL     1      29.456   3.638  53.245  1.00  0.00     0.167 HD
ENDBRANCH  20  22
ENDBRANCH  19  20
ENDBRANCH  18  19
ENDBRANCH   2  18
BRANCH   1  24
HETATM   24  C4  UNL     1      23.399   1.832  52.932  1.00  0.00     0.016 C 
BRANCH  24  25
HETATM   25  C3  UNL     1      22.403   0.668  52.848  1.00  0.00     0.001 C 
BRANCH  25  26
HETATM   26  C2  UNL     1      22.938  -0.384  53.813  1.00  0.00    -0.005 C 
HETATM   27  C1  UNL     1      21.834  -0.852  54.749  1.00  0.00     0.005 C 
ENDBRANCH  25  26
ENDBRANCH  24  25
ENDBRANCH   1  24
BRANCH  14  28
HETATM   28  S1  UNL     1      28.550   7.001  48.190  1.00  0.00     0.239 S 
HETATM   29  O4  UNL     1      28.765   7.328  46.763  1.00  0.00    -0.206 OA
HETATM   30  O5  UNL     1      28.728   8.316  48.948  1.00  0.00    -0.206 OA
BRANCH  28  31
HETATM   31  N3  UNL     1      29.712   5.929  48.898  1.00  0.00    -0.225 NA
HETATM   32  H19 UNL     1      30.515   5.825  48.220  1.00  0.00     0.136 HD
HETATM   33  H20 UNL     1      30.064   6.453  49.749  1.00  0.00     0.136 HD
ENDBRANCH  28  31
ENDBRANCH  14  28
TORSDOF 10
ENDMDL
MODEL 2
REMARK VINA RESULT:      -8.7      1.748      1.904
REMARK  10 active torsions:
REMARK  status: ('A' for Active; 'I' for Inactive)
REMARK    1  A    between atoms: C2_2  and  C3_3 
REMARK    2  A    between atoms: C3_3  and  C4_4 
REMARK    3  A    between atoms: C4_4  and  C5_5 
REMARK    4  A    between atoms: C6_6  and  C7_7 
REMARK    5  A    between atoms: C7_7  and  C8_8 
REMARK    6  A    between atoms: C8_8  and  C9_9 
REMARK    7  A    between atoms: C9_9  and  O2_11 
REMARK    8  A    between atoms: C12_14  and  C13_15 
REMARK    9  A    between atoms: C18_23  and  S1_24 
REMARK   10  A    between atoms: S1_24  and  N3_25 
ROOT
HETATM    1  C5  UNL     1      24.356   1.903  52.053  1.00  0.00     0.008 A 
HETATM    2  C6  UNL     1      25.517   1.623  51.686  1.00  0.00    -0.079 A 
HETATM    3  C10 UNL     1      25.286   2.833  51.009  1.00  0.00     0.012 A 
HETATM    4  C11 UNL     1      26.000   3.771  50.067  1.00  0.00     0.022 A 
HETATM    5  C12 UNL     1      24.640   4.091  50.501  1.00  0.00     0.022 A 
HETATM    6  C13 UNL     1      23.938   3.093  51.462  1.00  0.00     0.056 A 
HETATM    7  N1  UNL     1      24.513   3.890  50.688  1.00  0.00     0.000 N 
HETATM    8  C14 UNL     1      22.785   4.099  50.603  1.00  0.00     0.234 A 
HETATM    9  O3  UNL     1      21.705   3.305  50.293  1.00  0.00    -0.198 OA
HETATM   10  N2  UNL     1      22.240   5.383  50.903  1.00  0.00    -0.351 N 
HETATM   11  C15 UNL     1      23.290   6.349  50.550  1.00  0.00     0.037 A 
HETATM   12  C16 UNL     1      23.116   7.718  50.565  1.00  0.00     0.031 A 
HETATM   13  C17 UNL     1      24.363   8.326  50.258  1.00  0.00     0.027 A 
HETATM   14  C18 UNL     1      25.501   7.714  50.002  1.00  0.00     0.075 A 
HETATM   15  C19 UNL     1      25.748   6.416  49.973  1.00  0.00     0.035 A 
HETATM   16  C20 UNL     1      24.588   5.707  50.258  1.00  0.00    -0.019 A 
HETATM   17  H16 UNL     1      21.401   5.861  51.339  1.00  0.00     0.163 HD
ENDROOT
BRANCH   2  18
HETATM   18  C7  UNL     1      26.749   0.922  51.537  1.00  0.00     0.042 C 
BRANCH  18  19
HETATM   19  C8  UNL     1      27.376   0.362  52.791  1.00  0.00     0.114 C 
BRANCH  19  20
HETATM   20  C9  UNL     1      27.436   1.513  53.777  1.00  0.00     0.139 C 
HETATM   21  O1  UNL     1      26.841   1.385  54.903  1.00  0.00    -0.650 OA
BRANCH  20  22
HETATM   22  O2  UNL     1      27.815   2.744  54.157  1.00  0.00    -0.776 OA
HETATM   23  H14 UNL     1      28.098   2.913  55.124  1.00  0.00     0.167 HD
ENDBRANCH  20  22
ENDBRANCH  19  20
ENDBRANCH  18  19
ENDBRANCH   2  18
BRANCH   1  24
HETATM   24  C4  UNL     1      23.586   1.385  53.128  1.00  0.00     0.016 C 
BRANCH  24  25
HETATM   25  C3  UNL     1      23.748  -0.108  53.447  1.00  0.00     0.001 C 
BRANCH  25  26
HETATM   26  C2  UNL     1      22.349  -0.700  53.300  1.00  0.00    -0.005 C 
HETATM   27  C1  UNL     1      21.584  -0.574  54.609  1.00  0.00     0.005 C 
ENDBRANCH  25  26
ENDBRANCH  24  25
ENDBRANCH   1  24
BRANCH  14  28
HETATM   28  S1  UNL     1      26.937   8.625  49.653  1.00  0.00     0.239 S 
HETATM   29  O4  UNL     1      27.937   7.790  48.950  1.00  0.00    -0.206 OA
HETATM   30  O5  UNL     1      26.588   9.755  48.687  1.00  0.00    -0.206 OA
BRANCH  28  31
HETATM   31  N3  UNL     1      27.501   9.428  51.080  1.00  0.00    -0.225 NA
HETATM   32  H19 UNL     1      27.546  10.464  50.874  1.00  0.00     0.136 HD
HETATM   33  H20 UNL     1      26.733   9.266  51.790  1.00  0.00     0.136 HD
ENDBRANCH  28  31
ENDBRANCH  14  28
TORSDOF 10
ENDMDL
MODEL 3
REMARK VINA RESULT:      -8.2      2.864      5.383
REMARK  10 active torsions:
REMARK  status: ('A' for Active; 'I' for Inactive)
REMARK    1  A    between atoms: C2_2  and  C3_3 
REMARK    2  A    between atoms: C3_3  and  C4_4 
REMARK    3  A    between atoms: C4_4  and  C5_5 
REMARK    4  A    between atoms: C6_6  and  C7_7 
REMARK    5  A    between atoms: C7_7  and  C8_8 
REMARK    6  A    between atoms: C8_8  and  C9_9 
REMARK    7  A    between atoms: C9_9  and  O2_11 
REMARK    8  A    between atoms: C12_14  and  C13_15 
REMARK    9  A    between atoms: C18_23  and  S1_24 
REMARK   10  A    between atoms: S1_24  and  N3_25 
ROOT
HETATM    1  C5  UNL     1      25.786  -0.027  52.506  1.00  0.00     0.008 A 
HETATM    2  C6  UNL     1      24.694  -0.143  53.103  1.00  0.00    -0.079 A 
HETATM    3  C10 UNL     1      24.630   1.185  52.646  1.00  0.00     0.012 A 
HETATM    4  C11 UNL     1      23.690   2.364  52.684  1.00  0.00     0.022 A 
HETATM    5  C12 UNL     1      24.970   2.493  51.989  1.00  0.00     0.022 A 
HETATM    6  C13 UNL     1      25.914   1.259  51.983  1.00  0.00     0.056 A 
HETATM    7  N1  UNL     1      25.147   2.246  51.994  1.00  0.00     0.000 N 
HETATM    8  C14 UNL     1      26.784   2.752  51.682  1.00  0.00     0.234 A 
HETATM    9  O3  UNL     1      27.992   2.656  52.334  1.00  0.00    -0.198 OA
HETATM   10  N2  UNL     1      27.059   3.462  50.474  1.00  0.00    -0.351 N 
HETATM   11  C15 UNL     1      25.813   4.165  50.139  1.00  0.00     0.037 A 
HETATM   12  C16 UNL     1      25.693   5.074  49.108  1.00  0.00     0.031 A 
HETATM   13  C17 UNL     1      24.332   5.475  49.027  1.00  0.00     0.027 A 
HETATM   14  C18 UNL     1      23.338   5.064  49.789  1.00  0.00     0.075 A 
HETATM   15  C19 UNL     1      23.371   4.199  50.786  1.00  0.00     0.035 A 
HETATM   16  C20 UNL     1      24.668   3.732  50.967  1.00  0.00    -0.019 A 
HETATM   17  H16 UNL     1      27.797   3.599  49.728  1.00  0.00     0.163 HD
ENDROOT
BRANCH   2  18
HETATM   18  C7  UNL     1      23.633  -0.707  53.869  1.00  0.00     0.042 C 
BRANCH  18  19
HETATM   19  C8  UNL     1      22.320  -0.934  53.160  1.00  0.00     0.114 C 
BRANCH  19  20
HETATM   20  C9  UNL     1      21.381  -1.521  54.198  1.00  0.00     0.139 C 
HETATM   21  O1  UNL     1      21.883  -2.008  55.269  1.00  0.00    -0.650 OA
BRANCH  20  22
HETATM   22  O2  UNL     1      20.164  -1.851  54.658  1.00  0.00    -0.776 OA
HETATM   23  H14 UNL     1      19.672  -2.656  54.264  1.00  0.00     0.167 HD
ENDBRANCH  20  22
ENDBRANCH  19  20
ENDBRANCH  18  19
ENDBRANCH   2  18
BRANCH   1  24
HETATM   24  C4  UNL     1      26.699  -1.020  52.065  1.00  0.00     0.016 C 
BRANCH  24  25
HETATM   25  C3  UNL     1      27.590  -1.671  53.132  1.00  0.00     0.001 C 
BRANCH  25  26
HETATM   26  C2  UNL     1      28.756  -0.705  53.319  1.00  0.00    -0.005 C 
HETATM   27  C1  UNL     1      28.670  -0.032  54.681  1.00  0.00     0.005 C 
ENDBRANCH  25  26
ENDBRANCH  24  25
ENDBRANCH   1  24
BRANCH  14  28
HETATM   28  S1  UNL     1      21.727   5.660  49.538  1.00  0.00     0.239 S 
HETATM   29  O4  UNL     1      20.938   4.720  48.710  1.00  0.00    -0.206 OA
HETATM   30  O5  UNL     1      21.007   5.732  50.884  1.00  0.00    -0.206 OA
BRANCH  28  31
HETATM   31  N3  UNL     1      21.771   7.298  48.979  1.00  0.00    -0.225 NA
HETATM   32  H19 UNL     1      22.781   7.555  48.805  1.00  0.00     0.136 HD
HETATM   33  H20 UNL     1      21.272   7.267  48.045  1.00  0.00     0.136 HD
ENDBRANCH  28  31
ENDBRANCH  14  28
TORSDOF 10
ENDMDL
MODEL 4
REMARK VINA RESULT:      -8.0      1.690      2.149
REMARK  10 active torsions:
REMARK  status: ('A' for Active; 'I' for Inactive)
REMARK    1  A    between atoms: C2_2  and  C3_3 
REMARK    2  A    between atoms: C3_3  and  C4_4 
REMARK    3  A    between atoms: C4_4  and  C5_5 
REMARK    4  A    between atoms: C6_6  and  C7_7 
REMARK    5  A    between atoms: C7_7  and  C8_8 
REMARK    6  A    between atoms: C8_8  and  C9_9 
REMARK    7  A    between atoms: C9_9  and  O2_11 
REMARK    8  A    between atoms: C12_14  and  C13_15 
REMARK    9  A    between atoms: C18_23  and  S1_24 
REMARK   10  A    between atoms: S1_24  and  N3_25 
ROOT
HETATM    1  C5  UNL     1      23.917   3.446  51.499  1.00  0.00     0.008 A 
HETATM    2  C6  UNL     1      24.697   2.497  51.730  1.00  0.00    -0.079 A 
HETATM    3  C10 UNL     1      25.336   3.138  50.654  1.00  0.00     0.012 A 
HETATM    4  C11 UNL     1      26.578   2.991  49.810  1.00  0.00     0.022 A 
HETATM    5  C12 UNL     1      25.661   4.099  49.545  1.00  0.00     0.022 A 
HETATM    6  C13 UNL     1      24.388   4.206  50.430  1.00  0.00     0.056 A 
HETATM    7  N1  UNL     1      25.415   4.110  49.724  1.00  0.00     0.000 N 
HETATM    8  C14 UNL     1      24.203   5.058  48.907  1.00  0.00     0.234 A 
HETATM    9  O3  UNL     1      22.908   4.860  48.486  1.00  0.00    -0.198 OA
HETATM   10  N2  UNL     1      24.528   6.393  48.523  1.00  0.00    -0.351 N 
HETATM   11  C15 UNL     1      25.982   6.398  48.306  1.00  0.00     0.037 A 
HETATM   12  C16 UNL     1      26.682   7.470  47.794  1.00  0.00     0.031 A 
HETATM   13  C17 UNL     1      28.066   7.145  47.813  1.00  0.00     0.027 A 
HETATM   14  C18 UNL     1      28.610   6.025  48.242  1.00  0.00     0.075 A 
HETATM   15  C19 UNL     1      28.012   4.961  48.746  1.00  0.00     0.035 A 
HETATM   16  C20 UNL     1      26.637   5.160  48.776  1.00  0.00    -0.019 A 
HETATM   17  H16 UNL     1      24.114   7.361  48.410  1.00  0.00     0.163 HD
ENDROOT
BRANCH   2  18
HETATM   18  C7  UNL     1      25.247   1.321  52.316  1.00  0.00     0.042 C 
BRANCH  18  19
HETATM   19  C8  UNL     1      25.844   1.457  53.696  1.00  0.00     0.114 C 
BRANCH  19  20
HETATM   20  C9  UNL     1      27.237   2.024  53.494  1.00  0.00     0.139 C 
HETATM   21  O1  UNL     1      28.133   1.772  54.372  1.00  0.00    -0.650 OA
BRANCH  20  22
HETATM   22  O2  UNL     1      28.152   2.736  52.816  1.00  0.00    -0.776 OA
HETATM   23  H14 UNL     1      28.049   3.750  52.735  1.00  0.00     0.167 HD
ENDBRANCH  20  22
ENDBRANCH  19  20
ENDBRANCH  18  19
ENDBRANCH   2  18
BRANCH   1  24
HETATM   24  C4  UNL     1      22.872   3.987  52.293  1.00  0.00     0.016 C 
BRANCH  24  25
HETATM   25  C3  UNL     1      21.498   4.142  51.627  1.00  0.00     0.001 C 
BRANCH  25  26
HETATM   26  C2  UNL     1      20.582   3.178  52.376  1.00  0.00    -0.005 C 
HETATM   27  C1  UNL     1      20.910   1.741  52.001  1.00  0.00     0.005 C 
ENDBRANCH  25  26
ENDBRANCH  24  25
ENDBRANCH   1  24
BRANCH  14  28
HETATM   28  S1  UNL     1      30.332   5.805  48.197  1.00  0.00     0.239 S 
HETATM   29  O4  UNL     1      30.687   4.541  47.514  1.00  0.00    -0.206 OA
HETATM   30  O5  UNL     1      30.956   6.919  47.359  1.00  0.00    -0.206 OA
BRANCH  28  31
HETATM   31  N3  UNL     1      31.006   6.018  49.778  1.00  0.00    -0.225 NA
HETATM   32  H19 UNL     1      30.351   5.570  50.475  1.00  0.00     0.136 HD
HETATM   33  H20 UNL     1      31.902   5.455  49.757  1.00  0.00     0.136 HD
ENDBRANCH  28  31
ENDBRANCH  14  28
TORSDOF 10
ENDMDL
MODEL 5
REMARK VINA RESULT:      -7.9      3.971      6.928
REMARK  10 active torsions:
REMARK  status: ('A' for Active; 'I' for Inactive)
REMARK    1  A    between atoms: C2_2  and  C3_3 
REMARK    2  A    between atoms: C3_3  and  C4_4 
REMARK    3  A    between atoms: C4_4  and  C5_5 
REMARK    4  A    between atoms: C6_6  and  C7_7 
REMARK    5  A    between atoms: C7_7  and  C8_8 
REMARK    6  A    between atoms: C8_8  and  C9_9 
REMARK    7  A    between atoms: C9_9  and  O2_11 
REMARK    8  A    between atoms: C12_14  and  C13_15 
REMARK    9  A    between atoms: C18_23  and  S1_24 
REMARK   10  A    between atoms: S1_24  and  N3_25 
ROOT
HETATM    1  C5  UNL     1      25.466   2.181  51.949  1.00  0.00     0.008 A 
HETATM    2  C6  UNL     1      25.432   0.983  52.303  1.00  0.00    -0.079 A 
HETATM    3  C10 UNL     1      24.091   1.370  52.471  1.00  0.00     0.012 A 
HETATM    4  C11 UNL     1      22.776   0.777  52.912  1.00  0.00     0.022 A 
HETATM    5  C12 UNL     1      22.824   2.178  52.498  1.00  0.00     0.022 A 
HETATM    6  C13 UNL     1      24.200   2.753  52.062  1.00  0.00     0.056 A 
HETATM    7  N1  UNL     1      23.098   2.280  52.415  1.00  0.00     0.000 N 
HETATM    8  C14 UNL     1      23.087   4.017  52.550  1.00  0.00     0.234 A 
HETATM    9  O3  UNL     1      23.819   4.963  53.229  1.00  0.00    -0.198 OA
HETATM   10  N2  UNL     1      22.105   4.750  51.817  1.00  0.00    -0.351 N 
HETATM   11  C15 UNL     1      20.957   3.843  51.681  1.00  0.00     0.037 A 
HETATM   12  C16 UNL     1      19.740   4.213  51.148  1.00  0.00     0.031 A 
HETATM   13  C17 UNL     1      18.911   3.060  51.093  1.00  0.00     0.027 A 
HETATM   14  C18 UNL     1      19.226   1.839  51.475  1.00  0.00     0.075 A 
HETATM   15  C19 UNL     1      20.364   1.407  51.989  1.00  0.00     0.035 A 
HETATM   16  C20 UNL     1      21.265   2.459  52.096  1.00  0.00    -0.019 A 
HETATM   17  H16 UNL     1      21.947   5.659  51.298  1.00  0.00     0.163 HD
ENDROOT
BRANCH   2  18
HETATM   18  C7  UNL     1      25.858  -0.341  52.615  1.00  0.00     0.042 C 
BRANCH  18  19
HETATM   19  C8  UNL     1      27.345  -0.571  52.737  1.00  0.00     0.114 C 
BRANCH  19  20
HETATM   20  C9  UNL     1      27.789   0.207  53.962  1.00  0.00     0.139 C 
HETATM   21  O1  UNL     1      27.703  -0.356  55.108  1.00  0.00    -0.650 OA
BRANCH  20  22
HETATM   22  O2  UNL     1      28.278   1.298  54.573  1.00  0.00    -0.776 OA
HETATM   23  H14 UNL     1      27.642   2.038  54.879  1.00  0.00     0.167 HD
ENDBRANCH  20  22
ENDBRANCH  19  20
ENDBRANCH  18  19
ENDBRANCH   2  18
BRANCH   1  24
HETATM   24  C4  UNL     1      26.459   2.894  51.227  1.00  0.00     0.016 C 
BRANCH  24  25
HETATM   25  C3  UNL     1      26.293   2.973  49.703  1.00  0.00     0.001 C 
BRANCH  25  26
HETATM   26  C2  UNL     1      26.278   4.464  49.381  1.00  0.00    -0.005 C 
HETATM   27  C1  UNL     1      27.562   4.862  48.672  1.00  0.00     0.005 C 
ENDBRANCH  25  26
ENDBRANCH  24  25
ENDBRANCH   1  24
BRANCH  14  28
HETATM   28  S1  UNL     1      18.081   0.542  51.326  1.00  0.00     0.239 S 
HETATM   29  O4  UNL     1      18.512  -0.637  52.109  1.00  0.00    -0.206 OA
HETATM   30  O5  UNL     1      16.750   0.979  51.933  1.00  0.00    -0.206 OA
BRANCH  28  31
HETATM   31  N3  UNL     1      17.724   0.245  49.657  1.00  0.00    -0.225 NA
HETATM   32  H19 UNL     1      16.726   0.544  49.480  1.00  0.00     0.136 HD
HETATM   33  H20 UNL     1      18.365   0.906  49.133  1.00  0.00     0.136 HD
ENDBRANCH  28  31
ENDBRANCH  14  28
TORSDOF 10
ENDMDL
MODEL 6
REMARK VINA RESULT:      -7.7      3.454      7.012
REMARK  10 active torsions:
REMARK  status: ('A' for Active; 'I' for Inactive)
REMARK    1  A    between atoms: C2_2  and  C3_3 
REMARK    2  A    between atoms: C3_3  and  C4_4 
REMARK    3  A    between atoms: C4_4  and  C5_5 
REMARK    4  A    between atoms: C6_6  and  C7_7 
REMARK    5  A    between atoms: C7_7  and  C8_8 
REMARK    6  A    between atoms: C8_8  and  C9_9 
REMARK    7  A    between atoms: C9_9  and  O2_11 
REMARK    8  A    between atoms: C12_14  and  C13_15 
REMARK    9  A    between atoms: C18_23  and  S1_24 
REMARK   10  A    between atoms: S1_24  and  N3_25 
ROOT
HETATM    1  C5  UNL     1      22.383   4.590  49.837  1.00  0.00     0.008 A 
HETATM    2  C6  UNL     1      23.495   5.103  50.081  1.00  0.00    -0.079 A 
HETATM    3  C10 UNL     1      23.361   4.192  51.143  1.00  0.00     0.012 A 
HETATM    4  C11 UNL     1      24.128   3.728  52.356  1.00  0.00     0.022 A 
HETATM    5  C12 UNL     1      22.825   3.132  52.064  1.00  0.00     0.022 A 
HETATM    6  C13 UNL     1      22.063   3.647  50.812  1.00  0.00     0.056 A 
HETATM    7  N1  UNL     1      22.685   3.240  51.817  1.00  0.00     0.000 N 
HETATM    8  C14 UNL     1      20.985   2.891  51.972  1.00  0.00     0.234 A 
HETATM    9  O3  UNL     1      19.820   3.623  51.980  1.00  0.00    -0.198 OA
HETATM   10  N2  UNL     1      20.583   1.533  52.146  1.00  0.00    -0.351 N 
HETATM   11  C15 UNL     1      21.710   0.872  52.818  1.00  0.00     0.037 A 
HETATM   12  C16 UNL     1      21.674  -0.425  53.289  1.00  0.00     0.031 A 
HETATM   13  C17 UNL     1      22.964  -0.749  53.792  1.00  0.00     0.027 A 
HETATM   14  C18 UNL     1      24.024   0.032  53.814  1.00  0.00     0.075 A 
HETATM   15  C19 UNL     1      24.139   1.275  53.382  1.00  0.00     0.035 A 
HETATM   16  C20 UNL     1      22.925   1.710  52.864  1.00  0.00    -0.019 A 
HETATM   17  H16 UNL     1      19.813   0.846  51.908  1.00  0.00     0.163 HD
ENDROOT
BRANCH   2  18
HETATM   18  C7  UNL     1      24.644   5.939  49.972  1.00  0.00     0.042 C 
BRANCH  18  19
HETATM   19  C8  UNL     1      25.589   5.661  48.828  1.00  0.00     0.114 C 
BRANCH  19  20
HETATM   20  C9  UNL     1      26.623   4.691  49.368  1.00  0.00     0.139 C 
HETATM   21  O1  UNL     1      27.696   4.505  48.696  1.00  0.00    -0.650 OA
BRANCH  20  22
HETATM   22  O2  UNL     1      27.080   3.811  50.274  1.00  0.00    -0.776 OA
HETATM   23  H14 UNL     1      27.190   4.097  51.249  1.00  0.00     0.167 HD
ENDBRANCH  20  22
ENDBRANCH  19  20
ENDBRANCH  18  19
ENDBRANCH   2  18
BRANCH   1  24
HETATM   24  C4  UNL     1      21.605   4.611  48.649  1.00  0.00     0.016 C 
BRANCH  24  25
HETATM   25  C3  UNL     1      22.125   3.790  47.460  1.00  0.00     0.001 C 
BRANCH  25  26
HETATM   26  C2  UNL     1      21.959   4.700  46.247  1.00  0.00    -0.005 C 
HETATM   27  C1  UNL     1      21.339   3.929  45.091  1.00  0.00     0.005 C 
ENDBRANCH  25  26
ENDBRANCH  24  25
ENDBRANCH   1  24
BRANCH  14  28
HETATM   28  S1  UNL     1      25.530  -0.539  54.463  1.00  0.00     0.239 S 
HETATM   29  O4  UNL     1      25.304  -1.411  55.637  1.00  0.00    -0.206 OA
HETATM   30  O5  UNL     1      26.221  -1.417  53.421  1.00  0.00    -0.206 OA
BRANCH  28  31
HETATM   31  N3  UNL     1      26.619   0.785  54.709  1.00  0.00    -0.225 NA
HETATM   32  H19 UNL     1      26.287   1.327  55.554  1.00  0.00     0.136 HD
HETATM   33  H20 UNL     1      27.539   0.322  54.954  1.00  0.00     0.136 HD
ENDBRANCH  28  31
ENDBRANCH  14  28
TORSDOF 10
ENDMDL
MODEL 7
REMARK VINA RESULT:      -7.6      4.299      7.848
REMARK  10 active torsions:
REMARK  status: ('A' for Active; 'I' for Inactive)
REMARK    1  A    between atoms: C2_2  and  C3_3 
REMARK    2  A    between atoms: C3_3  and  C4_4 
REMARK    3  A    between atoms: C4_4  and  C5_5 
REMARK    4  A    between atoms: C6_6  and  C7_7 
REMARK    5  A    between atoms: C7_7  and  C8_8 
REMARK    6  A    between atoms: C8_8  and  C9_9 
REMARK    7  A    between atoms: C9_9  and  O2_11 
REMARK    8  A    between atoms: C12_14  and  C13_15 
REMARK    9  A    between atoms: C18_23  and  S1_24 
REMARK   10  A    between atoms: S1_24  and  N3_25 
ROOT
HETATM    1  C5  UNL     1      24.193   2.396  52.133  1.00  0.00     0.008 A 
HETATM    2  C6  UNL     1      24.118   2.875  50.981  1.00  0.00    -0.079 A 
HETATM    3  C10 UNL     1      23.067   1.940  50.972  1.00  0.00     0.012 A 
HETATM    4  C11 UNL     1      21.997   1.431  50.039  1.00  0.00     0.022 A 
HETATM    5  C12 UNL     1      22.092   0.876  51.388  1.00  0.00     0.022 A 
HETATM    6  C13 UNL     1      23.215   1.420  52.313  1.00  0.00     0.056 A 
HETATM    7  N1  UNL     1      22.314   0.989  51.560  1.00  0.00     0.000 N 
HETATM    8  C14 UNL     1      22.650  -0.160  52.826  1.00  0.00     0.234 A 
HETATM    9  O3  UNL     1      23.750  -0.864  53.260  1.00  0.00    -0.198 OA
HETATM   10  N2  UNL     1      21.583  -0.550  53.691  1.00  0.00    -0.351 N 
HETATM   11  C15 UNL     1      20.358  -0.412  52.891  1.00  0.00     0.037 A 
HETATM   12  C16 UNL     1      19.110  -0.818  53.316  1.00  0.00     0.031 A 
HETATM   13  C17 UNL     1      18.162  -0.444  52.326  1.00  0.00     0.027 A 
HETATM   14  C18 UNL     1      18.405   0.182  51.193  1.00  0.00     0.075 A 
HETATM   15  C19 UNL     1      19.564   0.603  50.719  1.00  0.00     0.035 A 
HETATM   16  C20 UNL     1      20.582   0.289  51.610  1.00  0.00    -0.019 A 
HETATM   17  H16 UNL     1      21.368  -0.827  54.690  1.00  0.00     0.163 HD
ENDROOT
BRANCH   2  18
HETATM   18  C7  UNL     1      24.412   3.659  49.828  1.00  0.00     0.042 C 
BRANCH  18  19
HETATM   19  C8  UNL     1      25.339   4.836  50.017  1.00  0.00     0.114 C 
BRANCH  19  20
HETATM   20  C9  UNL     1      24.566   5.845  50.846  1.00  0.00     0.139 C 
HETATM   21  O1  UNL     1      23.443   6.268  50.403  1.00  0.00    -0.650 OA
BRANCH  20  22
HETATM   22  O2  UNL     1      24.402   6.636  51.919  1.00  0.00    -0.776 OA
HETATM   23  H14 UNL     1      25.213   6.916  52.473  1.00  0.00     0.167 HD
ENDBRANCH  20  22
ENDBRANCH  19  20
ENDBRANCH  18  19
ENDBRANCH   2  18
BRANCH   1  24
HETATM   24  C4  UNL     1      24.876   2.877  53.281  1.00  0.00     0.016 C 
BRANCH  24  25
HETATM   25  C3  UNL     1      25.948   1.962  53.889  1.00  0.00     0.001 C 
BRANCH  25  26
HETATM   26  C2  UNL     1      26.944   1.714  52.760  1.00  0.00    -0.005 C 
HETATM   27  C1  UNL     1      27.060   0.224  52.478  1.00  0.00     0.005 C 
ENDBRANCH  25  26
ENDBRANCH  24  25
ENDBRANCH   1  24
BRANCH  14  28
HETATM   28  S1  UNL     1      17.112   0.567  50.099  1.00  0.00     0.239 S 
HETATM   29  O4  UNL     1      16.402  -0.658  49.667  1.00  0.00    -0.206 OA
HETATM   30  O5  UNL     1      16.073   1.412  50.833  1.00  0.00    -0.206 OA
BRANCH  28  31
HETATM   31  N3  UNL     1      17.687   1.590  48.826  1.00  0.00    -0.225 NA
HETATM   32  H19 UNL     1      17.742   1.012  47.943  1.00  0.00     0.136 HD
HETATM   33  H20 UNL     1      16.919   2.308  48.703  1.00  0.00     0.136 HD
ENDBRANCH  28  31
ENDBRANCH  14  28
TORSDOF 10
ENDMDL
MODEL 8
REMARK VINA RESULT:      -7.6      2.156      2.947
REMARK  10 active torsions:
REMARK  status: ('A' for Active; 'I' for Inactive)
REMARK    1  A    between atoms: C2_2  and  C3_3 
REMARK    2  A    between atoms: C3_3  and  C4_4 
REMARK    3  A    between atoms: C4_4  and  C5_5 
REMARK    4  A    between atoms: C6_6  and  C7_7 
REMARK    5  A    between atoms: C7_7  and  C8_8 
REMARK    6  A    between atoms: C8_8  and  C9_9 
REMARK    7  A    between atoms: C9_9  and  O2_11 
REMARK    8  A    between atoms: C12_14  and  C13_15 
REMARK    9  A    between atoms: C18_23  and  S1_24 
REMARK   10  A    between atoms: S1_24  and  N3_25 
ROOT
HETATM    1  C5  UNL     1      24.171   4.219  51.166  1.00  0.00     0.008 A 
HETATM    2  C6  UNL     1      24.776   3.136  51.319  1.00  0.00    -0.079 A 
HETATM    3  C10 UNL     1      25.519   3.736  50.286  1.00  0.00     0.012 A 
HETATM    4  C11 UNL     1      26.719   3.443  49.421  1.00  0.00     0.022 A 
HETATM    5  C12 UNL     1      26.005   4.707  49.248  1.00  0.00     0.022 A 
HETATM    6  C13 UNL     1      24.768   4.964  50.151  1.00  0.00     0.056 A 
HETATM    7  N1  UNL     1      25.765   4.747  49.429  1.00  0.00     0.000 N 
HETATM    8  C14 UNL     1      24.734   5.945  48.697  1.00  0.00     0.234 A 
HETATM    9  O3  UNL     1      23.426   6.003  48.276  1.00  0.00    -0.198 OA
HETATM   10  N2  UNL     1      25.285   7.230  48.408  1.00  0.00    -0.351 N 
HETATM   11  C15 UNL     1      26.718   7.003  48.177  1.00  0.00     0.037 A 
HETATM   12  C16 UNL     1      27.593   7.975  47.737  1.00  0.00     0.031 A 
HETATM   13  C17 UNL     1      28.900   7.418  47.719  1.00  0.00     0.027 A 
HETATM   14  C18 UNL     1      29.244   6.193  48.058  1.00  0.00     0.075 A 
HETATM   15  C19 UNL     1      28.471   5.212  48.490  1.00  0.00     0.035 A 
HETATM   16  C20 UNL     1      27.151   5.640  48.548  1.00  0.00    -0.019 A 
HETATM   17  H16 UNL     1      25.042   8.261  48.371  1.00  0.00     0.163 HD
ENDROOT
BRANCH   2  18
HETATM   18  C7  UNL     1      25.116   1.843  51.812  1.00  0.00     0.042 C 
BRANCH  18  19
HETATM   19  C8  UNL     1      26.558   1.414  51.676  1.00  0.00     0.114 C 
BRANCH  19  20
HETATM   20  C9  UNL     1      27.291   2.037  52.849  1.00  0.00     0.139 C 
HETATM   21  O1  UNL     1      28.561   1.900  52.918  1.00  0.00    -0.650 OA
BRANCH  20  22
HETATM   22  O2  UNL     1      27.338   2.735  53.995  1.00  0.00    -0.776 OA
HETATM   23  H14 UNL     1      27.181   3.744  53.983  1.00  0.00     0.167 HD
ENDBRANCH  20  22
ENDBRANCH  19  20
ENDBRANCH  18  19
ENDBRANCH   2  18
BRANCH   1  24
HETATM   24  C4  UNL     1      23.232   4.870  52.009  1.00  0.00     0.016 C 
BRANCH  24  25
HETATM   25  C3  UNL     1      22.013   5.511  51.331  1.00  0.00     0.001 C 
BRANCH  25  26
HETATM   26  C2  UNL     1      21.168   4.339  50.842  1.00  0.00    -0.005 C 
HETATM   27  C1  UNL     1      20.625   3.552  52.024  1.00  0.00     0.005 C 
ENDBRANCH  25  26
ENDBRANCH  24  25
ENDBRANCH   1  24
BRANCH  14  28
HETATM   28  S1  UNL     1      30.903   5.685  47.980  1.00  0.00     0.239 S 
HETATM   29  O4  UNL     1      31.732   6.692  47.281  1.00  0.00    -0.206 OA
HETATM   30  O5  UNL     1      31.465   5.597  49.398  1.00  0.00    -0.206 OA
BRANCH  28  31
HETATM   31  N3  UNL     1      31.009   4.069  47.368  1.00  0.00    -0.225 NA
HETATM   32  H19 UNL     1      30.533   4.046  46.424  1.00  0.00     0.136 HD
HETATM   33  H20 UNL     1      32.046   3.915  47.219  1.00  0.00     0.136 HD
ENDBRANCH  28  31
ENDBRANCH  14  28
TORSDOF 10
ENDMDL
MODEL 9
REMARK VINA RESULT:      -7.5      5.093      8.344
REMARK  10 active torsions:
REMARK  status: ('A' for Active; 'I' for Inactive)
REMARK    1  A    between atoms: C2_2  and  C3_3 
REMARK    2  A    between atoms: C3_3  and  C4_4 
REMARK    3  A    between atoms: C4_4  and  C5_5 
REMARK    4  A    between atoms: C6_6  and  C7_7 
REMARK    5  A    between atoms: C7_7  and  C8_8 
REMARK    6  A    between atoms: C8_8  and  C9_9 
REMARK    7  A    between atoms: C9_9  and  O2_11 
REMARK    8  A    between atoms: C12_14  and  C13_15 
REMARK    9  A    between atoms: C18_23  and  S1_24 
REMARK   10  A    between atoms: S1_24  and  N3_25 
ROOT
HETATM    1  C5  UNL     1      28.922   6.188  48.034  1.00  0.00     0.008 A 
HETATM    2  C6  UNL     1      28.722   7.250  47.407  1.00  0.00    -0.079 A 
HETATM    3  C10 UNL     1      30.071   6.992  47.109  1.00  0.00     0.012 A 
HETATM    4  C11 UNL     1      31.204   7.596  46.317  1.00  0.00     0.022 A 
HETATM    5  C12 UNL     1      31.431   6.354  47.055  1.00  0.00     0.022 A 
HETATM    6  C13 UNL     1      30.242   5.772  47.868  1.00  0.00     0.056 A 
HETATM    7  N1  UNL     1      31.192   6.249  47.210  1.00  0.00     0.000 N 
HETATM    8  C14 UNL     1      31.787   5.181  48.451  1.00  0.00     0.234 A 
HETATM    9  O3  UNL     1      31.704   5.111  49.822  1.00  0.00    -0.198 OA
HETATM   10  N2  UNL     1      32.582   4.061  48.060  1.00  0.00    -0.351 N 
HETATM   11  C15 UNL     1      33.249   4.467  46.815  1.00  0.00     0.037 A 
HETATM   12  C16 UNL     1      34.214   3.716  46.176  1.00  0.00     0.031 A 
HETATM   13  C17 UNL     1      34.559   4.375  44.966  1.00  0.00     0.027 A 
HETATM   14  C18 UNL     1      34.059   5.505  44.509  1.00  0.00     0.075 A 
HETATM   15  C19 UNL     1      33.136   6.276  45.056  1.00  0.00     0.035 A 
HETATM   16  C20 UNL     1      32.717   5.729  46.262  1.00  0.00    -0.019 A 
HETATM   17  H16 UNL     1      32.797   3.054  48.307  1.00  0.00     0.163 HD
ENDROOT
BRANCH   2  18
HETATM   18  C7  UNL     1      28.065   8.406  46.895  1.00  0.00     0.042 C 
BRANCH  18  19
HETATM   19  C8  UNL     1      27.043   9.066  47.789  1.00  0.00     0.114 C 
BRANCH  19  20
HETATM   20  C9  UNL     1      27.783   9.456  49.054  1.00  0.00     0.139 C 
HETATM   21  O1  UNL     1      27.539  10.597  49.579  1.00  0.00    -0.650 OA
BRANCH  20  22
HETATM   22  O2  UNL     1      28.666   9.230  50.041  1.00  0.00    -0.776 OA
HETATM   23  H14 UNL     1      29.602   9.637  49.990  1.00  0.00     0.167 HD
ENDBRANCH  20  22
ENDBRANCH  19  20
ENDBRANCH  18  19
ENDBRANCH   2  18
BRANCH   1  24
HETATM   24  C4  UNL     1      27.999   5.267  48.596  1.00  0.00     0.016 C 
BRANCH  24  25
HETATM   25  C3  UNL     1      26.550   5.746  48.761  1.00  0.00     0.001 C 
BRANCH  25  26
HETATM   26  C2  UNL     1      25.896   4.723  49.685  1.00  0.00    -0.005 C 
HETATM   27  C1  UNL     1      26.616   3.387  49.585  1.00  0.00     0.005 C 
ENDBRANCH  25  26
ENDBRANCH  24  25
ENDBRANCH   1  24
BRANCH  14  28
HETATM   28  S1  UNL     1      34.598   6.163  42.995  1.00  0.00     0.239 S 
HETATM   29  O4  UNL     1      33.955   5.469  41.857  1.00  0.00    -0.206 OA
HETATM   30  O5  UNL     1      34.151   7.621  42.898  1.00  0.00    -0.206 OA
BRANCH  28  31
HETATM   31  N3  UNL     1      36.328   6.233  42.952  1.00  0.00    -0.225 NA
HETATM   32  H19 UNL     1      36.620   6.466  41.963  1.00  0.00     0.136 HD
HETATM   33  H20 UNL     1      36.570   7.057  43.571  1.00  0.00     0.136 HD
ENDBRANCH  28  31
ENDBRANCH  14  28
TORSDOF 10
ENDMDL
