MODEL 1
REMARK VINA RESULT:      -8.3      0.000      0.000
REMARK  6 active torsions:
REMARK  status: ('A' for Active; 'I' for Inactive)
REMARK    1  A    between atoms: C7_11  and  N3_12 
REMARK    2  A    between atoms: N3_12  and  C8_13 
REMARK    3  A    between atoms: N4_21  and  C16_22 
REMARK    4  A    between atoms: C16_22  and  C17_23 
REMARK    5  A    between atoms: C17_23  and  C18_24 
REMARK    6  A    between atoms: C18_24  and  N5_25 
ROOT
HETATM    1  O1  UNL     1      25.508  -1.257  54.644  1.00  0.00    -0.271 OA
HETATM    2  C1  UNL     1      25.214  -0.115  54.171  1.00  0.00     0.248 A 
HETATM    3  C2  UNL     1      26.293   0.810  54.561  1.00  0.00     0.279 A 
HETATM    4  O2  UNL     1      26.016   2.151  54.183  1.00  0.00    -0.340 OA
HETATM    5  C3  UNL     1      24.875   2.500  53.478  1.00  0.00     0.098 A 
HETATM    6  C4  UNL     1      24.683   3.807  53.175  1.00  0.00     0.071 C 
HETATM    7  C5  UNL     1      23.432   4.019  52.457  1.00  0.00     0.093 A 
HETATM    8  N1  UNL     1      22.565   4.987  52.524  1.00  0.00    -0.242 NA
HETATM    9  C6  UNL     1      21.470   4.738  51.617  1.00  0.00     0.230 A 
HETATM   10  N2  UNL     1      21.718   3.592  51.015  1.00  0.00    -0.240 NA
HETATM   11  C7  UNL     1      22.938   3.053  51.470  1.00  0.00     0.193 A 
HETATM   12  C14 UNL     1      22.905   1.713  52.120  1.00  0.00     0.067 C 
HETATM   13  C15 UNL     1      23.871   1.532  53.057  1.00  0.00     0.071 A 
HETATM   14  N4  UNL     1      24.006   0.129  53.397  1.00  0.00    -0.314 N 
ENDROOT
BRANCH  14  15
HETATM   15  C16 UNL     1      23.174  -0.987  53.135  1.00  0.00     0.134 C 
BRANCH  15  16
HETATM   16  C17 UNL     1      22.120  -1.300  54.160  1.00  0.00     0.050 C 
BRANCH  16  17
HETATM   17  C18 UNL     1      20.940  -0.420  54.222  1.00  0.00     0.274 C 
BRANCH  17  18
HETATM   18  N5  UNL     1      20.024  -0.643  53.127  1.00  0.00     0.092 N 
HETATM   19  C19 UNL     1      18.977  -1.482  53.595  1.00  0.00     0.298 C 
HETATM   20  C20 UNL     1      17.601  -1.150  53.082  1.00  0.00     0.198 C 
HETATM   21  O3  UNL     1      17.758  -0.781  51.726  1.00  0.00    -0.388 OA
HETATM   22  C21 UNL     1      18.288   0.506  51.784  1.00  0.00     0.198 C 
HETATM   23  C22 UNL     1      19.598   0.571  52.487  1.00  0.00     0.298 C 
ENDBRANCH  17  18
ENDBRANCH  16  17
ENDBRANCH  15  16
ENDBRANCH  14  15
BRANCH  11  24
HETATM   24  N3  UNL     1      23.959   3.033  50.397  1.00  0.00    -0.354 N 
HETATM   25  H5  UNL     1      23.894   2.110  49.879  1.00  0.00     0.163 HD
BRANCH  24  26
HETATM   26  C8  UNL     1      24.991   3.805  49.813  1.00  0.00     0.030 A 
HETATM   27  C9  UNL     1      26.307   3.361  49.656  1.00  0.00     0.029 A 
HETATM   28  C10 UNL     1      27.196   4.220  49.077  1.00  0.00     0.002 A 
HETATM   29  C11 UNL     1      26.863   5.474  48.651  1.00  0.00     0.000 A 
HETATM   30  C12 UNL     1      25.568   5.927  48.799  1.00  0.00     0.002 A 
HETATM   31  C13 UNL     1      24.675   5.074  49.376  1.00  0.00     0.029 A 
ENDBRANCH  24  26
ENDBRANCH  11  24
TORSDOF 6
ENDMDL
MODEL 2
REMARK VINA RESULT:      -8.1      3.016      8.537
REMARK  6 active torsions:
REMARK  status: ('A' for Active; 'I' for Inactive)
REMARK    1  A    between atoms: C7_11  and  N3_12 
REMARK    2  A    between atoms: N3_12  and  C8_13 
REMARK    3  A    between atoms: N4_21  and  C16_22 
REMARK    4  A    between atoms: C16_22  and  C17_23 
REMARK    5  A    between atoms: C17_23  and  C18_24 
REMARK    6  A    between atoms: C18_24  and  N5_25 
ROOT
HETATM    1  O1  UNL     1      23.906   5.390  49.806  1.00  0.00    -0.271 OA
HETATM    2  C1  UNL     1      24.262   4.589  50.726  1.00  0.00     0.248 A 
HETATM    3  C2  UNL     1      23.441   4.893  51.911  1.00  0.00     0.279 A 
HETATM    4  O2  UNL     1      23.831   4.132  53.046  1.00  0.00    -0.340 OA
HETATM    5  C3  UNL     1      24.836   3.180  52.988  1.00  0.00     0.098 A 
HETATM    6  C4  UNL     1      25.153   2.513  54.125  1.00  0.00     0.071 C 
HETATM    7  C5  UNL     1      26.242   1.567  53.912  1.00  0.00     0.093 A 
HETATM    8  N1  UNL     1      27.238   1.229  54.677  1.00  0.00    -0.242 NA
HETATM    9  C6  UNL     1      28.067   0.251  54.012  1.00  0.00     0.230 A 
HETATM   10  N2  UNL     1      27.528   0.025  52.831  1.00  0.00    -0.240 NA
HETATM   11  C7  UNL     1      26.365   0.804  52.665  1.00  0.00     0.193 A 
HETATM   12  C14 UNL     1      26.334   1.771  51.533  1.00  0.00     0.067 C 
HETATM   13  C15 UNL     1      25.571   2.870  51.769  1.00  0.00     0.071 A 
HETATM   14  N4  UNL     1      25.302   3.589  50.539  1.00  0.00    -0.314 N 
ENDROOT
BRANCH  14  15
HETATM   15  C16 UNL     1      25.882   3.498  49.250  1.00  0.00     0.134 C 
BRANCH  15  16
HETATM   16  C17 UNL     1      27.148   4.275  49.023  1.00  0.00     0.050 C 
BRANCH  16  17
HETATM   17  C18 UNL     1      27.027   5.706  48.692  1.00  0.00     0.274 C 
BRANCH  17  18
HETATM   18  N5  UNL     1      28.208   6.227  48.044  1.00  0.00     0.092 N 
HETATM   19  C19 UNL     1      28.335   7.597  48.400  1.00  0.00     0.298 C 
HETATM   20  C20 UNL     1      29.741   8.074  48.649  1.00  0.00     0.198 C 
HETATM   21  O3  UNL     1      30.556   7.441  47.683  1.00  0.00    -0.388 OA
HETATM   22  C21 UNL     1      30.681   6.134  48.150  1.00  0.00     0.198 C 
HETATM   23  C22 UNL     1      29.379   5.424  48.265  1.00  0.00     0.298 C 
ENDBRANCH  17  18
ENDBRANCH  16  17
ENDBRANCH  15  16
ENDBRANCH  14  15
BRANCH  11  24
HETATM   24  N3  UNL     1      25.149  -0.040  52.601  1.00  0.00    -0.354 N 
HETATM   25  H5  UNL     1      25.180  -0.619  51.712  1.00  0.00     0.163 HD
BRANCH  24  26
HETATM   26  C8  UNL     1      23.960  -0.352  53.300  1.00  0.00     0.030 A 
HETATM   27  C9  UNL     1      23.928  -1.002  54.537  1.00  0.00     0.029 A 
HETATM   28  C10 UNL     1      22.703  -1.239  55.091  1.00  0.00     0.002 A 
HETATM   29  C11 UNL     1      21.526  -0.877  54.501  1.00  0.00     0.000 A 
HETATM   30  C12 UNL     1      21.541  -0.235  53.280  1.00  0.00     0.002 A 
HETATM   31  C13 UNL     1      22.761   0.006  52.721  1.00  0.00     0.029 A 
ENDBRANCH  24  26
ENDBRANCH  11  24
TORSDOF 6
ENDMDL
MODEL 3
REMARK VINA RESULT:      -8.0      2.634      6.081
REMARK  6 active torsions:
REMARK  status: ('A' for Active; 'I' for Inactive)
REMARK    1  A    between atoms: C7_11  and  N3_12 
REMARK    2  A    between atoms: N3_12  and  C8_13 
REMARK    3  A    between atoms: N4_21  and  C16_22 
REMARK    4  A    between atoms: C16_22  and  C17_23 
REMARK    5  A    between atoms: C17_23  and  C18_24 
REMARK    6  A    between atoms: C18_24  and  N5_25 
ROOT
HETATM    1  O1  UNL     1      22.032  -0.896  55.046  1.00  0.00    -0.271 OA
HETATM    2  C1  UNL     1      21.715  -0.386  53.927  1.00  0.00     0.248 A 
HETATM    3  C2  UNL     1      20.275  -0.629  53.729  1.00  0.00     0.279 A 
HETATM    4  O2  UNL     1      19.826  -0.201  52.450  1.00  0.00    -0.340 OA
HETATM    5  C3  UNL     1      20.668   0.423  51.543  1.00  0.00     0.098 A 
HETATM    6  C4  UNL     1      20.159   0.783  50.339  1.00  0.00     0.071 C 
HETATM    7  C5  UNL     1      21.167   1.401  49.488  1.00  0.00     0.093 A 
HETATM    8  N1  UNL     1      21.367   1.316  48.205  1.00  0.00    -0.242 NA
HETATM    9  C6  UNL     1      22.512   2.111  47.826  1.00  0.00     0.230 A 
HETATM   10  N2  UNL     1      22.980   2.666  48.925  1.00  0.00    -0.240 NA
HETATM   11  C7  UNL     1      22.200   2.287  50.037  1.00  0.00     0.193 A 
HETATM   12  C14 UNL     1      22.879   1.561  51.146  1.00  0.00     0.067 C 
HETATM   13  C15 UNL     1      22.071   0.701  51.818  1.00  0.00     0.071 A 
HETATM   14  N4  UNL     1      22.675   0.295  53.072  1.00  0.00    -0.314 N 
ENDROOT
BRANCH  14  15
HETATM   15  C16 UNL     1      23.997   0.421  53.564  1.00  0.00     0.134 C 
BRANCH  15  16
HETATM   16  C17 UNL     1      24.997  -0.593  53.083  1.00  0.00     0.050 C 
BRANCH  16  17
HETATM   17  C18 UNL     1      26.270  -0.096  52.532  1.00  0.00     0.274 C 
BRANCH  17  18
HETATM   18  N5  UNL     1      26.994   0.732  53.469  1.00  0.00     0.092 N 
HETATM   19  C19 UNL     1      27.930  -0.092  54.150  1.00  0.00     0.298 C 
HETATM   20  C20 UNL     1      29.270   0.539  54.423  1.00  0.00     0.198 C 
HETATM   21  O3  UNL     1      29.015   1.885  54.774  1.00  0.00    -0.388 OA
HETATM   22  C21 UNL     1      28.725   2.502  53.560  1.00  0.00     0.198 C 
HETATM   23  C22 UNL     1      27.540   1.920  52.873  1.00  0.00     0.298 C 
ENDBRANCH  17  18
ENDBRANCH  16  17
ENDBRANCH  15  16
ENDBRANCH  14  15
BRANCH  11  24
HETATM   24  N3  UNL     1      21.465   3.440  50.606  1.00  0.00    -0.354 N 
HETATM   25  H5  UNL     1      21.016   3.143  51.520  1.00  0.00     0.163 HD
BRANCH  24  26
HETATM   26  C8  UNL     1      21.146   4.798  50.368  1.00  0.00     0.030 A 
HETATM   27  C9  UNL     1      20.082   5.224  49.568  1.00  0.00     0.029 A 
HETATM   28  C10 UNL     1      19.899   6.569  49.429  1.00  0.00     0.002 A 
HETATM   29  C11 UNL     1      20.696   7.504  50.026  1.00  0.00     0.000 A 
HETATM   30  C12 UNL     1      21.750   7.099  50.819  1.00  0.00     0.002 A 
HETATM   31  C13 UNL     1      21.939   5.757  50.963  1.00  0.00     0.029 A 
ENDBRANCH  24  26
ENDBRANCH  11  24
TORSDOF 6
ENDMDL
MODEL 4
REMARK VINA RESULT:      -8.0      2.441      5.036
REMARK  6 active torsions:
REMARK  status: ('A' for Active; 'I' for Inactive)
REMARK    1  A    between atoms: C7_11  and  N3_12 
REMARK    2  A    between atoms: N3_12  and  C8_13 
REMARK    3  A    between atoms: N4_21  and  C16_22 
REMARK    4  A    between atoms: C16_22  and  C17_23 
REMARK    5  A    between atoms: C17_23  and  C18_24 
REMARK    6  A    between atoms: C18_24  and  N5_25 
ROOT
HETATM    1  O1  UNL     1      19.939   3.703  49.944  1.00  0.00    -0.271 OA
HETATM    2  C1  UNL     1      21.129   4.132  50.064  1.00  0.00     0.248 A 
HETATM    3  C2  UNL     1      21.081   5.307  50.953  1.00  0.00     0.279 A 
HETATM    4  O2  UNL     1      22.344   5.946  51.071  1.00  0.00    -0.340 OA
HETATM    5  C3  UNL     1      23.482   5.455  50.451  1.00  0.00     0.098 A 
HETATM    6  C4  UNL     1      24.642   6.139  50.605  1.00  0.00     0.071 C 
HETATM    7  C5  UNL     1      25.739   5.516  49.874  1.00  0.00     0.093 A 
HETATM    8  N1  UNL     1      26.733   6.042  49.219  1.00  0.00    -0.242 NA
HETATM    9  C6  UNL     1      27.558   5.002  48.649  1.00  0.00     0.230 A 
HETATM   10  N2  UNL     1      27.019   3.849  48.989  1.00  0.00    -0.240 NA
HETATM   11  C7  UNL     1      25.864   4.058  49.769  1.00  0.00     0.193 A 
HETATM   12  C14 UNL     1      24.572   3.526  49.253  1.00  0.00     0.067 C 
HETATM   13  C15 UNL     1      23.487   4.247  49.636  1.00  0.00     0.071 A 
HETATM   14  N4  UNL     1      22.263   3.505  49.403  1.00  0.00    -0.314 N 
ENDROOT
BRANCH  14  15
HETATM   15  C16 UNL     1      22.000   2.339  48.644  1.00  0.00     0.134 C 
BRANCH  15  16
HETATM   16  C17 UNL     1      21.673   1.091  49.415  1.00  0.00     0.050 C 
BRANCH  16  17
HETATM   17  C18 UNL     1      22.207   0.968  50.783  1.00  0.00     0.274 C 
BRANCH  17  18
HETATM   18  N5  UNL     1      21.426   0.072  51.604  1.00  0.00     0.092 N 
HETATM   19  C19 UNL     1      21.973   0.090  52.916  1.00  0.00     0.298 C 
HETATM   20  C20 UNL     1      20.970   0.043  54.038  1.00  0.00     0.198 C 
HETATM   21  O3  UNL     1      19.954  -0.852  53.629  1.00  0.00    -0.388 OA
HETATM   22  C21 UNL     1      19.213  -0.122  52.702  1.00  0.00     0.198 C 
HETATM   23  C22 UNL     1      20.012   0.316  51.526  1.00  0.00     0.298 C 
ENDBRANCH  17  18
ENDBRANCH  16  17
ENDBRANCH  15  16
ENDBRANCH  14  15
BRANCH  11  24
HETATM   24  N3  UNL     1      26.051   3.580  51.159  1.00  0.00    -0.354 N 
HETATM   25  H5  UNL     1      26.317   4.404  51.771  1.00  0.00     0.163 HD
BRANCH  24  26
HETATM   26  C8  UNL     1      26.000   2.418  51.965  1.00  0.00     0.030 A 
HETATM   27  C9  UNL     1      25.316   2.339  53.181  1.00  0.00     0.029 A 
HETATM   28  C10 UNL     1      25.359   1.150  53.850  1.00  0.00     0.002 A 
HETATM   29  C11 UNL     1      26.030   0.052  53.393  1.00  0.00     0.000 A 
HETATM   30  C12 UNL     1      26.710   0.115  52.194  1.00  0.00     0.002 A 
HETATM   31  C13 UNL     1      26.671   1.299  51.520  1.00  0.00     0.029 A 
ENDBRANCH  24  26
ENDBRANCH  11  24
TORSDOF 6
ENDMDL
MODEL 5
REMARK VINA RESULT:      -7.7      2.738      5.943
REMARK  6 active torsions:
REMARK  status: ('A' for Active; 'I' for Inactive)
REMARK    1  A    between atoms: C7_11  and  N3_12 
REMARK    2  A    between atoms: N3_12  and  C8_13 
REMARK    3  A    between atoms: N4_21  and  C16_22 
REMARK    4  A    between atoms: C16_22  and  C17_23 
REMARK    5  A    between atoms: C17_23  and  C18_24 
REMARK    6  A    between atoms: C18_24  and  N5_25 
ROOT
HETATM    1  O1  UNL     1      21.556   5.846  49.452  1.00  0.00    -0.271 OA
HETATM    2  C1  UNL     1      22.211   5.135  50.276  1.00  0.00     0.248 A 
HETATM    3  C2  UNL     1      21.688   5.433  51.621  1.00  0.00     0.279 A 
HETATM    4  O2  UNL     1      22.425   4.778  52.644  1.00  0.00    -0.340 OA
HETATM    5  C3  UNL     1      23.475   3.917  52.363  1.00  0.00     0.098 A 
HETATM    6  C4  UNL     1      24.134   3.349  53.402  1.00  0.00     0.071 C 
HETATM    7  C5  UNL     1      25.223   2.493  52.950  1.00  0.00     0.093 A 
HETATM    8  N1  UNL     1      26.409   2.291  53.446  1.00  0.00    -0.242 NA
HETATM    9  C6  UNL     1      27.139   1.354  52.624  1.00  0.00     0.230 A 
HETATM   10  N2  UNL     1      26.346   1.012  51.628  1.00  0.00    -0.240 NA
HETATM   11  C7  UNL     1      25.106   1.672  51.739  1.00  0.00     0.193 A 
HETATM   12  C14 UNL     1      24.693   2.565  50.622  1.00  0.00     0.067 C 
HETATM   13  C15 UNL     1      23.907   3.604  51.007  1.00  0.00     0.071 A 
HETATM   14  N4  UNL     1      23.265   4.222  49.863  1.00  0.00    -0.314 N 
ENDROOT
BRANCH  14  15
HETATM   15  C16 UNL     1      23.509   4.108  48.473  1.00  0.00     0.134 C 
BRANCH  15  16
HETATM   16  C17 UNL     1      22.480   3.369  47.665  1.00  0.00     0.050 C 
BRANCH  16  17
HETATM   17  C18 UNL     1      22.181   1.976  48.041  1.00  0.00     0.274 C 
BRANCH  17  18
HETATM   18  N5  UNL     1      20.821   1.805  48.498  1.00  0.00     0.092 N 
HETATM   19  C19 UNL     1      20.854   1.579  49.901  1.00  0.00     0.298 C 
HETATM   20  C20 UNL     1      19.751   2.235  50.689  1.00  0.00     0.198 C 
HETATM   21  O3  UNL     1      18.578   2.119  49.908  1.00  0.00    -0.388 OA
HETATM   22  C21 UNL     1      18.738   3.080  48.912  1.00  0.00     0.198 C 
HETATM   23  C22 UNL     1      19.940   2.854  48.065  1.00  0.00     0.298 C 
ENDBRANCH  17  18
ENDBRANCH  16  17
ENDBRANCH  15  16
ENDBRANCH  14  15
BRANCH  11  24
HETATM   24  N3  UNL     1      24.005   0.721  52.017  1.00  0.00    -0.354 N 
HETATM   25  H5  UNL     1      23.632   0.351  51.096  1.00  0.00     0.163 HD
BRANCH  24  26
HETATM   26  C8  UNL     1      23.272   0.127  53.072  1.00  0.00     0.030 A 
HETATM   27  C9  UNL     1      23.835  -0.702  54.046  1.00  0.00     0.029 A 
HETATM   28  C10 UNL     1      23.001  -1.206  55.002  1.00  0.00     0.002 A 
HETATM   29  C11 UNL     1      21.662  -0.940  55.049  1.00  0.00     0.000 A 
HETATM   30  C12 UNL     1      21.092  -0.124  54.095  1.00  0.00     0.002 A 
HETATM   31  C13 UNL     1      21.919   0.383  53.137  1.00  0.00     0.029 A 
ENDBRANCH  24  26
ENDBRANCH  11  24
TORSDOF 6
ENDMDL
MODEL 6
REMARK VINA RESULT:      -7.4      2.638      7.081
REMARK  6 active torsions:
REMARK  status: ('A' for Active; 'I' for Inactive)
REMARK    1  A    between atoms: C7_11  and  N3_12 
REMARK    2  A    between atoms: N3_12  and  C8_13 
REMARK    3  A    between atoms: N4_21  and  C16_22 
REMARK    4  A    between atoms: C16_22  and  C17_23 
REMARK    5  A    between atoms: C17_23  and  C18_24 
REMARK    6  A    between atoms: C18_24  and  N5_25 
ROOT
HETATM    1  O1  UNL     1      25.132   5.868  50.301  1.00  0.00    -0.271 OA
HETATM    2  C1  UNL     1      24.182   5.138  50.723  1.00  0.00     0.248 A 
HETATM    3  C2  UNL     1      23.081   6.037  51.114  1.00  0.00     0.279 A 
HETATM    4  O2  UNL     1      21.999   5.337  51.712  1.00  0.00    -0.340 OA
HETATM    5  C3  UNL     1      21.994   3.957  51.842  1.00  0.00     0.098 A 
HETATM    6  C4  UNL     1      20.927   3.374  52.442  1.00  0.00     0.071 C 
HETATM    7  C5  UNL     1      21.078   1.927  52.528  1.00  0.00     0.093 A 
HETATM    8  N1  UNL     1      20.738   1.090  53.464  1.00  0.00    -0.242 NA
HETATM    9  C6  UNL     1      21.113  -0.254  53.090  1.00  0.00     0.230 A 
HETATM   10  N2  UNL     1      21.684  -0.182  51.905  1.00  0.00    -0.240 NA
HETATM   11  C7  UNL     1      21.711   1.153  51.454  1.00  0.00     0.193 A 
HETATM   12  C14 UNL     1      23.040   1.765  51.175  1.00  0.00     0.067 C 
HETATM   13  C15 UNL     1      23.082   3.108  51.375  1.00  0.00     0.071 A 
HETATM   14  N4  UNL     1      24.266   3.686  50.770  1.00  0.00    -0.314 N 
ENDROOT
BRANCH  14  15
HETATM   15  C16 UNL     1      25.450   3.094  50.267  1.00  0.00     0.134 C 
BRANCH  15  16
HETATM   16  C17 UNL     1      26.500   2.722  51.276  1.00  0.00     0.050 C 
BRANCH  16  17
HETATM   17  C18 UNL     1      26.687   1.292  51.579  1.00  0.00     0.274 C 
BRANCH  17  18
HETATM   18  N5  UNL     1      27.202   1.070  52.910  1.00  0.00     0.092 N 
HETATM   19  C19 UNL     1      27.606  -0.289  53.004  1.00  0.00     0.298 C 
HETATM   20  C20 UNL     1      28.867  -0.539  53.787  1.00  0.00     0.198 C 
HETATM   21  O3  UNL     1      28.832   0.342  54.893  1.00  0.00    -0.388 OA
HETATM   22  C21 UNL     1      29.154   1.583  54.348  1.00  0.00     0.198 C 
HETATM   23  C22 UNL     1      28.193   2.033  53.305  1.00  0.00     0.298 C 
ENDBRANCH  17  18
ENDBRANCH  16  17
ENDBRANCH  15  16
ENDBRANCH  14  15
BRANCH  11  24
HETATM   24  N3  UNL     1      20.843   1.346  50.269  1.00  0.00    -0.354 N 
HETATM   25  H5  UNL     1      21.451   1.376  49.400  1.00  0.00     0.163 HD
BRANCH  24  26
HETATM   26  C8  UNL     1      19.492   1.504  49.879  1.00  0.00     0.030 A 
HETATM   27  C9  UNL     1      19.014   2.584  49.132  1.00  0.00     0.029 A 
HETATM   28  C10 UNL     1      17.683   2.602  48.833  1.00  0.00     0.002 A 
HETATM   29  C11 UNL     1      16.809   1.627  49.225  1.00  0.00     0.000 A 
HETATM   30  C12 UNL     1      17.266   0.555  49.962  1.00  0.00     0.002 A 
HETATM   31  C13 UNL     1      18.595   0.530  50.265  1.00  0.00     0.029 A 
ENDBRANCH  24  26
ENDBRANCH  11  24
TORSDOF 6
ENDMDL
MODEL 7
REMARK VINA RESULT:      -7.3      3.035      6.346
REMARK  6 active torsions:
REMARK  status: ('A' for Active; 'I' for Inactive)
REMARK    1  A    between atoms: C7_11  and  N3_12 
REMARK    2  A    between atoms: N3_12  and  C8_13 
REMARK    3  A    between atoms: N4_21  and  C16_22 
REMARK    4  A    between atoms: C16_22  and  C17_23 
REMARK    5  A    between atoms: C17_23  and  C18_24 
REMARK    6  A    between atoms: C18_24  and  N5_25 
ROOT
HETATM    1  O1  UNL     1      21.704   0.238  50.811  1.00  0.00    -0.271 OA
HETATM    2  C1  UNL     1      22.073   1.358  50.338  1.00  0.00     0.248 A 
HETATM    3  C2  UNL     1      21.374   1.539  49.053  1.00  0.00     0.279 A 
HETATM    4  O2  UNL     1      21.797   2.712  48.370  1.00  0.00    -0.340 OA
HETATM    5  C3  UNL     1      22.721   3.590  48.913  1.00  0.00     0.098 A 
HETATM    6  C4  UNL     1      23.079   4.676  48.184  1.00  0.00     0.071 C 
HETATM    7  C5  UNL     1      24.074   5.487  48.873  1.00  0.00     0.093 A 
HETATM    8  N1  UNL     1      25.101   6.144  48.418  1.00  0.00    -0.242 NA
HETATM    9  C6  UNL     1      25.800   6.790  49.504  1.00  0.00     0.230 A 
HETATM   10  N2  UNL     1      25.152   6.493  50.613  1.00  0.00    -0.240 NA
HETATM   11  C7  UNL     1      24.040   5.676  50.328  1.00  0.00     0.193 A 
HETATM   12  C14 UNL     1      23.989   4.328  50.961  1.00  0.00     0.067 C 
HETATM   13  C15 UNL     1      23.331   3.397  50.222  1.00  0.00     0.071 A 
HETATM   14  N4  UNL     1      23.017   2.228  51.021  1.00  0.00    -0.314 N 
ENDROOT
BRANCH  14  15
HETATM   15  C16 UNL     1      23.484   1.803  52.288  1.00  0.00     0.134 C 
BRANCH  15  16
HETATM   16  C17 UNL     1      24.831   1.137  52.324  1.00  0.00     0.050 C 
BRANCH  16  17
HETATM   17  C18 UNL     1      25.260   0.522  53.592  1.00  0.00     0.274 C 
BRANCH  17  18
HETATM   18  N5  UNL     1      26.401   1.191  54.175  1.00  0.00     0.092 N 
HETATM   19  C19 UNL     1      27.195   0.213  54.832  1.00  0.00     0.298 C 
HETATM   20  C20 UNL     1      28.684   0.396  54.707  1.00  0.00     0.198 C 
HETATM   21  O3  UNL     1      28.925   1.787  54.799  1.00  0.00    -0.388 OA
HETATM   22  C21 UNL     1      28.538   2.281  53.555  1.00  0.00     0.198 C 
HETATM   23  C22 UNL     1      27.104   2.029  53.244  1.00  0.00     0.298 C 
ENDBRANCH  17  18
ENDBRANCH  16  17
ENDBRANCH  15  16
ENDBRANCH  14  15
BRANCH  11  24
HETATM   24  N3  UNL     1      22.764   6.376  50.602  1.00  0.00    -0.354 N 
HETATM   25  H5  UNL     1      22.413   6.086  51.560  1.00  0.00     0.163 HD
BRANCH  24  26
HETATM   26  C8  UNL     1      21.844   7.296  50.045  1.00  0.00     0.030 A 
HETATM   27  C9  UNL     1      20.477   7.045  49.900  1.00  0.00     0.029 A 
HETATM   28  C10 UNL     1      19.713   8.027  49.342  1.00  0.00     0.002 A 
HETATM   29  C11 UNL     1      20.215   9.226  48.923  1.00  0.00     0.000 A 
HETATM   30  C12 UNL     1      21.562   9.489  49.059  1.00  0.00     0.002 A 
HETATM   31  C13 UNL     1      22.332   8.512  49.616  1.00  0.00     0.029 A 
ENDBRANCH  24  26
ENDBRANCH  11  24
TORSDOF 6
ENDMDL
MODEL 8
REMARK VINA RESULT:      -7.2      3.007      5.692
REMARK  6 active torsions:
REMARK  status: ('A' for Active; 'I' for Inactive)
REMARK    1  A    between atoms: C7_11  and  N3_12 
REMARK    2  A    between atoms: N3_12  and  C8_13 
REMARK    3  A    between atoms: N4_21  and  C16_22 
REMARK    4  A    between atoms: C16_22  and  C17_23 
REMARK    5  A    between atoms: C17_23  and  C18_24 
REMARK    6  A    between atoms: C18_24  and  N5_25 
ROOT
HETATM    1  O1  UNL     1      19.955   5.502  49.258  1.00  0.00    -0.271 OA
HETATM    2  C1  UNL     1      21.171   5.777  49.502  1.00  0.00     0.248 A 
HETATM    3  C2  UNL     1      21.185   6.741  50.617  1.00  0.00     0.279 A 
HETATM    4  O2  UNL     1      22.494   7.213  50.904  1.00  0.00    -0.340 OA
HETATM    5  C3  UNL     1      23.612   6.751  50.228  1.00  0.00     0.098 A 
HETATM    6  C4  UNL     1      24.820   7.271  50.556  1.00  0.00     0.071 C 
HETATM    7  C5  UNL     1      25.891   6.707  49.744  1.00  0.00     0.093 A 
HETATM    8  N1  UNL     1      26.959   7.256  49.244  1.00  0.00    -0.242 NA
HETATM    9  C6  UNL     1      27.714   6.281  48.492  1.00  0.00     0.230 A 
HETATM   10  N2  UNL     1      27.057   5.141  48.565  1.00  0.00    -0.240 NA
HETATM   11  C7  UNL     1      25.888   5.297  49.337  1.00  0.00     0.193 A 
HETATM   12  C14 UNL     1      24.581   5.014  48.682  1.00  0.00     0.067 C 
HETATM   13  C15 UNL     1      23.548   5.744  49.177  1.00  0.00     0.071 A 
HETATM   14  N4  UNL     1      22.274   5.192  48.756  1.00  0.00    -0.314 N 
ENDROOT
BRANCH  14  15
HETATM   15  C16 UNL     1      21.945   4.240  47.761  1.00  0.00     0.134 C 
BRANCH  15  16
HETATM   16  C17 UNL     1      21.990   2.794  48.168  1.00  0.00     0.050 C 
BRANCH  16  17
HETATM   17  C18 UNL     1      20.708   2.097  48.372  1.00  0.00     0.274 C 
BRANCH  17  18
HETATM   18  N5  UNL     1      20.374   1.949  49.770  1.00  0.00     0.092 N 
HETATM   19  C19 UNL     1      18.959   1.862  49.876  1.00  0.00     0.298 C 
HETATM   20  C20 UNL     1      18.445   0.886  50.900  1.00  0.00     0.198 C 
HETATM   21  O3  UNL     1      19.306   0.986  52.017  1.00  0.00    -0.388 OA
HETATM   22  C21 UNL     1      20.455   0.304  51.622  1.00  0.00     0.198 C 
HETATM   23  C22 UNL     1      21.104   0.896  50.420  1.00  0.00     0.298 C 
ENDBRANCH  17  18
ENDBRANCH  16  17
ENDBRANCH  15  16
ENDBRANCH  14  15
BRANCH  11  24
HETATM   24  N3  UNL     1      25.962   4.526  50.600  1.00  0.00    -0.354 N 
HETATM   25  H5  UNL     1      26.395   5.138  51.350  1.00  0.00     0.163 HD
BRANCH  24  26
HETATM   26  C8  UNL     1      25.661   3.265  51.166  1.00  0.00     0.030 A 
HETATM   27  C9  UNL     1      24.416   2.925  51.703  1.00  0.00     0.029 A 
HETATM   28  C10 UNL     1      24.274   1.670  52.217  1.00  0.00     0.002 A 
HETATM   29  C11 UNL     1      25.278   0.744  52.232  1.00  0.00     0.000 A 
HETATM   30  C12 UNL     1      26.513   1.064  51.706  1.00  0.00     0.002 A 
HETATM   31  C13 UNL     1      26.661   2.316  51.190  1.00  0.00     0.029 A 
ENDBRANCH  24  26
ENDBRANCH  11  24
TORSDOF 6
ENDMDL
MODEL 9
REMARK VINA RESULT:      -7.1      3.371      6.134
REMARK  6 active torsions:
REMARK  status: ('A' for Active; 'I' for Inactive)
REMARK    1  A    between atoms: C7_11  and  N3_12 
REMARK    2  A    between atoms: N3_12  and  C8_13 
REMARK    3  A    between atoms: N4_21  and  C16_22 
REMARK    4  A    between atoms: C16_22  and  C17_23 
REMARK    5  A    between atoms: C17_23  and  C18_24 
REMARK    6  A    between atoms: C18_24  and  N5_25 
ROOT
HETATM    1  O1  UNL     1      19.518   1.165  50.349  1.00  0.00    -0.271 OA
HETATM    2  C1  UNL     1      20.361   2.028  50.747  1.00  0.00     0.248 A 
HETATM    3  C2  UNL     1      19.902   2.512  52.061  1.00  0.00     0.279 A 
HETATM    4  O2  UNL     1      20.708   3.571  52.558  1.00  0.00    -0.340 OA
HETATM    5  C3  UNL     1      21.827   4.029  51.879  1.00  0.00     0.098 A 
HETATM    6  C4  UNL     1      22.529   5.056  52.419  1.00  0.00     0.071 C 
HETATM    7  C5  UNL     1      23.657   5.441  51.580  1.00  0.00     0.093 A 
HETATM    8  N1  UNL     1      24.161   6.611  51.315  1.00  0.00    -0.242 NA
HETATM    9  C6  UNL     1      25.279   6.477  50.410  1.00  0.00     0.230 A 
HETATM   10  N2  UNL     1      25.417   5.193  50.151  1.00  0.00    -0.240 NA
HETATM   11  C7  UNL     1      24.443   4.445  50.843  1.00  0.00     0.193 A 
HETATM   12  C14 UNL     1      23.497   3.623  50.038  1.00  0.00     0.067 C 
HETATM   13  C15 UNL     1      22.277   3.466  50.613  1.00  0.00     0.071 A 
HETATM   14  N4  UNL     1      21.534   2.399  49.971  1.00  0.00    -0.314 N 
ENDROOT
BRANCH  14  15
HETATM   15  C16 UNL     1      21.742   1.710  48.751  1.00  0.00     0.134 C 
BRANCH  15  16
HETATM   16  C17 UNL     1      21.131   2.319  47.520  1.00  0.00     0.050 C 
BRANCH  16  17
HETATM   17  C18 UNL     1      21.932   3.300  46.768  1.00  0.00     0.274 C 
BRANCH  17  18
HETATM   18  N5  UNL     1      21.178   4.484  46.423  1.00  0.00     0.092 N 
HETATM   19  C19 UNL     1      20.331   4.799  47.521  1.00  0.00     0.298 C 
HETATM   20  C20 UNL     1      20.179   6.266  47.822  1.00  0.00     0.198 C 
HETATM   21  O3  UNL     1      20.116   6.927  46.573  1.00  0.00    -0.388 OA
HETATM   22  C21 UNL     1      21.435   6.930  46.124  1.00  0.00     0.198 C 
HETATM   23  C22 UNL     1      22.000   5.564  45.953  1.00  0.00     0.298 C 
ENDBRANCH  17  18
ENDBRANCH  16  17
ENDBRANCH  15  16
ENDBRANCH  14  15
BRANCH  11  24
HETATM   24  N3  UNL     1      25.054   3.583  51.881  1.00  0.00    -0.354 N 
HETATM   25  H5  UNL     1      25.461   4.199  52.643  1.00  0.00     0.163 HD
BRANCH  24  26
HETATM   26  C8  UNL     1      25.290   2.230  52.224  1.00  0.00     0.030 A 
HETATM   27  C9  UNL     1      24.454   1.475  53.051  1.00  0.00     0.029 A 
HETATM   28  C10 UNL     1      24.812   0.181  53.294  1.00  0.00     0.002 A 
HETATM   29  C11 UNL     1      25.933  -0.401  52.775  1.00  0.00     0.000 A 
HETATM   30  C12 UNL     1      26.769   0.331  51.957  1.00  0.00     0.002 A 
HETATM   31  C13 UNL     1      26.417   1.624  51.709  1.00  0.00     0.029 A 
ENDBRANCH  24  26
ENDBRANCH  11  24
TORSDOF 6
ENDMDL
