MODEL 1
REMARK VINA RESULT:      -9.0      0.000      0.000
REMARK  8 active torsions:
REMARK  status: ('A' for Active; 'I' for Inactive)
REMARK    1  A    between atoms: C4_6  and  C5_7 
REMARK    2  A    between atoms: C6_8  and  C7_9 
REMARK    3  A    between atoms: C8_11  and  N2_12 
REMARK    4  A    between atoms: N3_14  and  C10_15 
REMARK    5  A    between atoms: C10_15  and  C11_16 
REMARK    6  A    between atoms: C12_17  and  C13_18 
REMARK    7  A    between atoms: C13_18  and  N4_19 
REMARK    8  A    between atoms: C18_24  and  N5_25 
ROOT
HETATM    1  C11 UNL     1      22.270   1.770  52.965  1.00  0.00    -0.009 C 
HETATM    2  C12 UNL     1      22.170   2.525  51.894  1.00  0.00     0.001 C 
ENDROOT
BRANCH   1   3
HETATM    3  C10 UNL     1      22.294   0.292  53.130  1.00  0.00     0.153 C 
BRANCH   3   4
HETATM    4  N3  UNL     1      23.507  -0.162  53.781  1.00  0.00    -0.341 N 
HETATM    5  C1  UNL     1      23.324  -1.027  54.916  1.00  0.00     0.244 C 
HETATM    6  O1  UNL     1      22.204  -1.457  55.211  1.00  0.00    -0.271 OA
HETATM    7  C2  UNL     1      24.608  -1.315  55.646  1.00  0.00     0.278 C 
HETATM    8  O2  UNL     1      25.676  -1.370  54.711  1.00  0.00    -0.345 OA
HETATM    9  C3  UNL     1      25.863  -0.418  53.759  1.00  0.00     0.063 C 
HETATM   10  C4  UNL     1      26.969  -0.012  53.216  1.00  0.00     0.041 C 
HETATM   11  C9  UNL     1      24.728   0.332  53.183  1.00  0.00     0.190 C 
BRANCH  10  12
HETATM   12  C5  UNL     1      28.316  -0.435  53.448  1.00  0.00     0.110 A 
HETATM   13  C6  UNL     1      28.641   0.453  53.943  1.00  0.00     0.050 A 
HETATM   14  N2  UNL     1      29.686  -0.410  53.887  1.00  0.00    -0.233 NA
BRANCH  13  15
HETATM   15  C7  UNL     1      28.952   1.240  54.389  1.00  0.00     0.090 A 
HETATM   16  N1  UNL     1      29.281   2.113  54.855  1.00  0.00    -0.262 NA
HETATM   17  C8  UNL     1      28.350   2.236  53.157  1.00  0.00     0.242 A 
ENDBRANCH  13  15
ENDBRANCH  10  12
ENDBRANCH   3   4
ENDBRANCH   1   3
BRANCH   2  18
HETATM   18  C13 UNL     1      22.129   3.979  51.524  1.00  0.00     0.302 C 
BRANCH  18  19
HETATM   19  N4  UNL     1      22.108   4.006  50.070  1.00  0.00     0.114 N 
HETATM   20  C14 UNL     1      20.758   3.843  49.643  1.00  0.00     0.275 C 
HETATM   21  C15 UNL     1      20.600   3.537  48.186  1.00  0.00     0.030 C 
HETATM   22  C16 UNL     1      21.316   2.195  47.975  1.00  0.00     0.005 C 
HETATM   23  C17 UNL     1      22.768   2.492  48.223  1.00  0.00     0.057 C 
HETATM   24  C18 UNL     1      23.069   3.090  49.557  1.00  0.00     0.324 C 
BRANCH  24  25
HETATM   25  N5  UNL     1      24.314   3.848  49.369  1.00  0.00    -0.355 N 
HETATM   26  C19 UNL     1      24.142   5.154  48.830  1.00  0.00     0.112 A 
HETATM   27  C20 UNL     1      25.170   5.933  48.599  1.00  0.00     0.049 A 
HETATM   28 CL1  UNL     1      25.018   7.548  47.936  1.00  0.00    -0.083 Cl
HETATM   29  C21 UNL     1      26.538   5.492  48.891  1.00  0.00     0.023 A 
HETATM   30  C22 UNL     1      26.657   4.273  49.395  1.00  0.00    -0.005 A 
HETATM   31  C23 UNL     1      25.587   3.296  49.705  1.00  0.00     0.151 A 
ENDBRANCH  24  25
ENDBRANCH  18  19
ENDBRANCH   2  18
TORSDOF 8
ENDMDL
MODEL 2
REMARK VINA RESULT:      -8.6      5.016      7.227
REMARK  8 active torsions:
REMARK  status: ('A' for Active; 'I' for Inactive)
REMARK    1  A    between atoms: C4_6  and  C5_7 
REMARK    2  A    between atoms: C6_8  and  C7_9 
REMARK    3  A    between atoms: C8_11  and  N2_12 
REMARK    4  A    between atoms: N3_14  and  C10_15 
REMARK    5  A    between atoms: C10_15  and  C11_16 
REMARK    6  A    between atoms: C12_17  and  C13_18 
REMARK    7  A    between atoms: C13_18  and  N4_19 
REMARK    8  A    between atoms: C18_24  and  N5_25 
ROOT
HETATM    1  C11 UNL     1      27.219   4.545  48.948  1.00  0.00    -0.009 C 
HETATM    2  C12 UNL     1      28.197   5.313  48.518  1.00  0.00     0.001 C 
ENDROOT
BRANCH   1   3
HETATM    3  C10 UNL     1      25.895   4.876  49.539  1.00  0.00     0.153 C 
BRANCH   3   4
HETATM    4  N3  UNL     1      25.490   3.908  50.539  1.00  0.00    -0.341 N 
HETATM    5  C1  UNL     1      24.181   4.099  51.104  1.00  0.00     0.244 C 
HETATM    6  O1  UNL     1      23.413   4.953  50.649  1.00  0.00    -0.271 OA
HETATM    7  C2  UNL     1      23.898   3.171  52.254  1.00  0.00     0.278 C 
HETATM    8  O2  UNL     1      24.537   1.925  52.018  1.00  0.00    -0.345 OA
HETATM    9  C3  UNL     1      25.838   1.833  51.629  1.00  0.00     0.063 C 
HETATM   10  C4  UNL     1      26.697   0.891  51.870  1.00  0.00     0.041 C 
HETATM   11  C9  UNL     1      26.478   2.889  50.818  1.00  0.00     0.190 C 
BRANCH  10  12
HETATM   12  C5  UNL     1      26.546  -0.325  52.608  1.00  0.00     0.110 A 
HETATM   13  C6  UNL     1      27.111  -0.023  53.461  1.00  0.00     0.050 A 
HETATM   14  N2  UNL     1      26.667  -1.289  53.669  1.00  0.00    -0.233 NA
BRANCH  13  15
HETATM   15  C7  UNL     1      27.615   0.227  54.234  1.00  0.00     0.090 A 
HETATM   16  N1  UNL     1      28.186   0.496  55.064  1.00  0.00    -0.262 NA
HETATM   17  C8  UNL     1      29.079  -0.115  53.454  1.00  0.00     0.242 A 
ENDBRANCH  13  15
ENDBRANCH  10  12
ENDBRANCH   3   4
ENDBRANCH   1   3
BRANCH   2  18
HETATM   18  C13 UNL     1      29.563   5.185  47.910  1.00  0.00     0.302 C 
BRANCH  18  19
HETATM   19  N4  UNL     1      30.209   6.467  48.142  1.00  0.00     0.114 N 
HETATM   20  C14 UNL     1      29.197   7.430  48.423  1.00  0.00     0.275 C 
HETATM   21  C15 UNL     1      29.662   8.853  48.378  1.00  0.00     0.030 C 
HETATM   22  C16 UNL     1      30.125   9.079  46.932  1.00  0.00     0.005 C 
HETATM   23  C17 UNL     1      31.333   8.200  46.773  1.00  0.00     0.057 C 
HETATM   24  C18 UNL     1      31.103   6.756  47.072  1.00  0.00     0.324 C 
BRANCH  24  25
HETATM   25  N5  UNL     1      32.417   6.230  47.470  1.00  0.00    -0.355 N 
HETATM   26  C19 UNL     1      33.040   5.389  46.506  1.00  0.00     0.112 A 
HETATM   27  C20 UNL     1      34.208   4.842  46.738  1.00  0.00     0.049 A 
HETATM   28 CL1  UNL     1      35.023   3.799  45.590  1.00  0.00    -0.083 Cl
HETATM   29  C21 UNL     1      34.921   5.078  47.999  1.00  0.00     0.023 A 
HETATM   30  C22 UNL     1      34.311   5.869  48.868  1.00  0.00    -0.005 A 
HETATM   31  C23 UNL     1      33.001   6.548  48.734  1.00  0.00     0.151 A 
ENDBRANCH  24  25
ENDBRANCH  18  19
ENDBRANCH   2  18
TORSDOF 8
ENDMDL
MODEL 3
REMARK VINA RESULT:      -8.5      3.210      5.489
REMARK  8 active torsions:
REMARK  status: ('A' for Active; 'I' for Inactive)
REMARK    1  A    between atoms: C4_6  and  C5_7 
REMARK    2  A    between atoms: C6_8  and  C7_9 
REMARK    3  A    between atoms: C8_11  and  N2_12 
REMARK    4  A    between atoms: N3_14  and  C10_15 
REMARK    5  A    between atoms: C10_15  and  C11_16 
REMARK    6  A    between atoms: C12_17  and  C13_18 
REMARK    7  A    between atoms: C13_18  and  N4_19 
REMARK    8  A    between atoms: C18_24  and  N5_25 
ROOT
HETATM    1  C11 UNL     1      23.064   2.784  48.879  1.00  0.00    -0.009 C 
HETATM    2  C12 UNL     1      22.325   1.898  49.510  1.00  0.00     0.001 C 
ENDROOT
BRANCH   1   3
HETATM    3  C10 UNL     1      24.162   3.668  49.354  1.00  0.00     0.153 C 
BRANCH   3   4
HETATM    4  N3  UNL     1      24.370   3.553  50.783  1.00  0.00    -0.341 N 
HETATM    5  C1  UNL     1      23.568   4.419  51.606  1.00  0.00     0.244 C 
HETATM    6  O1  UNL     1      22.666   5.104  51.113  1.00  0.00    -0.271 OA
HETATM    7  C2  UNL     1      23.959   4.374  53.058  1.00  0.00     0.278 C 
HETATM    8  O2  UNL     1      24.386   3.060  53.388  1.00  0.00    -0.345 OA
HETATM    9  C3  UNL     1      25.274   2.367  52.626  1.00  0.00     0.063 C 
HETATM   10  C4  UNL     1      26.139   1.472  52.991  1.00  0.00     0.041 C 
HETATM   11  C9  UNL     1      25.365   2.575  51.166  1.00  0.00     0.190 C 
BRANCH  10  12
HETATM   12  C5  UNL     1      26.423   0.943  54.289  1.00  0.00     0.110 A 
HETATM   13  C6  UNL     1      27.119   0.200  53.970  1.00  0.00     0.050 A 
HETATM   14  N2  UNL     1      27.001   0.122  55.319  1.00  0.00    -0.233 NA
BRANCH  13  15
HETATM   15  C7  UNL     1      27.745  -0.473  53.705  1.00  0.00     0.090 A 
HETATM   16  N1  UNL     1      28.409  -1.218  53.401  1.00  0.00    -0.262 NA
HETATM   17  C8  UNL     1      26.575  -1.267  52.772  1.00  0.00     0.242 A 
ENDBRANCH  13  15
ENDBRANCH  10  12
ENDBRANCH   3   4
ENDBRANCH   1   3
BRANCH   2  18
HETATM   18  C13 UNL     1      21.208   0.936  49.226  1.00  0.00     0.302 C 
BRANCH  18  19
HETATM   19  N4  UNL     1      20.083   1.408  50.017  1.00  0.00     0.114 N 
HETATM   20  C14 UNL     1      19.306   2.285  49.206  1.00  0.00     0.275 C 
HETATM   21  C15 UNL     1      18.296   3.096  49.957  1.00  0.00     0.030 C 
HETATM   22  C16 UNL     1      19.114   3.964  50.923  1.00  0.00     0.005 C 
HETATM   23  C17 UNL     1      19.727   2.991  51.890  1.00  0.00     0.057 C 
HETATM   24  C18 UNL     1      20.550   1.916  51.263  1.00  0.00     0.324 C 
BRANCH  24  25
HETATM   25  N5  UNL     1      20.512   0.795  52.214  1.00  0.00    -0.355 N 
HETATM   26  C19 UNL     1      21.751   0.512  52.853  1.00  0.00     0.112 A 
HETATM   27  C20 UNL     1      21.861  -0.469  53.715  1.00  0.00     0.049 A 
HETATM   28 CL1  UNL     1      23.360  -0.864  54.531  1.00  0.00    -0.083 Cl
HETATM   29  C21 UNL     1      20.710  -1.313  54.056  1.00  0.00     0.023 A 
HETATM   30  C22 UNL     1      19.574  -1.015  53.444  1.00  0.00    -0.005 A 
HETATM   31  C23 UNL     1      19.313   0.060  52.458  1.00  0.00     0.151 A 
ENDBRANCH  24  25
ENDBRANCH  18  19
ENDBRANCH   2  18
TORSDOF 8
ENDMDL
MODEL 4
REMARK VINA RESULT:      -8.5      1.674      2.128
REMARK  8 active torsions:
REMARK  status: ('A' for Active; 'I' for Inactive)
REMARK    1  A    between atoms: C4_6  and  C5_7 
REMARK    2  A    between atoms: C6_8  and  C7_9 
REMARK    3  A    between atoms: C8_11  and  N2_12 
REMARK    4  A    between atoms: N3_14  and  C10_15 
REMARK    5  A    between atoms: C10_15  and  C11_16 
REMARK    6  A    between atoms: C12_17  and  C13_18 
REMARK    7  A    between atoms: C13_18  and  N4_19 
REMARK    8  A    between atoms: C18_24  and  N5_25 
ROOT
HETATM    1  C11 UNL     1      22.506   3.685  52.306  1.00  0.00    -0.009 C 
HETATM    2  C12 UNL     1      22.399   4.758  51.554  1.00  0.00     0.001 C 
ENDROOT
BRANCH   1   3
HETATM    3  C10 UNL     1      21.755   2.401  52.303  1.00  0.00     0.153 C 
BRANCH   3   4
HETATM    4  N3  UNL     1      22.537   1.314  52.855  1.00  0.00    -0.341 N 
HETATM    5  C1  UNL     1      21.793   0.284  53.530  1.00  0.00     0.244 C 
HETATM    6  O1  UNL     1      20.558   0.275  53.505  1.00  0.00    -0.271 OA
HETATM    7  C2  UNL     1      22.675  -0.716  54.226  1.00  0.00     0.278 C 
HETATM    8  O2  UNL     1      23.864  -0.898  53.471  1.00  0.00    -0.345 OA
HETATM    9  C3  UNL     1      24.595   0.147  52.997  1.00  0.00     0.063 C 
HETATM   10  C4  UNL     1      25.873   0.219  52.786  1.00  0.00     0.041 C 
HETATM   11  C9  UNL     1      23.963   1.433  52.639  1.00  0.00     0.190 C 
BRANCH  10  12
HETATM   12  C5  UNL     1      26.895  -0.763  52.982  1.00  0.00     0.110 A 
HETATM   13  C6  UNL     1      27.464  -0.208  53.695  1.00  0.00     0.050 A 
HETATM   14  N2  UNL     1      28.082  -1.398  53.488  1.00  0.00    -0.233 NA
BRANCH  13  15
HETATM   15  C7  UNL     1      27.988   0.272  54.334  1.00  0.00     0.090 A 
HETATM   16  N1  UNL     1      28.563   0.815  55.014  1.00  0.00    -0.262 NA
HETATM   17  C8  UNL     1      28.264   1.533  53.237  1.00  0.00     0.242 A 
ENDBRANCH  13  15
ENDBRANCH  10  12
ENDBRANCH   3   4
ENDBRANCH   1   3
BRANCH   2  18
HETATM   18  C13 UNL     1      23.035   6.108  51.397  1.00  0.00     0.302 C 
BRANCH  18  19
HETATM   19  N4  UNL     1      23.130   6.326  49.963  1.00  0.00     0.114 N 
HETATM   20  C14 UNL     1      22.011   7.110  49.557  1.00  0.00     0.275 C 
HETATM   21  C15 UNL     1      21.790   7.161  48.078  1.00  0.00     0.030 C 
HETATM   22  C16 UNL     1      21.511   5.709  47.662  1.00  0.00     0.005 C 
HETATM   23  C17 UNL     1      22.804   4.984  47.904  1.00  0.00     0.057 C 
HETATM   24  C18 UNL     1      23.328   5.081  49.299  1.00  0.00     0.324 C 
BRANCH  24  25
HETATM   25  N5  UNL     1      24.781   4.895  49.181  1.00  0.00    -0.355 N 
HETATM   26  C19 UNL     1      25.485   6.014  48.654  1.00  0.00     0.112 A 
HETATM   27  C20 UNL     1      26.784   5.979  48.483  1.00  0.00     0.049 A 
HETATM   28 CL1  UNL     1      27.702   7.324  47.839  1.00  0.00    -0.083 Cl
HETATM   29  C21 UNL     1      27.563   4.785  48.830  1.00  0.00     0.023 A 
HETATM   30  C22 UNL     1      26.873   3.767  49.321  1.00  0.00    -0.005 A 
HETATM   31  C23 UNL     1      25.415   3.675  49.566  1.00  0.00     0.151 A 
ENDBRANCH  24  25
ENDBRANCH  18  19
ENDBRANCH   2  18
TORSDOF 8
ENDMDL
MODEL 5
REMARK VINA RESULT:      -8.4      3.593      5.408
REMARK  8 active torsions:
REMARK  status: ('A' for Active; 'I' for Inactive)
REMARK    1  A    between atoms: C4_6  and  C5_7 
REMARK    2  A    between atoms: C6_8  and  C7_9 
REMARK    3  A    between atoms: C8_11  and  N2_12 
REMARK    4  A    between atoms: N3_14  and  C10_15 
REMARK    5  A    between atoms: C10_15  and  C11_16 
REMARK    6  A    between atoms: C12_17  and  C13_18 
REMARK    7  A    between atoms: C13_18  and  N4_19 
REMARK    8  A    between atoms: C18_24  and  N5_25 
ROOT
HETATM    1  C11 UNL     1      25.924   3.987  50.050  1.00  0.00    -0.009 C 
HETATM    2  C12 UNL     1      26.367   4.983  49.315  1.00  0.00     0.001 C 
ENDROOT
BRANCH   1   3
HETATM    3  C10 UNL     1      24.653   3.806  50.802  1.00  0.00     0.153 C 
BRANCH   3   4
HETATM    4  N3  UNL     1      24.651   2.581  51.575  1.00  0.00    -0.341 N 
HETATM    5  C1  UNL     1      23.392   2.215  52.168  1.00  0.00     0.244 C 
HETATM    6  O1  UNL     1      22.361   2.843  51.904  1.00  0.00    -0.271 OA
HETATM    7  C2  UNL     1      23.502   1.036  53.096  1.00  0.00     0.278 C 
HETATM    8  O2  UNL     1      24.488   0.141  52.602  1.00  0.00    -0.345 OA
HETATM    9  C3  UNL     1      25.719   0.560  52.202  1.00  0.00     0.063 C 
HETATM   10  C4  UNL     1      26.849  -0.076  52.238  1.00  0.00     0.041 C 
HETATM   11  C9  UNL     1      25.930   1.907  51.633  1.00  0.00     0.190 C 
BRANCH  10  12
HETATM   12  C5  UNL     1      27.147  -1.396  52.702  1.00  0.00     0.110 A 
HETATM   13  C6  UNL     1      28.147  -1.194  53.016  1.00  0.00     0.050 A 
HETATM   14  N2  UNL     1      27.876  -2.500  53.268  1.00  0.00    -0.233 NA
BRANCH  13  15
HETATM   15  C7  UNL     1      29.045  -1.034  53.303  1.00  0.00     0.090 A 
HETATM   16  N1  UNL     1      30.016  -0.844  53.635  1.00  0.00    -0.262 NA
HETATM   17  C8  UNL     1      28.518  -0.029  54.561  1.00  0.00     0.242 A 
ENDBRANCH  13  15
ENDBRANCH  10  12
ENDBRANCH   3   4
ENDBRANCH   1   3
BRANCH   2  18
HETATM   18  C13 UNL     1      27.572   5.351  48.501  1.00  0.00     0.302 C 
BRANCH  18  19
HETATM   19  N4  UNL     1      27.463   6.784  48.276  1.00  0.00     0.114 N 
HETATM   20  C14 UNL     1      26.097   7.089  48.010  1.00  0.00     0.275 C 
HETATM   21  C15 UNL     1      25.861   8.459  47.455  1.00  0.00     0.030 C 
HETATM   22  C16 UNL     1      26.609   8.483  46.114  1.00  0.00     0.005 C 
HETATM   23  C17 UNL     1      28.062   8.385  46.482  1.00  0.00     0.057 C 
HETATM   24  C18 UNL     1      28.422   7.194  47.307  1.00  0.00     0.324 C 
BRANCH  24  25
HETATM   25  N5  UNL     1      29.627   7.589  48.051  1.00  0.00    -0.355 N 
HETATM   26  C19 UNL     1      30.736   6.710  47.901  1.00  0.00     0.112 A 
HETATM   27  C20 UNL     1      31.869   6.936  48.519  1.00  0.00     0.049 A 
HETATM   28 CL1  UNL     1      33.266   5.888  48.374  1.00  0.00    -0.083 Cl
HETATM   29  C21 UNL     1      32.040   8.107  49.387  1.00  0.00     0.023 A 
HETATM   30  C22 UNL     1      30.988   8.903  49.498  1.00  0.00    -0.005 A 
HETATM   31  C23 UNL     1      29.658   8.766  48.858  1.00  0.00     0.151 A 
ENDBRANCH  24  25
ENDBRANCH  18  19
ENDBRANCH   2  18
TORSDOF 8
ENDMDL
MODEL 6
REMARK VINA RESULT:      -8.4      2.454      5.204
REMARK  8 active torsions:
REMARK  status: ('A' for Active; 'I' for Inactive)
REMARK    1  A    between atoms: C4_6  and  C5_7 
REMARK    2  A    between atoms: C6_8  and  C7_9 
REMARK    3  A    between atoms: C8_11  and  N2_12 
REMARK    4  A    between atoms: N3_14  and  C10_15 
REMARK    5  A    between atoms: C10_15  and  C11_16 
REMARK    6  A    between atoms: C12_17  and  C13_18 
REMARK    7  A    between atoms: C13_18  and  N4_19 
REMARK    8  A    between atoms: C18_24  and  N5_25 
ROOT
HETATM    1  C11 UNL     1      25.449   3.622  50.730  1.00  0.00    -0.009 C 
HETATM    2  C12 UNL     1      25.494   4.834  50.221  1.00  0.00     0.001 C 
ENDROOT
BRANCH   1   3
HETATM    3  C10 UNL     1      26.450   2.523  50.744  1.00  0.00     0.153 C 
BRANCH   3   4
HETATM    4  N3  UNL     1      26.326   1.693  51.925  1.00  0.00    -0.341 N 
HETATM    5  C1  UNL     1      27.443   1.719  52.832  1.00  0.00     0.244 C 
HETATM    6  O1  UNL     1      28.375   2.514  52.666  1.00  0.00    -0.271 OA
HETATM    7  C2  UNL     1      27.324   0.707  53.938  1.00  0.00     0.278 C 
HETATM    8  O2  UNL     1      25.957   0.561  54.295  1.00  0.00    -0.345 OA
HETATM    9  C3  UNL     1      24.976   0.386  53.370  1.00  0.00     0.063 C 
HETATM   10  C4  UNL     1      23.855  -0.258  53.481  1.00  0.00     0.041 C 
HETATM   11  C9  UNL     1      25.084   0.956  52.011  1.00  0.00     0.190 C 
BRANCH  10  12
HETATM   12  C5  UNL     1      23.310  -0.971  54.595  1.00  0.00     0.110 A 
HETATM   13  C6  UNL     1      22.310  -1.030  54.227  1.00  0.00     0.050 A 
HETATM   14  N2  UNL     1      22.357  -1.646  55.435  1.00  0.00    -0.233 NA
BRANCH  13  15
HETATM   15  C7  UNL     1      21.408  -1.092  53.916  1.00  0.00     0.090 A 
HETATM   16  N1  UNL     1      20.419  -1.139  53.589  1.00  0.00    -0.262 NA
HETATM   17  C8  UNL     1      20.985   0.352  54.694  1.00  0.00     0.242 A 
ENDBRANCH  13  15
ENDBRANCH  10  12
ENDBRANCH   3   4
ENDBRANCH   1   3
BRANCH   2  18
HETATM   18  C13 UNL     1      24.626   6.053  50.102  1.00  0.00     0.302 C 
BRANCH  18  19
HETATM   19  N4  UNL     1      23.552   5.674  49.199  1.00  0.00     0.114 N 
HETATM   20  C14 UNL     1      23.709   6.407  47.988  1.00  0.00     0.275 C 
HETATM   21  C15 UNL     1      22.521   6.369  47.078  1.00  0.00     0.030 C 
HETATM   22  C16 UNL     1      21.384   7.028  47.872  1.00  0.00     0.005 C 
HETATM   23  C17 UNL     1      21.115   6.087  49.012  1.00  0.00     0.057 C 
HETATM   24  C18 UNL     1      22.300   5.782  49.868  1.00  0.00     0.324 C 
BRANCH  24  25
HETATM   25  N5  UNL     1      22.022   4.464  50.457  1.00  0.00    -0.355 N 
HETATM   26  C19 UNL     1      21.896   3.405  49.516  1.00  0.00     0.112 A 
HETATM   27  C20 UNL     1      21.636   2.180  49.904  1.00  0.00     0.049 A 
HETATM   28 CL1  UNL     1      21.469   0.837  48.791  1.00  0.00    -0.083 Cl
HETATM   29  C21 UNL     1      21.468   1.853  51.324  1.00  0.00     0.023 A 
HETATM   30  C22 UNL     1      21.597   2.864  52.169  1.00  0.00    -0.005 A 
HETATM   31  C23 UNL     1      21.889   4.285  51.867  1.00  0.00     0.151 A 
ENDBRANCH  24  25
ENDBRANCH  18  19
ENDBRANCH   2  18
TORSDOF 8
ENDMDL
MODEL 7
REMARK VINA RESULT:      -8.3      2.222      3.145
REMARK  8 active torsions:
REMARK  status: ('A' for Active; 'I' for Inactive)
REMARK    1  A    between atoms: C4_6  and  C5_7 
REMARK    2  A    between atoms: C6_8  and  C7_9 
REMARK    3  A    between atoms: C8_11  and  N2_12 
REMARK    4  A    between atoms: N3_14  and  C10_15 
REMARK    5  A    between atoms: C10_15  and  C11_16 
REMARK    6  A    between atoms: C12_17  and  C13_18 
REMARK    7  A    between atoms: C13_18  and  N4_19 
REMARK    8  A    between atoms: C18_24  and  N5_25 
ROOT
HETATM    1  C11 UNL     1      21.340   0.708  50.364  1.00  0.00    -0.009 C 
HETATM    2  C12 UNL     1      20.928   1.163  49.201  1.00  0.00     0.001 C 
ENDROOT
BRANCH   1   3
HETATM    3  C10 UNL     1      20.597   0.131  51.516  1.00  0.00     0.153 C 
BRANCH   3   4
HETATM    4  N3  UNL     1      21.452  -0.067  52.668  1.00  0.00    -0.341 N 
HETATM    5  C1  UNL     1      20.865  -0.781  53.771  1.00  0.00     0.244 C 
HETATM    6  O1  UNL     1      19.751  -1.305  53.664  1.00  0.00    -0.271 OA
HETATM    7  C2  UNL     1      21.742  -0.796  54.993  1.00  0.00     0.278 C 
HETATM    8  O2  UNL     1      23.104  -0.845  54.591  1.00  0.00    -0.345 OA
HETATM    9  C3  UNL     1      23.614  -0.019  53.639  1.00  0.00     0.063 C 
HETATM   10  C4  UNL     1      24.820   0.445  53.522  1.00  0.00     0.041 C 
HETATM   11  C9  UNL     1      22.780   0.490  52.531  1.00  0.00     0.190 C 
BRANCH  10  12
HETATM   12  C5  UNL     1      25.970   0.235  54.346  1.00  0.00     0.110 A 
HETATM   13  C6  UNL     1      26.357  -0.602  53.808  1.00  0.00     0.050 A 
HETATM   14  N2  UNL     1      27.191  -0.339  54.845  1.00  0.00    -0.233 NA
BRANCH  13  15
HETATM   15  C7  UNL     1      26.720  -1.352  53.340  1.00  0.00     0.090 A 
HETATM   16  N1  UNL     1      27.118  -2.157  52.808  1.00  0.00    -0.262 NA
HETATM   17  C8  UNL     1      26.879  -0.452  51.914  1.00  0.00     0.242 A 
ENDBRANCH  13  15
ENDBRANCH  10  12
ENDBRANCH   3   4
ENDBRANCH   1   3
BRANCH   2  18
HETATM   18  C13 UNL     1      21.492   1.763  47.946  1.00  0.00     0.302 C 
BRANCH  18  19
HETATM   19  N4  UNL     1      21.358   3.201  48.114  1.00  0.00     0.114 N 
HETATM   20  C14 UNL     1      20.391   3.669  47.178  1.00  0.00     0.275 C 
HETATM   21  C15 UNL     1      20.360   5.156  47.004  1.00  0.00     0.030 C 
HETATM   22  C16 UNL     1      21.747   5.525  46.458  1.00  0.00     0.005 C 
HETATM   23  C17 UNL     1      22.697   5.217  47.581  1.00  0.00     0.057 C 
HETATM   24  C18 UNL     1      22.644   3.812  48.082  1.00  0.00     0.324 C 
BRANCH  24  25
HETATM   25  N5  UNL     1      23.111   3.879  49.474  1.00  0.00    -0.355 N 
HETATM   26  C19 UNL     1      24.448   3.437  49.676  1.00  0.00     0.112 A 
HETATM   27  C20 UNL     1      24.987   3.432  50.871  1.00  0.00     0.049 A 
HETATM   28 CL1  UNL     1      26.627   2.898  51.180  1.00  0.00    -0.083 Cl
HETATM   29  C21 UNL     1      24.234   3.885  52.046  1.00  0.00     0.023 A 
HETATM   30  C22 UNL     1      22.995   4.292  51.816  1.00  0.00    -0.005 A 
HETATM   31  C23 UNL     1      22.269   4.351  50.526  1.00  0.00     0.151 A 
ENDBRANCH  24  25
ENDBRANCH  18  19
ENDBRANCH   2  18
TORSDOF 8
ENDMDL
MODEL 8
REMARK VINA RESULT:      -8.2      4.315      7.946
REMARK  8 active torsions:
REMARK  status: ('A' for Active; 'I' for Inactive)
REMARK    1  A    between atoms: C4_6  and  C5_7 
REMARK    2  A    between atoms: C6_8  and  C7_9 
REMARK    3  A    between atoms: C8_11  and  N2_12 
REMARK    4  A    between atoms: N3_14  and  C10_15 
REMARK    5  A    between atoms: C10_15  and  C11_16 
REMARK    6  A    between atoms: C12_17  and  C13_18 
REMARK    7  A    between atoms: C13_18  and  N4_19 
REMARK    8  A    between atoms: C18_24  and  N5_25 
ROOT
HETATM    1  C11 UNL     1      24.917   3.947  50.970  1.00  0.00    -0.009 C 
HETATM    2  C12 UNL     1      24.630   3.027  51.865  1.00  0.00     0.001 C 
ENDROOT
BRANCH   1   3
HETATM    3  C10 UNL     1      24.968   3.895  49.485  1.00  0.00     0.153 C 
BRANCH   3   4
HETATM    4  N3  UNL     1      25.653   5.043  48.925  1.00  0.00    -0.341 N 
HETATM    5  C1  UNL     1      24.827   6.184  48.631  1.00  0.00     0.244 C 
HETATM    6  O1  UNL     1      23.641   6.213  48.974  1.00  0.00    -0.271 OA
HETATM    7  C2  UNL     1      25.567   7.267  47.894  1.00  0.00     0.278 C 
HETATM    8  O2  UNL     1      26.916   7.299  48.337  1.00  0.00    -0.345 OA
HETATM    9  C3  UNL     1      27.677   6.176  48.440  1.00  0.00     0.063 C 
HETATM   10  C4  UNL     1      28.960   6.044  48.302  1.00  0.00     0.041 C 
HETATM   11  C9  UNL     1      27.077   4.861  48.745  1.00  0.00     0.190 C 
BRANCH  10  12
HETATM   12  C5  UNL     1      29.958   7.025  48.003  1.00  0.00     0.110 A 
HETATM   13  C6  UNL     1      30.789   6.477  48.389  1.00  0.00     0.050 A 
HETATM   14  N2  UNL     1      31.245   7.661  47.909  1.00  0.00    -0.233 NA
BRANCH  13  15
HETATM   15  C7  UNL     1      31.546   6.002  48.730  1.00  0.00     0.090 A 
HETATM   16  N1  UNL     1      32.370   5.468  49.082  1.00  0.00    -0.262 NA
HETATM   17  C8  UNL     1      31.445   4.849  47.493  1.00  0.00     0.242 A 
ENDBRANCH  13  15
ENDBRANCH  10  12
ENDBRANCH   3   4
ENDBRANCH   1   3
BRANCH   2  18
HETATM   18  C13 UNL     1      24.523   2.880  53.355  1.00  0.00     0.302 C 
BRANCH  18  19
HETATM   19  N4  UNL     1      25.221   1.644  53.670  1.00  0.00     0.114 N 
HETATM   20  C14 UNL     1      26.618   1.921  53.714  1.00  0.00     0.275 C 
HETATM   21  C15 UNL     1      27.494   0.706  53.717  1.00  0.00     0.030 C 
HETATM   22  C16 UNL     1      27.205  -0.001  52.385  1.00  0.00     0.005 C 
HETATM   23  C17 UNL     1      25.781  -0.467  52.498  1.00  0.00     0.057 C 
HETATM   24  C18 UNL     1      24.790   0.610  52.791  1.00  0.00     0.324 C 
BRANCH  24  25
HETATM   25  N5  UNL     1      23.669  -0.068  53.459  1.00  0.00    -0.355 N 
HETATM   26  C19 UNL     1      22.399   0.141  52.853  1.00  0.00     0.112 A 
HETATM   27  C20 UNL     1      21.313  -0.395  53.354  1.00  0.00     0.049 A 
HETATM   28 CL1  UNL     1      19.723  -0.171  52.653  1.00  0.00    -0.083 Cl
HETATM   29  C21 UNL     1      21.365  -1.235  54.556  1.00  0.00     0.023 A 
HETATM   30  C22 UNL     1      22.565  -1.409  55.088  1.00  0.00    -0.005 A 
HETATM   31  C23 UNL     1      23.864  -0.867  54.626  1.00  0.00     0.151 A 
ENDBRANCH  24  25
ENDBRANCH  18  19
ENDBRANCH   2  18
TORSDOF 8
ENDMDL
MODEL 9
REMARK VINA RESULT:      -8.2      3.157      6.952
REMARK  8 active torsions:
REMARK  status: ('A' for Active; 'I' for Inactive)
REMARK    1  A    between atoms: C4_6  and  C5_7 
REMARK    2  A    between atoms: C6_8  and  C7_9 
REMARK    3  A    between atoms: C8_11  and  N2_12 
REMARK    4  A    between atoms: N3_14  and  C10_15 
REMARK    5  A    between atoms: C10_15  and  C11_16 
REMARK    6  A    between atoms: C12_17  and  C13_18 
REMARK    7  A    between atoms: C13_18  and  N4_19 
REMARK    8  A    between atoms: C18_24  and  N5_25 
ROOT
HETATM    1  C11 UNL     1      21.761  -1.023  53.712  1.00  0.00    -0.009 C 
HETATM    2  C12 UNL     1      22.870  -0.473  54.157  1.00  0.00     0.001 C 
ENDROOT
BRANCH   1   3
HETATM    3  C10 UNL     1      20.341  -0.592  53.810  1.00  0.00     0.153 C 
BRANCH   3   4
HETATM    4  N3  UNL     1      19.802  -0.204  52.523  1.00  0.00    -0.341 N 
HETATM    5  C1  UNL     1      18.384  -0.383  52.355  1.00  0.00     0.244 C 
HETATM    6  O1  UNL     1      17.671  -0.713  53.308  1.00  0.00    -0.271 OA
HETATM    7  C2  UNL     1      17.924  -0.127  50.946  1.00  0.00     0.278 C 
HETATM    8  O2  UNL     1      18.712   0.907  50.376  1.00  0.00    -0.345 OA
HETATM    9  C3  UNL     1      20.070   0.916  50.451  1.00  0.00     0.063 C 
HETATM   10  C4  UNL     1      20.931   1.409  49.615  1.00  0.00     0.041 C 
HETATM   11  C9  UNL     1      20.785   0.309  51.593  1.00  0.00     0.190 C 
BRANCH  10  12
HETATM   12  C5  UNL     1      20.722   2.088  48.373  1.00  0.00     0.110 A 
HETATM   13  C6  UNL     1      21.571   2.732  48.440  1.00  0.00     0.050 A 
HETATM   14  N2  UNL     1      20.923   2.998  47.277  1.00  0.00    -0.233 NA
BRANCH  13  15
HETATM   15  C7  UNL     1      22.325   3.318  48.481  1.00  0.00     0.090 A 
HETATM   16  N1  UNL     1      23.137   3.969  48.546  1.00  0.00    -0.262 NA
HETATM   17  C8  UNL     1      21.681   4.136  49.817  1.00  0.00     0.242 A 
ENDBRANCH  13  15
ENDBRANCH  10  12
ENDBRANCH   3   4
ENDBRANCH   1   3
BRANCH   2  18
HETATM   18  C13 UNL     1      24.348  -0.734  54.164  1.00  0.00     0.302 C 
BRANCH  18  19
HETATM   19  N4  UNL     1      24.955   0.477  53.637  1.00  0.00     0.114 N 
HETATM   20  C14 UNL     1      23.935   1.462  53.500  1.00  0.00     0.275 C 
HETATM   21  C15 UNL     1      24.327   2.656  52.685  1.00  0.00     0.030 C 
HETATM   22  C16 UNL     1      24.629   2.105  51.284  1.00  0.00     0.005 C 
HETATM   23  C17 UNL     1      25.854   1.253  51.462  1.00  0.00     0.057 C 
HETATM   24  C18 UNL     1      25.722   0.167  52.478  1.00  0.00     0.324 C 
BRANCH  24  25
HETATM   25  N5  UNL     1      27.092  -0.098  52.939  1.00  0.00    -0.355 N 
HETATM   26  C19 UNL     1      27.757   1.022  53.511  1.00  0.00     0.112 A 
HETATM   27  C20 UNL     1      28.988   0.928  53.951  1.00  0.00     0.049 A 
HETATM   28 CL1  UNL     1      29.857   2.273  54.662  1.00  0.00    -0.083 Cl
HETATM   29  C21 UNL     1      29.727  -0.338  53.875  1.00  0.00     0.023 A 
HETATM   30  C22 UNL     1      29.073  -1.357  53.341  1.00  0.00    -0.005 A 
HETATM   31  C23 UNL     1      27.690  -1.388  52.810  1.00  0.00     0.151 A 
ENDBRANCH  24  25
ENDBRANCH  18  19
ENDBRANCH   2  18
TORSDOF 8
ENDMDL
