MODEL 1
REMARK VINA RESULT:      -8.5      0.000      0.000
REMARK  6 active torsions:
REMARK  status: ('A' for Active; 'I' for Inactive)
REMARK    1  A    between atoms: O1_2  and  C2_3 
REMARK    2  A    between atoms: N3_10  and  C7_11 
REMARK    3  A    between atoms: C10_14  and  C11_15 
REMARK       I    between atoms: C11_15  and  N4_17 
REMARK    4  A    between atoms: N4_17  and  C12_18 
REMARK    5  A    between atoms: C21_27  and  C22_28 
REMARK    6  A    between atoms: C22_28  and  N5_29 
ROOT
HETATM    1  C2  UNL     1      15.720   0.624  52.355  1.00  0.00     0.051 C 
HETATM    2  C3  UNL     1      15.124   1.693  52.013  1.00  0.00     0.029 C 
HETATM    3  C4  UNL     1      14.926   2.842  51.172  1.00  0.00     0.261 C 
HETATM    4  N1  UNL     1      15.819   2.800  50.209  1.00  0.00    -0.295 NA
HETATM    5  C5  UNL     1      16.708   1.687  50.237  1.00  0.00     0.164 C 
HETATM    6  N2  UNL     1      17.504   2.302  50.999  1.00  0.00    -0.272 NA
HETATM    7  C6  UNL     1      18.733   1.876  51.546  1.00  0.00     0.274 C 
HETATM    8  N3  UNL     1      18.838   0.466  51.801  1.00  0.00    -0.362 N 
HETATM    9  C20 UNL     1      17.840  -0.516  51.545  1.00  0.00     0.138 C 
HETATM   10  C21 UNL     1      16.620  -0.478  52.408  1.00  0.00     0.088 C 
ENDROOT
BRANCH   8  11
HETATM   11  C7  UNL     1      20.118   0.184  52.376  1.00  0.00     0.031 A 
HETATM   12  C8  UNL     1      21.306   0.602  51.826  1.00  0.00     0.030 A 
HETATM   13  C9  UNL     1      22.568   0.345  52.379  1.00  0.00     0.019 A 
HETATM   14  C10 UNL     1      22.662  -0.368  53.544  1.00  0.00     0.032 A 
HETATM   15  C18 UNL     1      21.506  -0.815  54.142  1.00  0.00     0.019 A 
HETATM   16  C19 UNL     1      20.302  -0.523  53.541  1.00  0.00     0.030 A 
BRANCH  14  17
HETATM   17  C11 UNL     1      23.996  -0.601  54.074  1.00  0.00     0.256 C 
HETATM   18  O2  UNL     1      24.160  -1.167  55.159  1.00  0.00    -0.267 OA
HETATM   19  N4  UNL     1      25.153  -0.186  53.361  1.00  0.00    -0.323 N 
HETATM   20  H11 UNL     1      25.123   0.299  52.441  1.00  0.00     0.169 HD
BRANCH  19  21
HETATM   21  C12 UNL     1      26.538  -0.295  53.653  1.00  0.00     0.035 A 
HETATM   22  C13 UNL     1      27.234  -1.234  52.882  1.00  0.00     0.029 A 
HETATM   23  C14 UNL     1      28.577  -1.353  53.148  1.00  0.00     0.002 A 
HETATM   24  C15 UNL     1      29.279  -0.636  54.093  1.00  0.00     0.000 A 
HETATM   25  C16 UNL     1      28.523   0.266  54.809  1.00  0.00     0.002 A 
HETATM   26  C17 UNL     1      27.177   0.472  54.633  1.00  0.00     0.029 A 
ENDBRANCH  19  21
ENDBRANCH  14  17
ENDBRANCH   8  11
BRANCH  10  27
HETATM   27  C22 UNL     1      15.914  -1.839  52.263  1.00  0.00     0.279 C 
BRANCH  27  28
HETATM   28  N5  UNL     1      14.992  -1.806  51.152  1.00  0.00     0.079 N 
HETATM   29  H24 UNL     1      14.731  -0.836  50.849  1.00  0.00     0.312 HD
HETATM   30  H25 UNL     1      15.280  -2.415  50.361  1.00  0.00     0.312 HD
ENDBRANCH  27  28
ENDBRANCH  10  27
BRANCH   1  31
HETATM   31  O1  UNL     1      14.898   0.340  53.484  1.00  0.00    -0.360 OA
HETATM   32  C1  UNL     1      13.527   0.628  53.508  1.00  0.00     0.209 C 
ENDBRANCH   1  31
TORSDOF 6
ENDMDL
MODEL 2
REMARK VINA RESULT:      -8.4      1.744      2.973
REMARK  6 active torsions:
REMARK  status: ('A' for Active; 'I' for Inactive)
REMARK    1  A    between atoms: O1_2  and  C2_3 
REMARK    2  A    between atoms: N3_10  and  C7_11 
REMARK    3  A    between atoms: C10_14  and  C11_15 
REMARK       I    between atoms: C11_15  and  N4_17 
REMARK    4  A    between atoms: N4_17  and  C12_18 
REMARK    5  A    between atoms: C21_27  and  C22_28 
REMARK    6  A    between atoms: C22_28  and  N5_29 
ROOT
HETATM    1  C2  UNL     1      16.819  -0.360  50.403  1.00  0.00     0.051 C 
HETATM    2  C3  UNL     1      15.781  -1.060  50.621  1.00  0.00     0.029 C 
HETATM    3  C4  UNL     1      14.748  -1.602  51.462  1.00  0.00     0.261 C 
HETATM    4  N1  UNL     1      14.927  -1.135  52.678  1.00  0.00    -0.295 NA
HETATM    5  C5  UNL     1      16.036  -0.257  52.847  1.00  0.00     0.164 C 
HETATM    6  N2  UNL     1      16.812  -1.229  53.065  1.00  0.00    -0.272 NA
HETATM    7  C6  UNL     1      18.195  -1.227  53.345  1.00  0.00     0.274 C 
HETATM    8  N3  UNL     1      18.943  -0.156  52.748  1.00  0.00    -0.362 N 
HETATM    9  C20 UNL     1      18.423   0.885  51.928  1.00  0.00     0.138 C 
HETATM   10  C21 UNL     1      17.945   0.496  50.567  1.00  0.00     0.088 C 
ENDROOT
BRANCH   8  11
HETATM   11  C7  UNL     1      20.325  -0.295  53.093  1.00  0.00     0.031 A 
HETATM   12  C8  UNL     1      20.771  -1.051  54.151  1.00  0.00     0.030 A 
HETATM   13  C9  UNL     1      22.120  -1.208  54.498  1.00  0.00     0.019 A 
HETATM   14  C10 UNL     1      23.086  -0.582  53.757  1.00  0.00     0.032 A 
HETATM   15  C18 UNL     1      22.700   0.190  52.685  1.00  0.00     0.019 A 
HETATM   16  C19 UNL     1      21.357   0.297  52.403  1.00  0.00     0.030 A 
BRANCH  14  17
HETATM   17  C11 UNL     1      24.467  -0.785  54.161  1.00  0.00     0.256 C 
HETATM   18  O2  UNL     1      24.744  -1.245  55.273  1.00  0.00    -0.267 OA
HETATM   19  N4  UNL     1      25.543  -0.461  53.292  1.00  0.00    -0.323 N 
HETATM   20  H11 UNL     1      25.417  -0.067  52.336  1.00  0.00     0.169 HD
BRANCH  19  21
HETATM   21  C12 UNL     1      26.951  -0.564  53.443  1.00  0.00     0.035 A 
HETATM   22  C13 UNL     1      27.517  -1.739  52.934  1.00  0.00     0.029 A 
HETATM   23  C14 UNL     1      28.879  -1.858  53.069  1.00  0.00     0.002 A 
HETATM   24  C15 UNL     1      29.716  -0.931  53.653  1.00  0.00     0.000 A 
HETATM   25  C16 UNL     1      29.082   0.196  54.129  1.00  0.00     0.002 A 
HETATM   26  C17 UNL     1      27.731   0.425  54.051  1.00  0.00     0.029 A 
ENDBRANCH  19  21
ENDBRANCH  14  17
ENDBRANCH   8  11
BRANCH  10  27
HETATM   27  C22 UNL     1      17.848   1.784  49.730  1.00  0.00     0.279 C 
BRANCH  27  28
HETATM   28  N5  UNL     1      18.940   1.849  48.787  1.00  0.00     0.079 N 
HETATM   29  H24 UNL     1      19.747   1.223  49.032  1.00  0.00     0.312 HD
HETATM   30  H25 UNL     1      18.637   1.752  47.798  1.00  0.00     0.312 HD
ENDBRANCH  27  28
ENDBRANCH  10  27
BRANCH   1  31
HETATM   31  O1  UNL     1      16.905  -0.637  49.008  1.00  0.00    -0.360 OA
HETATM   32  C1  UNL     1      15.851  -1.217  48.289  1.00  0.00     0.209 C 
ENDBRANCH   1  31
TORSDOF 6
ENDMDL
MODEL 3
REMARK VINA RESULT:      -8.0      5.340     10.493
REMARK  6 active torsions:
REMARK  status: ('A' for Active; 'I' for Inactive)
REMARK    1  A    between atoms: O1_2  and  C2_3 
REMARK    2  A    between atoms: N3_10  and  C7_11 
REMARK    3  A    between atoms: C10_14  and  C11_15 
REMARK       I    between atoms: C11_15  and  N4_17 
REMARK    4  A    between atoms: N4_17  and  C12_18 
REMARK    5  A    between atoms: C21_27  and  C22_28 
REMARK    6  A    between atoms: C22_28  and  N5_29 
ROOT
HETATM    1  C2  UNL     1      27.013  -0.298  53.509  1.00  0.00     0.051 C 
HETATM    2  C3  UNL     1      28.271  -0.151  53.607  1.00  0.00     0.029 C 
HETATM    3  C4  UNL     1      29.468   0.634  53.742  1.00  0.00     0.261 C 
HETATM    4  N1  UNL     1      29.118   1.898  53.828  1.00  0.00    -0.295 NA
HETATM    5  C5  UNL     1      27.718   2.157  53.771  1.00  0.00     0.164 C 
HETATM    6  N2  UNL     1      27.748   2.212  52.511  1.00  0.00    -0.272 NA
HETATM    7  C6  UNL     1      26.697   2.450  51.598  1.00  0.00     0.274 C 
HETATM    8  N3  UNL     1      25.403   1.989  52.016  1.00  0.00    -0.362 N 
HETATM    9  C20 UNL     1      25.091   1.341  53.244  1.00  0.00     0.138 C 
HETATM   10  C21 UNL     1      25.613  -0.047  53.426  1.00  0.00     0.088 C 
ENDROOT
BRANCH   8  11
HETATM   11  C7  UNL     1      24.447   2.270  50.988  1.00  0.00     0.031 A 
HETATM   12  C8  UNL     1      24.660   3.182  49.982  1.00  0.00     0.030 A 
HETATM   13  C9  UNL     1      23.741   3.464  48.961  1.00  0.00     0.019 A 
HETATM   14  C10 UNL     1      22.541   2.806  48.932  1.00  0.00     0.032 A 
HETATM   15  C18 UNL     1      22.270   1.880  49.914  1.00  0.00     0.019 A 
HETATM   16  C19 UNL     1      23.221   1.656  50.884  1.00  0.00     0.030 A 
BRANCH  14  17
HETATM   17  C11 UNL     1      21.630   3.135  47.848  1.00  0.00     0.256 C 
HETATM   18  O2  UNL     1      20.532   2.579  47.749  1.00  0.00    -0.267 OA
HETATM   19  N4  UNL     1      21.972   4.105  46.869  1.00  0.00    -0.323 N 
HETATM   20  H11 UNL     1      22.872   4.629  46.862  1.00  0.00     0.169 HD
BRANCH  19  21
HETATM   21  C12 UNL     1      21.273   4.599  45.736  1.00  0.00     0.035 A 
HETATM   22  C13 UNL     1      20.763   5.896  45.874  1.00  0.00     0.029 A 
HETATM   23  C14 UNL     1      20.084   6.393  44.787  1.00  0.00     0.002 A 
HETATM   24  C15 UNL     1      19.871   5.731  43.597  1.00  0.00     0.000 A 
HETATM   25  C16 UNL     1      20.405   4.462  43.541  1.00  0.00     0.002 A 
HETATM   26  C17 UNL     1      21.100   3.861  44.561  1.00  0.00     0.029 A 
ENDBRANCH  19  21
ENDBRANCH  14  17
ENDBRANCH   8  11
BRANCH  10  27
HETATM   27  C22 UNL     1      24.817  -0.690  54.576  1.00  0.00     0.279 C 
BRANCH  27  28
HETATM   28  N5  UNL     1      25.651  -0.817  55.748  1.00  0.00     0.079 N 
HETATM   29  H24 UNL     1      25.197  -1.344  56.534  1.00  0.00     0.312 HD
HETATM   30  H25 UNL     1      26.612  -1.154  55.536  1.00  0.00     0.312 HD
ENDBRANCH  27  28
ENDBRANCH  10  27
BRANCH   1  31
HETATM   31  O1  UNL     1      27.027  -1.720  53.422  1.00  0.00    -0.360 OA
HETATM   32  C1  UNL     1      26.943  -2.401  52.201  1.00  0.00     0.209 C 
ENDBRANCH   1  31
TORSDOF 6
ENDMDL
MODEL 4
REMARK VINA RESULT:      -7.9      6.350      9.587
REMARK  6 active torsions:
REMARK  status: ('A' for Active; 'I' for Inactive)
REMARK    1  A    between atoms: O1_2  and  C2_3 
REMARK    2  A    between atoms: N3_10  and  C7_11 
REMARK    3  A    between atoms: C10_14  and  C11_15 
REMARK       I    between atoms: C11_15  and  N4_17 
REMARK    4  A    between atoms: N4_17  and  C12_18 
REMARK    5  A    between atoms: C21_27  and  C22_28 
REMARK    6  A    between atoms: C22_28  and  N5_29 
ROOT
HETATM    1  C2  UNL     1      25.853  -0.531  54.299  1.00  0.00     0.051 C 
HETATM    2  C3  UNL     1      24.952  -0.843  55.141  1.00  0.00     0.029 C 
HETATM    3  C4  UNL     1      23.600  -1.142  55.526  1.00  0.00     0.261 C 
HETATM    4  N1  UNL     1      22.849  -1.088  54.449  1.00  0.00    -0.295 NA
HETATM    5  C5  UNL     1      23.526  -0.767  53.237  1.00  0.00     0.164 C 
HETATM    6  N2  UNL     1      23.380   0.469  53.447  1.00  0.00    -0.272 NA
HETATM    7  C6  UNL     1      23.797   1.567  52.664  1.00  0.00     0.274 C 
HETATM    8  N3  UNL     1      24.997   1.360  51.903  1.00  0.00    -0.362 N 
HETATM    9  C20 UNL     1      25.778   0.171  51.860  1.00  0.00     0.138 C 
HETATM   10  C21 UNL     1      26.534  -0.184  53.098  1.00  0.00     0.088 C 
ENDROOT
BRANCH   8  11
HETATM   11  C7  UNL     1      25.313   2.558  51.184  1.00  0.00     0.031 A 
HETATM   12  C8  UNL     1      26.452   2.713  50.431  1.00  0.00     0.030 A 
HETATM   13  C9  UNL     1      26.774   3.873  49.713  1.00  0.00     0.019 A 
HETATM   14  C10 UNL     1      25.920   4.943  49.740  1.00  0.00     0.032 A 
HETATM   15  C18 UNL     1      24.762   4.847  50.478  1.00  0.00     0.019 A 
HETATM   16  C19 UNL     1      24.513   3.675  51.157  1.00  0.00     0.030 A 
BRANCH  14  17
HETATM   17  C11 UNL     1      26.303   6.117  48.973  1.00  0.00     0.256 C 
HETATM   18  O2  UNL     1      25.490   6.695  48.245  1.00  0.00    -0.267 OA
HETATM   19  N4  UNL     1      27.623   6.638  49.035  1.00  0.00    -0.323 N 
HETATM   20  H11 UNL     1      28.382   6.225  49.616  1.00  0.00     0.169 HD
BRANCH  19  21
HETATM   21  C12 UNL     1      28.237   7.749  48.399  1.00  0.00     0.035 A 
HETATM   22  C13 UNL     1      28.681   7.514  47.092  1.00  0.00     0.029 A 
HETATM   23  C14 UNL     1      29.276   8.578  46.459  1.00  0.00     0.002 A 
HETATM   24  C15 UNL     1      29.466   9.833  46.996  1.00  0.00     0.000 A 
HETATM   25  C16 UNL     1      29.002   9.983  48.284  1.00  0.00     0.002 A 
HETATM   26  C17 UNL     1      28.393   8.995  49.016  1.00  0.00     0.029 A 
ENDBRANCH  19  21
ENDBRANCH  14  17
ENDBRANCH   8  11
BRANCH  10  27
HETATM   27  C22 UNL     1      27.611  -1.210  52.700  1.00  0.00     0.279 C 
BRANCH  27  28
HETATM   28  N5  UNL     1      27.138  -2.551  52.952  1.00  0.00     0.079 N 
HETATM   29  H24 UNL     1      27.466  -3.254  52.245  1.00  0.00     0.312 HD
HETATM   30  H25 UNL     1      27.286  -2.862  53.933  1.00  0.00     0.312 HD
ENDBRANCH  27  28
ENDBRANCH  10  27
BRANCH   1  31
HETATM   31  O1  UNL     1      26.938  -0.534  55.222  1.00  0.00    -0.360 OA
HETATM   32  C1  UNL     1      28.037   0.327  55.096  1.00  0.00     0.209 C 
ENDBRANCH   1  31
TORSDOF 6
ENDMDL
MODEL 5
REMARK VINA RESULT:      -7.9      2.639      4.113
REMARK  6 active torsions:
REMARK  status: ('A' for Active; 'I' for Inactive)
REMARK    1  A    between atoms: O1_2  and  C2_3 
REMARK    2  A    between atoms: N3_10  and  C7_11 
REMARK    3  A    between atoms: C10_14  and  C11_15 
REMARK       I    between atoms: C11_15  and  N4_17 
REMARK    4  A    between atoms: N4_17  and  C12_18 
REMARK    5  A    between atoms: C21_27  and  C22_28 
REMARK    6  A    between atoms: C22_28  and  N5_29 
ROOT
HETATM    1  C2  UNL     1      18.640   3.955  49.419  1.00  0.00     0.051 C 
HETATM    2  C3  UNL     1      17.445   3.592  49.187  1.00  0.00     0.029 C 
HETATM    3  C4  UNL     1      16.136   3.146  49.582  1.00  0.00     0.261 C 
HETATM    4  N1  UNL     1      16.111   3.068  50.893  1.00  0.00    -0.295 NA
HETATM    5  C5  UNL     1      17.319   3.428  51.558  1.00  0.00     0.164 C 
HETATM    6  N2  UNL     1      17.761   2.250  51.459  1.00  0.00    -0.272 NA
HETATM    7  C6  UNL     1      18.989   1.712  51.900  1.00  0.00     0.274 C 
HETATM    8  N3  UNL     1      20.096   2.628  51.904  1.00  0.00    -0.362 N 
HETATM    9  C20 UNL     1      20.061   3.999  51.524  1.00  0.00     0.138 C 
HETATM   10  C21 UNL     1      19.860   4.291  50.073  1.00  0.00     0.088 C 
ENDROOT
BRANCH   8  11
HETATM   11  C7  UNL     1      21.273   1.943  52.344  1.00  0.00     0.031 A 
HETATM   12  C8  UNL     1      22.547   2.419  52.145  1.00  0.00     0.030 A 
HETATM   13  C9  UNL     1      23.712   1.768  52.577  1.00  0.00     0.019 A 
HETATM   14  C10 UNL     1      23.612   0.578  53.246  1.00  0.00     0.032 A 
HETATM   15  C18 UNL     1      22.361   0.051  53.476  1.00  0.00     0.019 A 
HETATM   16  C19 UNL     1      21.263   0.747  53.022  1.00  0.00     0.030 A 
BRANCH  14  17
HETATM   17  C11 UNL     1      24.852  -0.048  53.674  1.00  0.00     0.256 C 
HETATM   18  O2  UNL     1      24.894  -0.747  54.692  1.00  0.00    -0.267 OA
HETATM   19  N4  UNL     1      26.054   0.122  52.938  1.00  0.00    -0.323 N 
HETATM   20  H11 UNL     1      26.126   0.691  52.069  1.00  0.00     0.169 HD
BRANCH  19  21
HETATM   21  C12 UNL     1      27.370  -0.374  53.139  1.00  0.00     0.035 A 
HETATM   22  C13 UNL     1      28.296   0.571  53.597  1.00  0.00     0.029 A 
HETATM   23  C14 UNL     1      29.574   0.110  53.799  1.00  0.00     0.002 A 
HETATM   24  C15 UNL     1      30.009  -1.181  53.592  1.00  0.00     0.000 A 
HETATM   25  C16 UNL     1      29.038  -2.049  53.141  1.00  0.00     0.002 A 
HETATM   26  C17 UNL     1      27.731  -1.705  52.903  1.00  0.00     0.029 A 
ENDBRANCH  19  21
ENDBRANCH  14  17
ENDBRANCH   8  11
BRANCH  10  27
HETATM   27  C22 UNL     1      20.286   5.752  49.836  1.00  0.00     0.279 C 
BRANCH  27  28
HETATM   28  N5  UNL     1      19.123   6.583  49.636  1.00  0.00     0.079 N 
HETATM   29  H24 UNL     1      18.723   6.971  50.526  1.00  0.00     0.312 HD
HETATM   30  H25 UNL     1      19.255   7.307  48.902  1.00  0.00     0.312 HD
ENDBRANCH  27  28
ENDBRANCH  10  27
BRANCH   1  31
HETATM   31  O1  UNL     1      19.004   4.178  48.060  1.00  0.00    -0.360 OA
HETATM   32  C1  UNL     1      19.536   3.169  47.247  1.00  0.00     0.209 C 
ENDBRANCH   1  31
TORSDOF 6
ENDMDL
MODEL 6
REMARK VINA RESULT:      -7.9      9.853     12.487
REMARK  6 active torsions:
REMARK  status: ('A' for Active; 'I' for Inactive)
REMARK    1  A    between atoms: O1_2  and  C2_3 
REMARK    2  A    between atoms: N3_10  and  C7_11 
REMARK    3  A    between atoms: C10_14  and  C11_15 
REMARK       I    between atoms: C11_15  and  N4_17 
REMARK    4  A    between atoms: N4_17  and  C12_18 
REMARK    5  A    between atoms: C21_27  and  C22_28 
REMARK    6  A    between atoms: C22_28  and  N5_29 
ROOT
HETATM    1  C2  UNL     1      27.802  11.638  48.013  1.00  0.00     0.051 C 
HETATM    2  C3  UNL     1      28.815  12.327  48.352  1.00  0.00     0.029 C 
HETATM    3  C4  UNL     1      30.228  12.572  48.455  1.00  0.00     0.261 C 
HETATM    4  N1  UNL     1      30.858  11.566  47.891  1.00  0.00    -0.295 NA
HETATM    5  C5  UNL     1      30.028  10.543  47.348  1.00  0.00     0.164 C 
HETATM    6  N2  UNL     1      29.987   9.944  48.458  1.00  0.00    -0.272 NA
HETATM    7  C6  UNL     1      29.325   8.748  48.809  1.00  0.00     0.274 C 
HETATM    8  N3  UNL     1      28.111   8.483  48.089  1.00  0.00    -0.362 N 
HETATM    9  C20 UNL     1      27.536   9.294  47.071  1.00  0.00     0.138 C 
HETATM   10  C21 UNL     1      26.965  10.607  47.497  1.00  0.00     0.088 C 
ENDROOT
BRANCH   8  11
HETATM   11  C7  UNL     1      27.537   7.260  48.564  1.00  0.00     0.031 A 
HETATM   12  C8  UNL     1      26.380   7.201  49.304  1.00  0.00     0.030 A 
HETATM   13  C9  UNL     1      25.798   6.014  49.770  1.00  0.00     0.019 A 
HETATM   14  C10 UNL     1      26.394   4.814  49.488  1.00  0.00     0.032 A 
HETATM   15  C18 UNL     1      27.557   4.809  48.751  1.00  0.00     0.019 A 
HETATM   16  C19 UNL     1      28.069   6.015  48.327  1.00  0.00     0.030 A 
BRANCH  14  17
HETATM   17  C11 UNL     1      25.744   3.616  49.992  1.00  0.00     0.256 C 
HETATM   18  O2  UNL     1      24.799   3.101  49.386  1.00  0.00    -0.267 OA
HETATM   19  N4  UNL     1      26.172   2.998  51.198  1.00  0.00    -0.323 N 
HETATM   20  H11 UNL     1      26.956   3.353  51.783  1.00  0.00     0.169 HD
BRANCH  19  21
HETATM   21  C12 UNL     1      25.715   1.845  51.889  1.00  0.00     0.035 A 
HETATM   22  C13 UNL     1      26.601   0.761  51.882  1.00  0.00     0.029 A 
HETATM   23  C14 UNL     1      26.179  -0.365  52.547  1.00  0.00     0.002 A 
HETATM   24  C15 UNL     1      24.978  -0.509  53.207  1.00  0.00     0.000 A 
HETATM   25  C16 UNL     1      24.163   0.602  53.168  1.00  0.00     0.002 A 
HETATM   26  C17 UNL     1      24.477   1.780  52.536  1.00  0.00     0.029 A 
ENDBRANCH  19  21
ENDBRANCH  14  17
ENDBRANCH   8  11
BRANCH  10  27
HETATM   27  C22 UNL     1      26.041  11.094  46.366  1.00  0.00     0.279 C 
BRANCH  27  28
HETATM   28  N5  UNL     1      24.689  11.236  46.854  1.00  0.00     0.079 N 
HETATM   29  H24 UNL     1      24.346  12.228  46.864  1.00  0.00     0.312 HD
HETATM   30  H25 UNL     1      24.019  10.579  46.408  1.00  0.00     0.312 HD
ENDBRANCH  27  28
ENDBRANCH  10  27
BRANCH   1  31
HETATM   31  O1  UNL     1      26.822  12.550  48.498  1.00  0.00    -0.360 OA
HETATM   32  C1  UNL     1      26.929  13.936  48.321  1.00  0.00     0.209 C 
ENDBRANCH   1  31
TORSDOF 6
ENDMDL
MODEL 7
REMARK VINA RESULT:      -7.8      9.585     12.663
REMARK  6 active torsions:
REMARK  status: ('A' for Active; 'I' for Inactive)
REMARK    1  A    between atoms: O1_2  and  C2_3 
REMARK    2  A    between atoms: N3_10  and  C7_11 
REMARK    3  A    between atoms: C10_14  and  C11_15 
REMARK       I    between atoms: C11_15  and  N4_17 
REMARK    4  A    between atoms: N4_17  and  C12_18 
REMARK    5  A    between atoms: C21_27  and  C22_28 
REMARK    6  A    between atoms: C22_28  and  N5_29 
ROOT
HETATM    1  C2  UNL     1      29.998  10.030  47.264  1.00  0.00     0.051 C 
HETATM    2  C3  UNL     1      29.843  10.687  46.187  1.00  0.00     0.029 C 
HETATM    3  C4  UNL     1      29.076  11.473  45.259  1.00  0.00     0.261 C 
HETATM    4  N1  UNL     1      27.874  11.640  45.763  1.00  0.00    -0.295 NA
HETATM    5  C5  UNL     1      27.646  11.037  47.033  1.00  0.00     0.164 C 
HETATM    6  N2  UNL     1      27.308   9.949  46.490  1.00  0.00    -0.272 NA
HETATM    7  C6  UNL     1      26.899   8.736  47.087  1.00  0.00     0.274 C 
HETATM    8  N3  UNL     1      27.477   8.458  48.372  1.00  0.00    -0.362 N 
HETATM    9  C20 UNL     1      28.393   9.282  49.085  1.00  0.00     0.138 C 
HETATM   10  C21 UNL     1      29.771   9.400  48.522  1.00  0.00     0.088 C 
ENDROOT
BRANCH   8  11
HETATM   11  C7  UNL     1      26.997   7.194  48.841  1.00  0.00     0.031 A 
HETATM   12  C8  UNL     1      25.922   7.056  49.687  1.00  0.00     0.030 A 
HETATM   13  C9  UNL     1      25.431   5.826  50.149  1.00  0.00     0.019 A 
HETATM   14  C10 UNL     1      26.038   4.665  49.752  1.00  0.00     0.032 A 
HETATM   15  C18 UNL     1      27.121   4.739  48.906  1.00  0.00     0.019 A 
HETATM   16  C19 UNL     1      27.546   5.982  48.493  1.00  0.00     0.030 A 
BRANCH  14  17
HETATM   17  C11 UNL     1      25.483   3.420  50.259  1.00  0.00     0.256 C 
HETATM   18  O2  UNL     1      24.534   2.869  49.692  1.00  0.00    -0.267 OA
HETATM   19  N4  UNL     1      26.013   2.798  51.421  1.00  0.00    -0.323 N 
HETATM   20  H11 UNL     1      26.809   3.181  51.971  1.00  0.00     0.169 HD
BRANCH  19  21
HETATM   21  C12 UNL     1      25.660   1.605  52.105  1.00  0.00     0.035 A 
HETATM   22  C13 UNL     1      26.554   0.540  51.938  1.00  0.00     0.029 A 
HETATM   23  C14 UNL     1      26.231  -0.624  52.593  1.00  0.00     0.002 A 
HETATM   24  C15 UNL     1      25.121  -0.823  53.385  1.00  0.00     0.000 A 
HETATM   25  C16 UNL     1      24.292   0.272  53.498  1.00  0.00     0.002 A 
HETATM   26  C17 UNL     1      24.510   1.484  52.892  1.00  0.00     0.029 A 
ENDBRANCH  19  21
ENDBRANCH  14  17
ENDBRANCH   8  11
BRANCH  10  27
HETATM   27  C22 UNL     1      30.678   9.948  49.639  1.00  0.00     0.279 C 
BRANCH  27  28
HETATM   28  N5  UNL     1      30.643  11.391  49.647  1.00  0.00     0.079 N 
HETATM   29  H24 UNL     1      29.736  11.790  49.993  1.00  0.00     0.312 HD
HETATM   30  H25 UNL     1      31.475  11.821  50.099  1.00  0.00     0.312 HD
ENDBRANCH  27  28
ENDBRANCH  10  27
BRANCH   1  31
HETATM   31  O1  UNL     1      31.362   9.686  47.044  1.00  0.00    -0.360 OA
HETATM   32  C1  UNL     1      31.746   8.579  46.275  1.00  0.00     0.209 C 
ENDBRANCH   1  31
TORSDOF 6
ENDMDL
MODEL 8
REMARK VINA RESULT:      -7.8      8.698     12.578
REMARK  6 active torsions:
REMARK  status: ('A' for Active; 'I' for Inactive)
REMARK    1  A    between atoms: O1_2  and  C2_3 
REMARK    2  A    between atoms: N3_10  and  C7_11 
REMARK    3  A    between atoms: C10_14  and  C11_15 
REMARK       I    between atoms: C11_15  and  N4_17 
REMARK    4  A    between atoms: N4_17  and  C12_18 
REMARK    5  A    between atoms: C21_27  and  C22_28 
REMARK    6  A    between atoms: C22_28  and  N5_29 
ROOT
HETATM    1  C2  UNL     1      30.052   9.230  48.255  1.00  0.00     0.051 C 
HETATM    2  C3  UNL     1      31.317   9.108  48.229  1.00  0.00     0.029 C 
HETATM    3  C4  UNL     1      32.541   8.491  47.796  1.00  0.00     0.261 C 
HETATM    4  N1  UNL     1      32.237   7.529  46.954  1.00  0.00    -0.295 NA
HETATM    5  C5  UNL     1      30.847   7.351  46.695  1.00  0.00     0.164 C 
HETATM    6  N2  UNL     1      30.731   6.574  47.684  1.00  0.00    -0.272 NA
HETATM    7  C6  UNL     1      29.588   5.902  48.167  1.00  0.00     0.274 C 
HETATM    8  N3  UNL     1      28.339   6.579  47.955  1.00  0.00    -0.362 N 
HETATM    9  C20 UNL     1      28.156   7.832  47.306  1.00  0.00     0.138 C 
HETATM   10  C21 UNL     1      28.660   9.043  48.023  1.00  0.00     0.088 C 
ENDROOT
BRANCH   8  11
HETATM   11  C7  UNL     1      27.278   5.800  48.517  1.00  0.00     0.031 A 
HETATM   12  C8  UNL     1      27.413   4.480  48.875  1.00  0.00     0.030 A 
HETATM   13  C9  UNL     1      26.390   3.702  49.436  1.00  0.00     0.019 A 
HETATM   14  C10 UNL     1      25.160   4.263  49.655  1.00  0.00     0.032 A 
HETATM   15  C18 UNL     1      24.963   5.582  49.316  1.00  0.00     0.019 A 
HETATM   16  C19 UNL     1      26.016   6.283  48.770  1.00  0.00     0.030 A 
BRANCH  14  17
HETATM   17  C11 UNL     1      24.138   3.411  50.243  1.00  0.00     0.256 C 
HETATM   18  O2  UNL     1      22.938   3.626  50.043  1.00  0.00    -0.267 OA
HETATM   19  N4  UNL     1      24.486   2.305  51.064  1.00  0.00    -0.323 N 
HETATM   20  H11 UNL     1      25.466   2.040  51.293  1.00  0.00     0.169 HD
BRANCH  19  21
HETATM   21  C12 UNL     1      23.695   1.339  51.740  1.00  0.00     0.035 A 
HETATM   22  C13 UNL     1      24.320   0.720  52.830  1.00  0.00     0.029 A 
HETATM   23  C14 UNL     1      23.571  -0.217  53.499  1.00  0.00     0.002 A 
HETATM   24  C15 UNL     1      22.280  -0.589  53.190  1.00  0.00     0.000 A 
HETATM   25  C16 UNL     1      21.737   0.066  52.107  1.00  0.00     0.002 A 
HETATM   26  C17 UNL     1      22.387   1.018  51.362  1.00  0.00     0.029 A 
ENDBRANCH  19  21
ENDBRANCH  14  17
ENDBRANCH   8  11
BRANCH  10  27
HETATM   27  C22 UNL     1      27.987  10.269  47.380  1.00  0.00     0.279 C 
BRANCH  27  28
HETATM   28  N5  UNL     1      27.187  10.968  48.359  1.00  0.00     0.079 N 
HETATM   29  H24 UNL     1      26.606  10.334  48.961  1.00  0.00     0.312 HD
HETATM   30  H25 UNL     1      27.726  11.667  48.908  1.00  0.00     0.312 HD
ENDBRANCH  27  28
ENDBRANCH  10  27
BRANCH   1  31
HETATM   31  O1  UNL     1      30.019  10.337  49.152  1.00  0.00    -0.360 OA
HETATM   32  C1  UNL     1      30.834  11.465  48.987  1.00  0.00     0.209 C 
ENDBRANCH   1  31
TORSDOF 6
ENDMDL
MODEL 9
REMARK VINA RESULT:      -7.4      7.713      9.192
REMARK  6 active torsions:
REMARK  status: ('A' for Active; 'I' for Inactive)
REMARK    1  A    between atoms: O1_2  and  C2_3 
REMARK    2  A    between atoms: N3_10  and  C7_11 
REMARK    3  A    between atoms: C10_14  and  C11_15 
REMARK       I    between atoms: C11_15  and  N4_17 
REMARK    4  A    between atoms: N4_17  and  C12_18 
REMARK    5  A    between atoms: C21_27  and  C22_28 
REMARK    6  A    between atoms: C22_28  and  N5_29 
ROOT
HETATM    1  C2  UNL     1      21.705   3.844  48.978  1.00  0.00     0.051 C 
HETATM    2  C3  UNL     1      21.138   3.422  50.034  1.00  0.00     0.029 C 
HETATM    3  C4  UNL     1      20.747   3.526  51.413  1.00  0.00     0.261 C 
HETATM    4  N1  UNL     1      21.180   4.678  51.874  1.00  0.00    -0.295 NA
HETATM    5  C5  UNL     1      21.887   5.490  50.941  1.00  0.00     0.164 C 
HETATM    6  N2  UNL     1      22.978   4.923  51.226  1.00  0.00    -0.272 NA
HETATM    7  C6  UNL     1      24.272   5.154  50.710  1.00  0.00     0.274 C 
HETATM    8  N3  UNL     1      24.319   5.600  49.346  1.00  0.00    -0.362 N 
HETATM    9  C20 UNL     1      23.205   5.836  48.493  1.00  0.00     0.138 C 
HETATM   10  C21 UNL     1      22.433   4.637  48.045  1.00  0.00     0.088 C 
ENDROOT
BRANCH   8  11
HETATM   11  C7  UNL     1      25.686   5.766  48.951  1.00  0.00     0.031 A 
HETATM   12  C8  UNL     1      26.621   4.760  49.012  1.00  0.00     0.030 A 
HETATM   13  C9  UNL     1      27.960   4.900  48.621  1.00  0.00     0.019 A 
HETATM   14  C10 UNL     1      28.401   6.104  48.141  1.00  0.00     0.032 A 
HETATM   15  C18 UNL     1      27.510   7.150  48.057  1.00  0.00     0.019 A 
HETATM   16  C19 UNL     1      26.210   6.938  48.459  1.00  0.00     0.030 A 
BRANCH  14  17
HETATM   17  C11 UNL     1      29.798   6.189  47.747  1.00  0.00     0.256 C 
HETATM   18  O2  UNL     1      30.175   7.020  46.914  1.00  0.00    -0.267 OA
HETATM   19  N4  UNL     1      30.774   5.321  48.305  1.00  0.00    -0.323 N 
HETATM   20  H11 UNL     1      30.560   4.588  49.012  1.00  0.00     0.169 HD
BRANCH  19  21
HETATM   21  C12 UNL     1      32.173   5.205  48.094  1.00  0.00     0.035 A 
HETATM   22  C13 UNL     1      32.964   6.042  48.891  1.00  0.00     0.029 A 
HETATM   23  C14 UNL     1      34.322   5.943  48.704  1.00  0.00     0.002 A 
HETATM   24  C15 UNL     1      34.954   5.102  47.813  1.00  0.00     0.000 A 
HETATM   25  C16 UNL     1      34.107   4.312  47.068  1.00  0.00     0.002 A 
HETATM   26  C17 UNL     1      32.738   4.323  47.166  1.00  0.00     0.029 A 
ENDBRANCH  19  21
ENDBRANCH  14  17
ENDBRANCH   8  11
BRANCH  10  27
HETATM   27  C22 UNL     1      21.589   5.063  46.830  1.00  0.00     0.279 C 
BRANCH  27  28
HETATM   28  N5  UNL     1      21.946   4.273  45.675  1.00  0.00     0.079 N 
HETATM   29  H24 UNL     1      21.431   3.361  45.612  1.00  0.00     0.312 HD
HETATM   30  H25 UNL     1      21.927   4.812  44.786  1.00  0.00     0.312 HD
ENDBRANCH  27  28
ENDBRANCH  10  27
BRANCH   1  31
HETATM   31  O1  UNL     1      21.368   2.728  48.160  1.00  0.00    -0.360 OA
HETATM   32  C1  UNL     1      21.930   1.458  48.350  1.00  0.00     0.209 C 
ENDBRANCH   1  31
TORSDOF 6
ENDMDL
