MODEL 1
REMARK VINA RESULT:      -9.1      0.000      0.000
REMARK  1 active torsions:
REMARK  status: ('A' for Active; 'I' for Inactive)
REMARK    1  A    between atoms: N1_1  and  C1_2 
ROOT
HETATM    1  C1  UNL     1      26.062   2.126  53.118  1.00  0.00     0.017 C 
HETATM    2  C2  UNL     1      24.729   2.103  52.900  1.00  0.00    -0.002 C 
HETATM    3  C3  UNL     1      23.954   0.872  53.034  1.00  0.00     0.071 C 
HETATM    4  N2  UNL     1      25.042   0.148  53.312  1.00  0.00    -0.288 NA
HETATM    5  C4  UNL     1      26.019  -0.016  52.147  1.00  0.00     0.160 C 
HETATM    6  C5  UNL     1      26.533   1.414  51.859  1.00  0.00     0.055 C 
HETATM    7  C6  UNL     1      25.903   2.133  50.743  1.00  0.00     0.013 C 
HETATM    8  C7  UNL     1      25.364   3.535  51.079  1.00  0.00     0.010 C 
HETATM    9  C8  UNL     1      24.338   3.401  52.200  1.00  0.00     0.025 C 
HETATM   10  C9  UNL     1      24.073   4.546  53.061  1.00  0.00     0.036 C 
HETATM   11  C10 UNL     1      22.662   5.135  52.715  1.00  0.00     0.168 C 
HETATM   12  O1  UNL     1      22.764   5.635  51.452  1.00  0.00    -0.389 OA
HETATM   13  C11 UNL     1      21.619   6.071  50.849  1.00  0.00     0.197 C 
HETATM   14  C12 UNL     1      20.658   5.008  50.421  1.00  0.00     0.295 C 
HETATM   15  N3  UNL     1      20.224   4.175  51.493  1.00  0.00     0.086 N 
HETATM   16  C13 UNL     1      19.359   3.099  51.091  1.00  0.00     0.280 C 
HETATM   17  C14 UNL     1      19.978   2.063  50.214  1.00  0.00     0.109 C 
HETATM   18  S1  UNL     1      21.472   1.320  50.782  1.00  0.00    -0.126 SA
HETATM   19  C15 UNL     1      21.460   0.419  52.274  1.00  0.00     0.030 A 
HETATM   20  C16 UNL     1      20.375  -0.260  52.764  1.00  0.00     0.028 A 
HETATM   21 BR1  UNL     1      18.763  -0.337  51.752  1.00  0.00    -0.050 Br
HETATM   22  C17 UNL     1      20.325  -0.949  53.949  1.00  0.00     0.020 A 
HETATM   23  C18 UNL     1      21.426  -1.010  54.774  1.00  0.00     0.002 A 
HETATM   24  C19 UNL     1      22.549  -0.320  54.284  1.00  0.00     0.015 A 
HETATM   25  C20 UNL     1      22.581   0.388  53.057  1.00  0.00     0.011 A 
HETATM   26  H19 UNL     1      19.788   4.734  52.276  1.00  0.00     0.315 HD
ENDROOT
BRANCH   1  27
HETATM   27  N1  UNL     1      27.138   2.458  53.990  1.00  0.00    -0.401 N 
HETATM   28  H1  UNL     1      27.428   1.749  54.678  1.00  0.00     0.156 HD
HETATM   29  H2  UNL     1      27.688   3.313  54.049  1.00  0.00     0.156 HD
ENDBRANCH   1  27
TORSDOF 1
ENDMDL
MODEL 2
REMARK VINA RESULT:      -7.6      3.317      4.764
REMARK  1 active torsions:
REMARK  status: ('A' for Active; 'I' for Inactive)
REMARK    1  A    between atoms: N1_1  and  C1_2 
ROOT
HETATM    1  C1  UNL     1      25.861   7.247  49.878  1.00  0.00     0.017 C 
HETATM    2  C2  UNL     1      24.773   6.445  49.881  1.00  0.00    -0.002 C 
HETATM    3  C3  UNL     1      24.896   4.993  49.961  1.00  0.00     0.071 C 
HETATM    4  N2  UNL     1      26.230   5.045  49.947  1.00  0.00    -0.288 NA
HETATM    5  C4  UNL     1      26.841   5.514  48.626  1.00  0.00     0.160 C 
HETATM    6  C5  UNL     1      26.365   6.977  48.468  1.00  0.00     0.055 C 
HETATM    7  C6  UNL     1      25.211   7.207  47.587  1.00  0.00     0.013 C 
HETATM    8  C7  UNL     1      24.056   8.013  48.208  1.00  0.00     0.010 C 
HETATM    9  C8  UNL     1      23.567   7.276  49.451  1.00  0.00     0.025 C 
HETATM   10  C9  UNL     1      22.890   8.025  50.501  1.00  0.00     0.036 C 
HETATM   11  C10 UNL     1      21.362   7.673  50.482  1.00  0.00     0.168 C 
HETATM   12  O1  UNL     1      20.880   8.162  49.305  1.00  0.00    -0.389 OA
HETATM   13  C11 UNL     1      19.594   7.850  48.969  1.00  0.00     0.197 C 
HETATM   14  C12 UNL     1      19.351   6.434  48.556  1.00  0.00     0.295 C 
HETATM   15  N3  UNL     1      19.720   5.483  49.553  1.00  0.00     0.086 N 
HETATM   16  C13 UNL     1      19.566   4.113  49.147  1.00  0.00     0.280 C 
HETATM   17  C14 UNL     1      20.456   3.661  48.038  1.00  0.00     0.109 C 
HETATM   18  S1  UNL     1      22.186   3.932  48.238  1.00  0.00    -0.126 SA
HETATM   19  C15 UNL     1      23.020   3.169  49.565  1.00  0.00     0.030 A 
HETATM   20  C16 UNL     1      22.659   1.970  50.122  1.00  0.00     0.028 A 
HETATM   21 BR1  UNL     1      21.209   0.976  49.390  1.00  0.00    -0.050 Br
HETATM   22  C17 UNL     1      23.274   1.360  51.187  1.00  0.00     0.020 A 
HETATM   23  C18 UNL     1      24.359   1.945  51.801  1.00  0.00     0.002 A 
HETATM   24  C19 UNL     1      24.743   3.175  51.239  1.00  0.00     0.015 A 
HETATM   25  C20 UNL     1      24.094   3.790  50.140  1.00  0.00     0.011 A 
HETATM   26  H19 UNL     1      19.227   5.661  50.469  1.00  0.00     0.315 HD
ENDROOT
BRANCH   1  27
HETATM   27  N1  UNL     1      26.711   8.133  50.599  1.00  0.00    -0.401 N 
HETATM   28  H1  UNL     1      27.519   8.529  50.100  1.00  0.00     0.156 HD
HETATM   29  H2  UNL     1      26.649   8.452  51.565  1.00  0.00     0.156 HD
ENDBRANCH   1  27
TORSDOF 1
ENDMDL
MODEL 3
REMARK VINA RESULT:      -7.5     10.019     13.258
REMARK  1 active torsions:
REMARK  status: ('A' for Active; 'I' for Inactive)
REMARK    1  A    between atoms: N1_1  and  C1_2 
ROOT
HETATM    1  C1  UNL     1      29.078   8.822  48.916  1.00  0.00     0.017 C 
HETATM    2  C2  UNL     1      30.093   8.504  48.082  1.00  0.00    -0.002 C 
HETATM    3  C3  UNL     1      30.542   9.424  47.041  1.00  0.00     0.071 C 
HETATM    4  N2  UNL     1      29.598  10.319  47.342  1.00  0.00    -0.288 NA
HETATM    5  C4  UNL     1      28.168   9.880  47.022  1.00  0.00     0.160 C 
HETATM    6  C5  UNL     1      27.910   8.672  47.953  1.00  0.00     0.055 C 
HETATM    7  C6  UNL     1      28.057   7.335  47.361  1.00  0.00     0.013 C 
HETATM    8  C7  UNL     1      28.986   6.373  48.123  1.00  0.00     0.010 C 
HETATM    9  C8  UNL     1      30.369   7.009  48.215  1.00  0.00     0.025 C 
HETATM   10  C9  UNL     1      31.265   6.610  49.291  1.00  0.00     0.036 C 
HETATM   11  C10 UNL     1      32.419   5.728  48.701  1.00  0.00     0.168 C 
HETATM   12  O1  UNL     1      31.828   4.581  48.263  1.00  0.00    -0.389 OA
HETATM   13  C11 UNL     1      32.598   3.700  47.559  1.00  0.00     0.197 C 
HETATM   14  C12 UNL     1      32.967   4.116  46.171  1.00  0.00     0.295 C 
HETATM   15  N3  UNL     1      33.673   5.355  46.123  1.00  0.00     0.086 N 
HETATM   16  C13 UNL     1      33.970   5.812  44.793  1.00  0.00     0.280 C 
HETATM   17  C14 UNL     1      32.791   6.170  43.951  1.00  0.00     0.109 C 
HETATM   18  S1  UNL     1      31.641   7.321  44.631  1.00  0.00    -0.126 SA
HETATM   19  C15 UNL     1      32.179   8.933  45.020  1.00  0.00     0.030 A 
HETATM   20  C16 UNL     1      33.184   9.596  44.366  1.00  0.00     0.028 A 
HETATM   21 BR1  UNL     1      34.037   8.792  42.865  1.00  0.00    -0.050 Br
HETATM   22  C17 UNL     1      33.653  10.850  44.670  1.00  0.00     0.020 A 
HETATM   23  C18 UNL     1      33.110  11.569  45.711  1.00  0.00     0.002 A 
HETATM   24  C19 UNL     1      32.075  10.903  46.391  1.00  0.00     0.015 A 
HETATM   25  C20 UNL     1      31.606   9.606  46.064  1.00  0.00     0.011 A 
HETATM   26  H19 UNL     1      34.545   5.336  46.717  1.00  0.00     0.315 HD
ENDROOT
BRANCH   1  27
HETATM   27  N1  UNL     1      28.667   9.261  50.206  1.00  0.00    -0.401 N 
HETATM   28  H1  UNL     1      28.159  10.154  50.265  1.00  0.00     0.156 HD
HETATM   29  H2  UNL     1      28.798   8.821  51.116  1.00  0.00     0.156 HD
ENDBRANCH   1  27
TORSDOF 1
ENDMDL
MODEL 4
REMARK VINA RESULT:      -7.4      3.912      6.275
REMARK  1 active torsions:
REMARK  status: ('A' for Active; 'I' for Inactive)
REMARK    1  A    between atoms: N1_1  and  C1_2 
ROOT
HETATM    1  C1  UNL     1      23.303   1.675  51.520  1.00  0.00     0.017 C 
HETATM    2  C2  UNL     1      23.443   2.608  50.552  1.00  0.00    -0.002 C 
HETATM    3  C3  UNL     1      24.578   3.527  50.537  1.00  0.00     0.071 C 
HETATM    4  N2  UNL     1      25.067   3.037  51.679  1.00  0.00    -0.288 NA
HETATM    5  C4  UNL     1      24.219   3.329  52.919  1.00  0.00     0.160 C 
HETATM    6  C5  UNL     1      22.891   2.574  52.675  1.00  0.00     0.055 C 
HETATM    7  C6  UNL     1      21.761   3.367  52.172  1.00  0.00     0.013 C 
HETATM    8  C7  UNL     1      21.077   2.816  50.908  1.00  0.00     0.010 C 
HETATM    9  C8  UNL     1      22.121   2.717  49.800  1.00  0.00     0.025 C 
HETATM   10  C9  UNL     1      21.915   1.770  48.712  1.00  0.00     0.036 C 
HETATM   11  C10 UNL     1      21.544   2.556  47.407  1.00  0.00     0.168 C 
HETATM   12  O1  UNL     1      20.328   3.122  47.644  1.00  0.00    -0.389 OA
HETATM   13  C11 UNL     1      19.844   3.996  46.712  1.00  0.00     0.197 C 
HETATM   14  C12 UNL     1      20.523   5.327  46.649  1.00  0.00     0.295 C 
HETATM   15  N3  UNL     1      21.922   5.234  46.386  1.00  0.00     0.086 N 
HETATM   16  C13 UNL     1      22.609   6.497  46.397  1.00  0.00     0.280 C 
HETATM   17  C14 UNL     1      22.653   7.201  47.711  1.00  0.00     0.109 C 
HETATM   18  S1  UNL     1      23.266   6.287  49.088  1.00  0.00    -0.126 SA
HETATM   19  C15 UNL     1      24.906   5.696  49.056  1.00  0.00     0.030 A 
HETATM   20  C16 UNL     1      25.938   6.306  48.393  1.00  0.00     0.028 A 
HETATM   21 BR1  UNL     1      25.650   7.960  47.495  1.00  0.00    -0.050 Br
HETATM   22  C17 UNL     1      27.231   5.848  48.322  1.00  0.00     0.020 A 
HETATM   23  C18 UNL     1      27.598   4.680  48.950  1.00  0.00     0.002 A 
HETATM   24  C19 UNL     1      26.550   4.043  49.637  1.00  0.00     0.015 A 
HETATM   25  C20 UNL     1      25.220   4.530  49.699  1.00  0.00     0.011 A 
HETATM   26  H19 UNL     1      22.122   4.705  45.495  1.00  0.00     0.315 HD
ENDROOT
BRANCH   1  27
HETATM   27  N1  UNL     1      23.423   0.310  51.908  1.00  0.00    -0.401 N 
HETATM   28  H1  UNL     1      24.130  -0.261  51.426  1.00  0.00     0.156 HD
HETATM   29  H2  UNL     1      22.904  -0.215  52.610  1.00  0.00     0.156 HD
ENDBRANCH   1  27
TORSDOF 1
ENDMDL
MODEL 5
REMARK VINA RESULT:      -7.4      2.216      4.943
REMARK  1 active torsions:
REMARK  status: ('A' for Active; 'I' for Inactive)
REMARK    1  A    between atoms: N1_1  and  C1_2 
ROOT
HETATM    1  C1  UNL     1      23.683   4.367  50.884  1.00  0.00     0.017 C 
HETATM    2  C2  UNL     1      23.099   3.229  51.322  1.00  0.00    -0.002 C 
HETATM    3  C3  UNL     1      21.673   2.981  51.132  1.00  0.00     0.071 C 
HETATM    4  N2  UNL     1      21.481   4.174  50.561  1.00  0.00    -0.288 NA
HETATM    5  C4  UNL     1      21.647   5.370  51.501  1.00  0.00     0.160 C 
HETATM    6  C5  UNL     1      23.136   5.341  51.916  1.00  0.00     0.055 C 
HETATM    7  C6  UNL     1      23.449   4.746  53.223  1.00  0.00     0.013 C 
HETATM    8  C7  UNL     1      24.527   3.647  53.208  1.00  0.00     0.010 C 
HETATM    9  C8  UNL     1      24.067   2.533  52.273  1.00  0.00     0.025 C 
HETATM   10  C9  UNL     1      25.062   1.663  51.661  1.00  0.00     0.036 C 
HETATM   11  C10 UNL     1      24.993   0.248  52.333  1.00  0.00     0.168 C 
HETATM   12  O1  UNL     1      25.396   0.425  53.622  1.00  0.00    -0.389 OA
HETATM   13  C11 UNL     1      25.279  -0.636  54.474  1.00  0.00     0.197 C 
HETATM   14  C12 UNL     1      23.887  -0.992  54.889  1.00  0.00     0.295 C 
HETATM   15  N3  UNL     1      23.031  -1.296  53.790  1.00  0.00     0.086 N 
HETATM   16  C13 UNL     1      21.668  -1.565  54.161  1.00  0.00     0.280 C 
HETATM   17  C14 UNL     1      20.916  -0.418  54.746  1.00  0.00     0.109 C 
HETATM   18  S1  UNL     1      20.895   1.082  53.819  1.00  0.00    -0.126 SA
HETATM   19  C15 UNL     1      20.181   1.090  52.229  1.00  0.00     0.030 A 
HETATM   20  C16 UNL     1      19.155   0.273  51.834  1.00  0.00     0.028 A 
HETATM   21 BR1  UNL     1      18.349  -0.918  53.082  1.00  0.00    -0.050 Br
HETATM   22  C17 UNL     1      18.595   0.232  50.581  1.00  0.00     0.020 A 
HETATM   23  C18 UNL     1      19.052   1.060  49.580  1.00  0.00     0.002 A 
HETATM   24  C19 UNL     1      20.104   1.907  49.971  1.00  0.00     0.015 A 
HETATM   25  C20 UNL     1      20.671   1.934  51.270  1.00  0.00     0.011 A 
HETATM   26  H19 UNL     1      23.418  -2.074  53.191  1.00  0.00     0.315 HD
ENDROOT
BRANCH   1  27
HETATM   27  N1  UNL     1      24.491   5.009  49.903  1.00  0.00    -0.401 N 
HETATM   28  H1  UNL     1      24.961   5.884  50.172  1.00  0.00     0.156 HD
HETATM   29  H2  UNL     1      24.687   4.736  48.941  1.00  0.00     0.156 HD
ENDBRANCH   1  27
TORSDOF 1
ENDMDL
MODEL 6
REMARK VINA RESULT:      -7.4      7.983      9.905
REMARK  1 active torsions:
REMARK  status: ('A' for Active; 'I' for Inactive)
REMARK    1  A    between atoms: N1_1  and  C1_2 
ROOT
HETATM    1  C1  UNL     1      31.816   6.087  48.789  1.00  0.00     0.017 C 
HETATM    2  C2  UNL     1      30.716   6.849  48.597  1.00  0.00    -0.002 C 
HETATM    3  C3  UNL     1      29.428   6.255  48.251  1.00  0.00     0.071 C 
HETATM    4  N2  UNL     1      29.940   5.022  48.209  1.00  0.00    -0.288 NA
HETATM    5  C4  UNL     1      30.918   4.771  47.059  1.00  0.00     0.160 C 
HETATM    6  C5  UNL     1      32.113   5.709  47.346  1.00  0.00     0.055 C 
HETATM    7  C6  UNL     1      32.150   6.979  46.607  1.00  0.00     0.013 C 
HETATM    8  C7  UNL     1      32.316   8.242  47.472  1.00  0.00     0.010 C 
HETATM    9  C8  UNL     1      31.160   8.302  48.464  1.00  0.00     0.025 C 
HETATM   10  C9  UNL     1      31.328   9.043  49.708  1.00  0.00     0.036 C 
HETATM   11  C10 UNL     1      30.488  10.365  49.637  1.00  0.00     0.168 C 
HETATM   12  O1  UNL     1      31.068  11.127  48.668  1.00  0.00    -0.389 OA
HETATM   13  C11 UNL     1      30.429  12.276  48.299  1.00  0.00     0.197 C 
HETATM   14  C12 UNL     1      29.176  12.101  47.502  1.00  0.00     0.295 C 
HETATM   15  N3  UNL     1      28.187  11.320  48.171  1.00  0.00     0.086 N 
HETATM   16  C13 UNL     1      27.004  11.075  47.392  1.00  0.00     0.280 C 
HETATM   17  C14 UNL     1      27.192  10.238  46.172  1.00  0.00     0.109 C 
HETATM   18  S1  UNL     1      27.983   8.677  46.385  1.00  0.00    -0.126 SA
HETATM   19  C15 UNL     1      27.238   7.478  47.407  1.00  0.00     0.030 A 
HETATM   20  C16 UNL     1      25.887   7.358  47.607  1.00  0.00     0.028 A 
HETATM   21 BR1  UNL     1      24.680   8.492  46.667  1.00  0.00    -0.050 Br
HETATM   22  C17 UNL     1      25.273   6.447  48.430  1.00  0.00     0.020 A 
HETATM   23  C18 UNL     1      26.016   5.539  49.151  1.00  0.00     0.002 A 
HETATM   24  C19 UNL     1      27.403   5.647  48.955  1.00  0.00     0.015 A 
HETATM   25  C20 UNL     1      28.020   6.596  48.101  1.00  0.00     0.011 A 
HETATM   26  H19 UNL     1      27.939  11.721  49.115  1.00  0.00     0.315 HD
ENDROOT
BRANCH   1  27
HETATM   27  N1  UNL     1      32.721   5.482  49.708  1.00  0.00    -0.401 N 
HETATM   28  H1  UNL     1      33.418   4.828  49.327  1.00  0.00     0.156 HD
HETATM   29  H2  UNL     1      32.795   5.594  50.717  1.00  0.00     0.156 HD
ENDBRANCH   1  27
TORSDOF 1
ENDMDL
MODEL 7
REMARK VINA RESULT:      -7.2      5.223      7.797
REMARK  1 active torsions:
REMARK  status: ('A' for Active; 'I' for Inactive)
REMARK    1  A    between atoms: N1_1  and  C1_2 
ROOT
HETATM    1  C1  UNL     1      23.275   3.468  49.457  1.00  0.00     0.017 C 
HETATM    2  C2  UNL     1      23.902   4.579  49.011  1.00  0.00    -0.002 C 
HETATM    3  C3  UNL     1      25.296   4.855  49.344  1.00  0.00     0.071 C 
HETATM    4  N2  UNL     1      25.392   3.764  50.109  1.00  0.00    -0.288 NA
HETATM    5  C4  UNL     1      24.565   3.806  51.395  1.00  0.00     0.160 C 
HETATM    6  C5  UNL     1      23.095   3.854  50.917  1.00  0.00     0.055 C 
HETATM    7  C6  UNL     1      22.446   5.172  50.898  1.00  0.00     0.013 C 
HETATM    8  C7  UNL     1      21.782   5.563  49.565  1.00  0.00     0.010 C 
HETATM    9  C8  UNL     1      22.845   5.538  48.471  1.00  0.00     0.025 C 
HETATM   10  C9  UNL     1      22.436   5.338  47.087  1.00  0.00     0.036 C 
HETATM   11  C10 UNL     1      22.587   6.689  46.305  1.00  0.00     0.168 C 
HETATM   12  O1  UNL     1      21.669   7.539  46.846  1.00  0.00    -0.389 OA
HETATM   13  C11 UNL     1      21.701   8.844  46.443  1.00  0.00     0.197 C 
HETATM   14  C12 UNL     1      22.849   9.658  46.947  1.00  0.00     0.295 C 
HETATM   15  N3  UNL     1      24.121   9.123  46.587  1.00  0.00     0.086 N 
HETATM   16  C13 UNL     1      25.239   9.847  47.126  1.00  0.00     0.280 C 
HETATM   17  C14 UNL     1      25.375   9.819  48.612  1.00  0.00     0.109 C 
HETATM   18  S1  UNL     1      25.384   8.235  49.385  1.00  0.00    -0.126 SA
HETATM   19  C15 UNL     1      26.649   7.102  48.990  1.00  0.00     0.030 A 
HETATM   20  C16 UNL     1      27.918   7.455  48.613  1.00  0.00     0.028 A 
HETATM   21 BR1  UNL     1      28.428   9.289  48.581  1.00  0.00    -0.050 Br
HETATM   22  C17 UNL     1      28.924   6.589  48.263  1.00  0.00     0.020 A 
HETATM   23  C18 UNL     1      28.713   5.228  48.271  1.00  0.00     0.002 A 
HETATM   24  C19 UNL     1      27.416   4.850  48.658  1.00  0.00     0.015 A 
HETATM   25  C20 UNL     1      26.389   5.759  49.014  1.00  0.00     0.011 A 
HETATM   26  H19 UNL     1      24.218   9.006  45.542  1.00  0.00     0.315 HD
ENDROOT
BRANCH   1  27
HETATM   27  N1  UNL     1      22.796   2.157  49.177  1.00  0.00    -0.401 N 
HETATM   28  H1  UNL     1      22.553   1.938  48.201  1.00  0.00     0.156 HD
HETATM   29  H2  UNL     1      22.647   1.370  49.806  1.00  0.00     0.156 HD
ENDBRANCH   1  27
TORSDOF 1
ENDMDL
MODEL 8
REMARK VINA RESULT:      -7.1      2.739      5.256
REMARK  1 active torsions:
REMARK  status: ('A' for Active; 'I' for Inactive)
REMARK    1  A    between atoms: N1_1  and  C1_2 
ROOT
HETATM    1  C1  UNL     1      24.765   4.616  50.502  1.00  0.00     0.017 C 
HETATM    2  C2  UNL     1      23.589   3.959  50.395  1.00  0.00    -0.002 C 
HETATM    3  C3  UNL     1      22.587   4.344  49.405  1.00  0.00     0.071 C 
HETATM    4  N2  UNL     1      23.322   5.372  48.973  1.00  0.00    -0.288 NA
HETATM    5  C4  UNL     1      23.480   6.515  49.978  1.00  0.00     0.160 C 
HETATM    6  C5  UNL     1      24.274   5.900  51.154  1.00  0.00     0.055 C 
HETATM    7  C6  UNL     1      23.498   5.473  52.326  1.00  0.00     0.013 C 
HETATM    8  C7  UNL     1      23.743   4.026  52.791  1.00  0.00     0.010 C 
HETATM    9  C8  UNL     1      23.416   3.087  51.634  1.00  0.00     0.025 C 
HETATM   10  C9  UNL     1      24.038   1.770  51.591  1.00  0.00     0.036 C 
HETATM   11  C10 UNL     1      22.962   0.681  51.931  1.00  0.00     0.168 C 
HETATM   12  O1  UNL     1      22.618   0.888  53.233  1.00  0.00    -0.389 OA
HETATM   13  C11 UNL     1      21.575   0.163  53.736  1.00  0.00     0.197 C 
HETATM   14  C12 UNL     1      20.215   0.548  53.248  1.00  0.00     0.295 C 
HETATM   15  N3  UNL     1      20.081   0.466  51.830  1.00  0.00     0.086 N 
HETATM   16  C13 UNL     1      18.805   0.904  51.333  1.00  0.00     0.280 C 
HETATM   17  C14 UNL     1      18.497   2.351  51.523  1.00  0.00     0.109 C 
HETATM   18  S1  UNL     1      19.689   3.509  50.935  1.00  0.00    -0.126 SA
HETATM   19  C15 UNL     1      20.068   3.549  49.234  1.00  0.00     0.030 A 
HETATM   20  C16 UNL     1      19.191   3.220  48.234  1.00  0.00     0.028 A 
HETATM   21 BR1  UNL     1      17.392   2.760  48.657  1.00  0.00    -0.050 Br
HETATM   22  C17 UNL     1      19.470   3.209  46.890  1.00  0.00     0.020 A 
HETATM   23  C18 UNL     1      20.721   3.551  46.429  1.00  0.00     0.002 A 
HETATM   24  C19 UNL     1      21.633   3.894  47.443  1.00  0.00     0.015 A 
HETATM   25  C20 UNL     1      21.327   3.898  48.827  1.00  0.00     0.011 A 
HETATM   26  H19 UNL     1      20.315  -0.497  51.466  1.00  0.00     0.315 HD
ENDROOT
BRANCH   1  27
HETATM   27  N1  UNL     1      26.163   4.643  50.233  1.00  0.00    -0.401 N 
HETATM   28  H1  UNL     1      26.716   5.395  50.665  1.00  0.00     0.156 HD
HETATM   29  H2  UNL     1      26.728   4.017  49.661  1.00  0.00     0.156 HD
ENDBRANCH   1  27
TORSDOF 1
ENDMDL
MODEL 9
REMARK VINA RESULT:      -7.1     10.927     13.465
REMARK  1 active torsions:
REMARK  status: ('A' for Active; 'I' for Inactive)
REMARK    1  A    between atoms: N1_1  and  C1_2 
ROOT
HETATM    1  C1  UNL     1      32.433   3.715  46.403  1.00  0.00     0.017 C 
HETATM    2  C2  UNL     1      32.369   5.039  46.142  1.00  0.00    -0.002 C 
HETATM    3  C3  UNL     1      33.056   5.624  44.994  1.00  0.00     0.071 C 
HETATM    4  N2  UNL     1      33.590   4.452  44.640  1.00  0.00    -0.288 NA
HETATM    5  C4  UNL     1      34.639   3.905  45.609  1.00  0.00     0.160 C 
HETATM    6  C5  UNL     1      33.862   3.632  46.918  1.00  0.00     0.055 C 
HETATM    7  C6  UNL     1      33.960   4.650  47.972  1.00  0.00     0.013 C 
HETATM    8  C7  UNL     1      32.617   5.158  48.528  1.00  0.00     0.010 C 
HETATM    9  C8  UNL     1      31.808   5.742  47.374  1.00  0.00     0.025 C 
HETATM   10  C9  UNL     1      30.356   5.798  47.481  1.00  0.00     0.036 C 
HETATM   11  C10 UNL     1      29.913   7.287  47.695  1.00  0.00     0.168 C 
HETATM   12  O1  UNL     1      30.391   7.649  48.918  1.00  0.00    -0.389 OA
HETATM   13  C11 UNL     1      30.273   8.960  49.282  1.00  0.00     0.197 C 
HETATM   14  C12 UNL     1      31.175   9.920  48.573  1.00  0.00     0.295 C 
HETATM   15  N3  UNL     1      31.010   9.907  47.157  1.00  0.00     0.086 N 
HETATM   16  C13 UNL     1      31.921  10.766  46.450  1.00  0.00     0.280 C 
HETATM   17  C14 UNL     1      33.362  10.392  46.531  1.00  0.00     0.109 C 
HETATM   18  S1  UNL     1      33.787   8.739  46.088  1.00  0.00    -0.126 SA
HETATM   19  C15 UNL     1      33.469   8.185  44.466  1.00  0.00     0.030 A 
HETATM   20  C16 UNL     1      33.465   8.989  43.357  1.00  0.00     0.028 A 
HETATM   21 BR1  UNL     1      33.915  10.833  43.514  1.00  0.00    -0.050 Br
HETATM   22  C17 UNL     1      33.186   8.589  42.074  1.00  0.00     0.020 A 
HETATM   23  C18 UNL     1      32.875   7.276  41.799  1.00  0.00     0.002 A 
HETATM   24  C19 UNL     1      32.877   6.437  42.927  1.00  0.00     0.015 A 
HETATM   25  C20 UNL     1      33.167   6.869  44.246  1.00  0.00     0.011 A 
HETATM   26  H19 UNL     1      30.013  10.102  46.873  1.00  0.00     0.315 HD
ENDROOT
BRANCH   1  27
HETATM   27  N1  UNL     1      31.798   2.442  46.353  1.00  0.00    -0.401 N 
HETATM   28  H1  UNL     1      30.807   2.416  46.077  1.00  0.00     0.156 HD
HETATM   29  H2  UNL     1      32.175   1.517  46.554  1.00  0.00     0.156 HD
ENDBRANCH   1  27
TORSDOF 1
ENDMDL
