MODEL 1
REMARK VINA RESULT:      -8.3      0.000      0.000
REMARK  6 active torsions:
REMARK  status: ('A' for Active; 'I' for Inactive)
REMARK    1  A    between atoms: N1_1  and  C1_2 
REMARK    2  A    between atoms: C1_2  and  N2_4 
REMARK    3  A    between atoms: N2_4  and  N3_5 
REMARK    4  A    between atoms: C2_6  and  C3_7 
REMARK    5  A    between atoms: C2_6  and  C11_16 
REMARK    6  A    between atoms: C4_8  and  C5_9 
ROOT
HETATM    1  N3  UNL     1      27.127   2.428  51.664  1.00  0.00    -0.176 NA
HETATM    2  C2  UNL     1      26.549   1.521  52.420  1.00  0.00     0.066 C 
ENDROOT
BRANCH   2   3
HETATM    3  C3  UNL     1      25.119   1.618  52.688  1.00  0.00     0.035 C 
HETATM    4  C4  UNL     1      24.445   0.508  52.992  1.00  0.00     0.069 C 
BRANCH   4   5
HETATM    5  C5  UNL     1      23.132   0.015  53.328  1.00  0.00    -0.052 A 
HETATM    6  C6  UNL     1      22.462  -0.732  54.310  1.00  0.00     0.009 A 
HETATM    7  C7  UNL     1      21.133  -1.034  54.327  1.00  0.00     0.024 A 
HETATM    8  C8  UNL     1      20.444  -0.536  53.259  1.00  0.00     0.034 A 
HETATM    9 CL1  UNL     1      18.735  -0.979  53.369  1.00  0.00    -0.084 Cl
HETATM   10  C9  UNL     1      20.955   0.207  52.227  1.00  0.00     0.024 A 
HETATM   11  C10 UNL     1      22.327   0.478  52.277  1.00  0.00     0.009 A 
ENDBRANCH   4   5
ENDBRANCH   2   3
BRANCH   2  12
HETATM   12  C11 UNL     1      27.587   0.577  52.820  1.00  0.00    -0.010 A 
HETATM   13  C12 UNL     1      27.479  -0.790  52.728  1.00  0.00     0.013 A 
HETATM   14  C13 UNL     1      28.395  -1.753  53.077  1.00  0.00     0.001 A 
HETATM   15  C14 UNL     1      29.590  -1.300  53.590  1.00  0.00     0.000 A 
HETATM   16  C15 UNL     1      29.797   0.050  53.723  1.00  0.00     0.001 A 
HETATM   17  C16 UNL     1      28.813   0.929  53.343  1.00  0.00     0.013 A 
ENDBRANCH   2  12
BRANCH   1  18
HETATM   18  N2  UNL     1      26.342   3.454  51.149  1.00  0.00    -0.253 N 
HETATM   19  H3  UNL     1      25.504   3.886  51.612  1.00  0.00     0.191 HD
BRANCH  18  20
HETATM   20  C1  UNL     1      26.417   4.193  49.917  1.00  0.00     0.185 C 
HETATM   21  S1  UNL     1      24.997   4.737  49.278  1.00  0.00    -0.040 SA
BRANCH  20  22
HETATM   22  N1  UNL     1      27.397   4.658  48.972  1.00  0.00    -0.375 N 
HETATM   23  H1  UNL     1      28.371   4.814  49.283  1.00  0.00     0.158 HD
HETATM   24  H2  UNL     1      27.154   4.850  47.958  1.00  0.00     0.158 HD
ENDBRANCH  20  22
ENDBRANCH  18  20
ENDBRANCH   1  18
TORSDOF 6
ENDMDL
MODEL 2
REMARK VINA RESULT:      -8.1      3.958      6.901
REMARK  6 active torsions:
REMARK  status: ('A' for Active; 'I' for Inactive)
REMARK    1  A    between atoms: N1_1  and  C1_2 
REMARK    2  A    between atoms: C1_2  and  N2_4 
REMARK    3  A    between atoms: N2_4  and  N3_5 
REMARK    4  A    between atoms: C2_6  and  C3_7 
REMARK    5  A    between atoms: C2_6  and  C11_16 
REMARK    6  A    between atoms: C4_8  and  C5_9 
ROOT
HETATM    1  N3  UNL     1      25.663  -0.857  53.065  1.00  0.00    -0.176 NA
HETATM    2  C2  UNL     1      24.947   0.240  52.967  1.00  0.00     0.066 C 
ENDROOT
BRANCH   2   3
HETATM    3  C3  UNL     1      25.601   1.492  52.604  1.00  0.00     0.035 C 
HETATM    4  C4  UNL     1      25.109   2.203  51.587  1.00  0.00     0.069 C 
BRANCH   4   5
HETATM    5  C5  UNL     1      25.307   3.413  50.828  1.00  0.00    -0.052 A 
HETATM    6  C6  UNL     1      24.732   4.676  50.614  1.00  0.00     0.009 A 
HETATM    7  C7  UNL     1      25.200   5.643  49.776  1.00  0.00     0.024 A 
HETATM    8  C8  UNL     1      26.338   5.289  49.110  1.00  0.00     0.034 A 
HETATM    9 CL1  UNL     1      26.867   6.603  48.051  1.00  0.00    -0.084 Cl
HETATM   10  C9  UNL     1      27.012   4.100  49.213  1.00  0.00     0.024 A 
HETATM   11  C10 UNL     1      26.472   3.155  50.093  1.00  0.00     0.009 A 
ENDBRANCH   4   5
ENDBRANCH   2   3
BRANCH   2  12
HETATM   12  C11 UNL     1      23.568  -0.124  53.274  1.00  0.00    -0.010 A 
HETATM   13  C12 UNL     1      23.176  -0.844  54.376  1.00  0.00     0.013 A 
HETATM   14  C13 UNL     1      21.910  -1.233  54.747  1.00  0.00     0.001 A 
HETATM   15  C14 UNL     1      20.886  -0.855  53.909  1.00  0.00     0.000 A 
HETATM   16  C15 UNL     1      21.174  -0.130  52.779  1.00  0.00     0.001 A 
HETATM   17  C16 UNL     1      22.475   0.206  52.501  1.00  0.00     0.013 A 
ENDBRANCH   2  12
BRANCH   1  18
HETATM   18  N2  UNL     1      27.030  -0.777  52.818  1.00  0.00    -0.253 N 
HETATM   19  H3  UNL     1      27.534   0.034  52.381  1.00  0.00     0.191 HD
BRANCH  18  20
HETATM   20  C1  UNL     1      28.104  -1.701  53.060  1.00  0.00     0.185 C 
HETATM   21  S1  UNL     1      29.559  -1.065  53.506  1.00  0.00    -0.040 SA
BRANCH  20  22
HETATM   22  N1  UNL     1      28.361  -3.118  53.043  1.00  0.00    -0.375 N 
HETATM   23  H1  UNL     1      29.139  -3.487  52.470  1.00  0.00     0.158 HD
HETATM   24  H2  UNL     1      27.776  -3.802  53.602  1.00  0.00     0.158 HD
ENDBRANCH  20  22
ENDBRANCH  18  20
ENDBRANCH   1  18
TORSDOF 6
ENDMDL
MODEL 3
REMARK VINA RESULT:      -7.9      1.685      2.229
REMARK  6 active torsions:
REMARK  status: ('A' for Active; 'I' for Inactive)
REMARK    1  A    between atoms: N1_1  and  C1_2 
REMARK    2  A    between atoms: C1_2  and  N2_4 
REMARK    3  A    between atoms: N2_4  and  N3_5 
REMARK    4  A    between atoms: C2_6  and  C3_7 
REMARK    5  A    between atoms: C2_6  and  C11_16 
REMARK    6  A    between atoms: C4_8  and  C5_9 
ROOT
HETATM    1  N3  UNL     1      25.792   2.806  52.213  1.00  0.00    -0.176 NA
HETATM    2  C2  UNL     1      25.575   1.520  52.373  1.00  0.00     0.066 C 
ENDROOT
BRANCH   2   3
HETATM    3  C3  UNL     1      24.256   0.973  52.076  1.00  0.00     0.035 C 
HETATM    4  C4  UNL     1      23.552   0.418  53.064  1.00  0.00     0.069 C 
BRANCH   4   5
HETATM    5  C5  UNL     1      22.300  -0.233  53.360  1.00  0.00    -0.052 A 
HETATM    6  C6  UNL     1      21.757  -1.242  54.170  1.00  0.00     0.009 A 
HETATM    7  C7  UNL     1      20.452  -1.632  54.208  1.00  0.00     0.024 A 
HETATM    8  C8  UNL     1      19.647  -0.937  53.350  1.00  0.00     0.034 A 
HETATM    9 CL1  UNL     1      17.979  -1.513  53.470  1.00  0.00    -0.084 Cl
HETATM   10  C9  UNL     1      20.028   0.069  52.502  1.00  0.00     0.024 A 
HETATM   11  C10 UNL     1      21.385   0.415  52.520  1.00  0.00     0.009 A 
ENDBRANCH   4   5
ENDBRANCH   2   3
BRANCH   2  12
HETATM   12  C11 UNL     1      26.825   0.933  52.844  1.00  0.00    -0.010 A 
HETATM   13  C12 UNL     1      27.836   1.635  53.457  1.00  0.00     0.013 A 
HETATM   14  C13 UNL     1      29.041   1.174  53.931  1.00  0.00     0.001 A 
HETATM   15  C14 UNL     1      29.281  -0.173  53.779  1.00  0.00     0.000 A 
HETATM   16  C15 UNL     1      28.332  -0.963  53.179  1.00  0.00     0.001 A 
HETATM   17  C16 UNL     1      27.160  -0.400  52.739  1.00  0.00     0.013 A 
ENDBRANCH   2  12
BRANCH   1  18
HETATM   18  N2  UNL     1      24.741   3.601  51.765  1.00  0.00    -0.253 N 
HETATM   19  H3  UNL     1      24.441   3.726  50.767  1.00  0.00     0.191 HD
BRANCH  18  20
HETATM   20  C1  UNL     1      23.806   4.438  52.466  1.00  0.00     0.185 C 
HETATM   21  S1  UNL     1      22.206   4.238  52.116  1.00  0.00    -0.040 SA
BRANCH  20  22
HETATM   22  N1  UNL     1      23.792   5.482  53.457  1.00  0.00    -0.375 N 
HETATM   23  H1  UNL     1      22.888   5.836  53.812  1.00  0.00     0.158 HD
HETATM   24  H2  UNL     1      24.685   5.907  53.839  1.00  0.00     0.158 HD
ENDBRANCH  20  22
ENDBRANCH  18  20
ENDBRANCH   1  18
TORSDOF 6
ENDMDL
MODEL 4
REMARK VINA RESULT:      -7.6      4.312      7.181
REMARK  6 active torsions:
REMARK  status: ('A' for Active; 'I' for Inactive)
REMARK    1  A    between atoms: N1_1  and  C1_2 
REMARK    2  A    between atoms: C1_2  and  N2_4 
REMARK    3  A    between atoms: N2_4  and  N3_5 
REMARK    4  A    between atoms: C2_6  and  C3_7 
REMARK    5  A    between atoms: C2_6  and  C11_16 
REMARK    6  A    between atoms: C4_8  and  C5_9 
ROOT
HETATM    1  N3  UNL     1      23.688   3.327  51.522  1.00  0.00    -0.176 NA
HETATM    2  C2  UNL     1      24.719   2.798  50.901  1.00  0.00     0.066 C 
ENDROOT
BRANCH   2   3
HETATM    3  C3  UNL     1      25.225   3.429  49.688  1.00  0.00     0.035 C 
HETATM    4  C4  UNL     1      26.274   4.248  49.778  1.00  0.00     0.069 C 
BRANCH   4   5
HETATM    5  C5  UNL     1      27.148   5.090  48.998  1.00  0.00    -0.052 A 
HETATM    6  C6  UNL     1      28.457   5.138  48.494  1.00  0.00     0.009 A 
HETATM    7  C7  UNL     1      28.997   6.141  47.747  1.00  0.00     0.024 A 
HETATM    8  C8  UNL     1      28.132   7.170  47.502  1.00  0.00     0.034 A 
HETATM    9 CL1  UNL     1      28.921   8.419  46.531  1.00  0.00    -0.084 Cl
HETATM   10  C9  UNL     1      26.832   7.266  47.925  1.00  0.00     0.024 A 
HETATM   11  C10 UNL     1      26.346   6.197  48.687  1.00  0.00     0.009 A 
ENDBRANCH   4   5
ENDBRANCH   2   3
BRANCH   2  12
HETATM   12  C11 UNL     1      25.114   1.618  51.664  1.00  0.00    -0.010 A 
HETATM   13  C12 UNL     1      26.361   1.044  51.625  1.00  0.00     0.013 A 
HETATM   14  C13 UNL     1      26.824  -0.060  52.302  1.00  0.00     0.001 A 
HETATM   15  C14 UNL     1      25.925  -0.684  53.136  1.00  0.00     0.000 A 
HETATM   16  C15 UNL     1      24.650  -0.187  53.245  1.00  0.00     0.001 A 
HETATM   17  C16 UNL     1      24.290   0.923  52.523  1.00  0.00     0.013 A 
ENDBRANCH   2  12
BRANCH   1  18
HETATM   18  N2  UNL     1      23.116   4.478  50.987  1.00  0.00    -0.253 N 
HETATM   19  H3  UNL     1      22.404   4.515  50.216  1.00  0.00     0.191 HD
BRANCH  18  20
HETATM   20  C1  UNL     1      23.303   5.871  51.291  1.00  0.00     0.185 C 
HETATM   21  S1  UNL     1      22.136   6.916  50.775  1.00  0.00    -0.040 SA
BRANCH  20  22
HETATM   22  N1  UNL     1      24.245   6.736  51.950  1.00  0.00    -0.375 N 
HETATM   23  H1  UNL     1      24.026   7.742  52.054  1.00  0.00     0.158 HD
HETATM   24  H2  UNL     1      25.164   6.377  52.336  1.00  0.00     0.158 HD
ENDBRANCH  20  22
ENDBRANCH  18  20
ENDBRANCH   1  18
TORSDOF 6
ENDMDL
MODEL 5
REMARK VINA RESULT:      -7.6      3.284      6.527
REMARK  6 active torsions:
REMARK  status: ('A' for Active; 'I' for Inactive)
REMARK    1  A    between atoms: N1_1  and  C1_2 
REMARK    2  A    between atoms: C1_2  and  N2_4 
REMARK    3  A    between atoms: N2_4  and  N3_5 
REMARK    4  A    between atoms: C2_6  and  C3_7 
REMARK    5  A    between atoms: C2_6  and  C11_16 
REMARK    6  A    between atoms: C4_8  and  C5_9 
ROOT
HETATM    1  N3  UNL     1      21.993   2.887  51.794  1.00  0.00    -0.176 NA
HETATM    2  C2  UNL     1      22.522   1.695  51.958  1.00  0.00     0.066 C 
ENDROOT
BRANCH   2   3
HETATM    3  C3  UNL     1      23.936   1.493  51.669  1.00  0.00     0.035 C 
HETATM    4  C4  UNL     1      24.756   1.161  52.668  1.00  0.00     0.069 C 
BRANCH   4   5
HETATM    5  C5  UNL     1      26.132   0.856  52.975  1.00  0.00    -0.052 A 
HETATM    6  C6  UNL     1      27.324   1.474  53.384  1.00  0.00     0.009 A 
HETATM    7  C7  UNL     1      28.521   0.858  53.594  1.00  0.00     0.024 A 
HETATM    8  C8  UNL     1      28.493  -0.488  53.366  1.00  0.00     0.034 A 
HETATM    9 CL1  UNL     1      30.086  -1.196  53.664  1.00  0.00    -0.084 Cl
HETATM   10  C9  UNL     1      27.412  -1.229  52.967  1.00  0.00     0.024 A 
HETATM   11  C10 UNL     1      26.216  -0.528  52.771  1.00  0.00     0.009 A 
ENDBRANCH   4   5
ENDBRANCH   2   3
BRANCH   2  12
HETATM   12  C11 UNL     1      21.454   0.818  52.429  1.00  0.00    -0.010 A 
HETATM   13  C12 UNL     1      21.585  -0.095  53.447  1.00  0.00     0.013 A 
HETATM   14  C13 UNL     1      20.644  -0.959  53.957  1.00  0.00     0.001 A 
HETATM   15  C14 UNL     1      19.396  -0.912  53.377  1.00  0.00     0.000 A 
HETATM   16  C15 UNL     1      19.163  -0.031  52.350  1.00  0.00     0.001 A 
HETATM   17  C16 UNL     1      20.175   0.788  51.916  1.00  0.00     0.013 A 
ENDBRANCH   2  12
BRANCH   1  18
HETATM   18  N2  UNL     1      22.815   3.916  51.345  1.00  0.00    -0.253 N 
HETATM   19  H3  UNL     1      23.109   4.085  50.351  1.00  0.00     0.191 HD
BRANCH  18  20
HETATM   20  C1  UNL     1      23.473   4.989  52.039  1.00  0.00     0.185 C 
HETATM   21  S1  UNL     1      23.897   6.313  51.150  1.00  0.00    -0.040 SA
BRANCH  20  22
HETATM   22  N1  UNL     1      23.927   5.329  53.362  1.00  0.00    -0.375 N 
HETATM   23  H1  UNL     1      23.369   5.036  54.182  1.00  0.00     0.158 HD
HETATM   24  H2  UNL     1      24.819   5.876  53.527  1.00  0.00     0.158 HD
ENDBRANCH  20  22
ENDBRANCH  18  20
ENDBRANCH   1  18
TORSDOF 6
ENDMDL
MODEL 6
REMARK VINA RESULT:      -7.5      4.166      7.388
REMARK  6 active torsions:
REMARK  status: ('A' for Active; 'I' for Inactive)
REMARK    1  A    between atoms: N1_1  and  C1_2 
REMARK    2  A    between atoms: C1_2  and  N2_4 
REMARK    3  A    between atoms: N2_4  and  N3_5 
REMARK    4  A    between atoms: C2_6  and  C3_7 
REMARK    5  A    between atoms: C2_6  and  C11_16 
REMARK    6  A    between atoms: C4_8  and  C5_9 
ROOT
HETATM    1  N3  UNL     1      25.387   2.053  53.270  1.00  0.00    -0.176 NA
HETATM    2  C2  UNL     1      25.172   2.028  51.973  1.00  0.00     0.066 C 
ENDROOT
BRANCH   2   3
HETATM    3  C3  UNL     1      26.185   2.559  51.069  1.00  0.00     0.035 C 
HETATM    4  C4  UNL     1      25.971   3.738  50.483  1.00  0.00     0.069 C 
BRANCH   4   5
HETATM    5  C5  UNL     1      26.552   4.694  49.572  1.00  0.00    -0.052 A 
HETATM    6  C6  UNL     1      27.698   4.901  48.789  1.00  0.00     0.009 A 
HETATM    7  C7  UNL     1      27.948   5.979  47.995  1.00  0.00     0.024 A 
HETATM    8  C8  UNL     1      26.951   6.912  48.006  1.00  0.00     0.034 A 
HETATM    9 CL1  UNL     1      27.365   8.269  46.950  1.00  0.00    -0.084 Cl
HETATM   10  C9  UNL     1      25.780   6.851  48.715  1.00  0.00     0.024 A 
HETATM   11  C10 UNL     1      25.593   5.714  49.509  1.00  0.00     0.009 A 
ENDBRANCH   4   5
ENDBRANCH   2   3
BRANCH   2  12
HETATM   12  C11 UNL     1      23.860   1.421  51.772  1.00  0.00    -0.010 A 
HETATM   13  C12 UNL     1      23.271   0.529  52.635  1.00  0.00     0.013 A 
HETATM   14  C13 UNL     1      22.049  -0.092  52.532  1.00  0.00     0.001 A 
HETATM   15  C14 UNL     1      21.303   0.213  51.416  1.00  0.00     0.000 A 
HETATM   16  C15 UNL     1      21.803   1.096  50.491  1.00  0.00     0.001 A 
HETATM   17  C16 UNL     1      23.039   1.660  50.692  1.00  0.00     0.013 A 
ENDBRANCH   2  12
BRANCH   1  18
HETATM   18  N2  UNL     1      26.585   2.592  53.728  1.00  0.00    -0.253 N 
HETATM   19  H3  UNL     1      26.760   3.599  53.968  1.00  0.00     0.191 HD
BRANCH  18  20
HETATM   20  C1  UNL     1      27.865   1.993  53.998  1.00  0.00     0.185 C 
HETATM   21  S1  UNL     1      27.888   0.372  54.302  1.00  0.00    -0.040 SA
BRANCH  20  22
HETATM   22  N1  UNL     1      29.252   2.362  54.102  1.00  0.00    -0.375 N 
HETATM   23  H1  UNL     1      29.952   1.645  54.359  1.00  0.00     0.158 HD
HETATM   24  H2  UNL     1      29.585   3.352  53.923  1.00  0.00     0.158 HD
ENDBRANCH  20  22
ENDBRANCH  18  20
ENDBRANCH   1  18
TORSDOF 6
ENDMDL
MODEL 7
REMARK VINA RESULT:      -7.3      3.253      6.088
REMARK  6 active torsions:
REMARK  status: ('A' for Active; 'I' for Inactive)
REMARK    1  A    between atoms: N1_1  and  C1_2 
REMARK    2  A    between atoms: C1_2  and  N2_4 
REMARK    3  A    between atoms: N2_4  and  N3_5 
REMARK    4  A    between atoms: C2_6  and  C3_7 
REMARK    5  A    between atoms: C2_6  and  C11_16 
REMARK    6  A    between atoms: C4_8  and  C5_9 
ROOT
HETATM    1  N3  UNL     1      25.050   6.152  49.147  1.00  0.00    -0.176 NA
HETATM    2  C2  UNL     1      25.928   5.178  49.063  1.00  0.00     0.066 C 
ENDROOT
BRANCH   2   3
HETATM    3  C3  UNL     1      25.545   3.832  49.473  1.00  0.00     0.035 C 
HETATM    4  C4  UNL     1      26.029   3.346  50.618  1.00  0.00     0.069 C 
BRANCH   4   5
HETATM    5  C5  UNL     1      26.013   2.186  51.474  1.00  0.00    -0.052 A 
HETATM    6  C6  UNL     1      26.734   1.011  51.737  1.00  0.00     0.009 A 
HETATM    7  C7  UNL     1      26.428   0.068  52.672  1.00  0.00     0.024 A 
HETATM    8  C8  UNL     1      25.298   0.351  53.386  1.00  0.00     0.034 A 
HETATM    9 CL1  UNL     1      24.982  -0.924  54.569  1.00  0.00    -0.084 Cl
HETATM   10  C9  UNL     1      24.493   1.451  53.245  1.00  0.00     0.024 A 
HETATM   11  C10 UNL     1      24.872   2.376  52.265  1.00  0.00     0.009 A 
ENDBRANCH   4   5
ENDBRANCH   2   3
BRANCH   2  12
HETATM   12  C11 UNL     1      27.157   5.759  48.532  1.00  0.00    -0.010 A 
HETATM   13  C12 UNL     1      27.264   7.029  48.020  1.00  0.00     0.013 A 
HETATM   14  C13 UNL     1      28.370   7.659  47.501  1.00  0.00     0.001 A 
HETATM   15  C14 UNL     1      29.537   6.929  47.488  1.00  0.00     0.000 A 
HETATM   16  C15 UNL     1      29.535   5.647  47.978  1.00  0.00     0.001 A 
HETATM   17  C16 UNL     1      28.372   5.112  48.474  1.00  0.00     0.013 A 
ENDBRANCH   2  12
BRANCH   1  18
HETATM   18  N2  UNL     1      23.780   5.855  49.632  1.00  0.00    -0.253 N 
HETATM   19  H3  UNL     1      22.951   5.558  49.059  1.00  0.00     0.191 HD
BRANCH  18  20
HETATM   20  C1  UNL     1      23.237   5.859  50.963  1.00  0.00     0.185 C 
HETATM   21  S1  UNL     1      21.599   5.990  51.108  1.00  0.00    -0.040 SA
BRANCH  20  22
HETATM   22  N1  UNL     1      23.678   5.780  52.331  1.00  0.00    -0.375 N 
HETATM   23  H1  UNL     1      22.990   5.576  53.077  1.00  0.00     0.158 HD
HETATM   24  H2  UNL     1      24.691   5.926  52.605  1.00  0.00     0.158 HD
ENDBRANCH  20  22
ENDBRANCH  18  20
ENDBRANCH   1  18
TORSDOF 6
ENDMDL
MODEL 8
REMARK VINA RESULT:      -7.2      3.650      6.418
REMARK  6 active torsions:
REMARK  status: ('A' for Active; 'I' for Inactive)
REMARK    1  A    between atoms: N1_1  and  C1_2 
REMARK    2  A    between atoms: C1_2  and  N2_4 
REMARK    3  A    between atoms: N2_4  and  N3_5 
REMARK    4  A    between atoms: C2_6  and  C3_7 
REMARK    5  A    between atoms: C2_6  and  C11_16 
REMARK    6  A    between atoms: C4_8  and  C5_9 
ROOT
HETATM    1  N3  UNL     1      25.914  -0.225  53.459  1.00  0.00    -0.176 NA
HETATM    2  C2  UNL     1      24.942   0.345  52.781  1.00  0.00     0.066 C 
ENDROOT
BRANCH   2   3
HETATM    3  C3  UNL     1      25.269   1.284  51.714  1.00  0.00     0.035 C 
HETATM    4  C4  UNL     1      24.821   2.538  51.801  1.00  0.00     0.069 C 
BRANCH   4   5
HETATM    5  C5  UNL     1      24.817   3.809  51.119  1.00  0.00    -0.052 A 
HETATM    6  C6  UNL     1      25.450   4.487  50.066  1.00  0.00     0.009 A 
HETATM    7  C7  UNL     1      25.193   5.760  49.656  1.00  0.00     0.024 A 
HETATM    8  C8  UNL     1      24.218   6.383  50.381  1.00  0.00     0.034 A 
HETATM    9 CL1  UNL     1      23.957   8.025  49.777  1.00  0.00    -0.084 Cl
HETATM   10  C9  UNL     1      23.512   5.855  51.430  1.00  0.00     0.024 A 
HETATM   11  C10 UNL     1      23.831   4.542  51.794  1.00  0.00     0.009 A 
ENDBRANCH   4   5
ENDBRANCH   2   3
BRANCH   2  12
HETATM   12  C11 UNL     1      23.688  -0.162  53.328  1.00  0.00    -0.010 A 
HETATM   13  C12 UNL     1      23.572  -0.848  54.513  1.00  0.00     0.013 A 
HETATM   14  C13 UNL     1      22.443  -1.361  55.106  1.00  0.00     0.001 A 
HETATM   15  C14 UNL     1      21.259  -1.168  54.430  1.00  0.00     0.000 A 
HETATM   16  C15 UNL     1      21.268  -0.494  53.235  1.00  0.00     0.001 A 
HETATM   17  C16 UNL     1      22.454  -0.021  52.730  1.00  0.00     0.013 A 
ENDBRANCH   2  12
BRANCH   1  18
HETATM   18  N2  UNL     1      27.226   0.097  53.126  1.00  0.00    -0.253 N 
HETATM   19  H3  UNL     1      27.599   0.253  52.158  1.00  0.00     0.191 HD
BRANCH  18  20
HETATM   20  C1  UNL     1      28.397   0.301  53.935  1.00  0.00     0.185 C 
HETATM   21  S1  UNL     1      29.686  -0.690  53.658  1.00  0.00    -0.040 SA
BRANCH  20  22
HETATM   22  N1  UNL     1      28.865   1.152  54.998  1.00  0.00    -0.375 N 
HETATM   23  H1  UNL     1      29.233   2.093  54.772  1.00  0.00     0.158 HD
HETATM   24  H2  UNL     1      28.848   0.847  56.012  1.00  0.00     0.158 HD
ENDBRANCH  20  22
ENDBRANCH  18  20
ENDBRANCH   1  18
TORSDOF 6
ENDMDL
MODEL 9
REMARK VINA RESULT:      -7.2      3.235      6.267
REMARK  6 active torsions:
REMARK  status: ('A' for Active; 'I' for Inactive)
REMARK    1  A    between atoms: N1_1  and  C1_2 
REMARK    2  A    between atoms: C1_2  and  N2_4 
REMARK    3  A    between atoms: N2_4  and  N3_5 
REMARK    4  A    between atoms: C2_6  and  C3_7 
REMARK    5  A    between atoms: C2_6  and  C11_16 
REMARK    6  A    between atoms: C4_8  and  C5_9 
ROOT
HETATM    1  N3  UNL     1      23.621   4.069  51.065  1.00  0.00    -0.176 NA
HETATM    2  C2  UNL     1      23.860   2.810  51.357  1.00  0.00     0.066 C 
ENDROOT
BRANCH   2   3
HETATM    3  C3  UNL     1      25.163   2.434  51.891  1.00  0.00     0.035 C 
HETATM    4  C4  UNL     1      25.467   1.139  51.993  1.00  0.00     0.069 C 
BRANCH   4   5
HETATM    5  C5  UNL     1      26.507   0.230  52.408  1.00  0.00    -0.052 A 
HETATM    6  C6  UNL     1      26.805  -1.141  52.461  1.00  0.00     0.009 A 
HETATM    7  C7  UNL     1      27.950  -1.700  52.944  1.00  0.00     0.024 A 
HETATM    8  C8  UNL     1      28.853  -0.786  53.408  1.00  0.00     0.034 A 
HETATM    9 CL1  UNL     1      30.300  -1.603  54.013  1.00  0.00    -0.084 Cl
HETATM   10  C9  UNL     1      28.706   0.577  53.424  1.00  0.00     0.024 A 
HETATM   11  C10 UNL     1      27.504   1.078  52.910  1.00  0.00     0.009 A 
ENDBRANCH   4   5
ENDBRANCH   2   3
BRANCH   2  12
HETATM   12  C11 UNL     1      22.647   2.063  51.040  1.00  0.00    -0.010 A 
HETATM   13  C12 UNL     1      22.244   1.728  49.770  1.00  0.00     0.013 A 
HETATM   14  C13 UNL     1      21.126   1.032  49.375  1.00  0.00     0.001 A 
HETATM   15  C14 UNL     1      20.287   0.606  50.380  1.00  0.00     0.000 A 
HETATM   16  C15 UNL     1      20.601   0.890  51.686  1.00  0.00     0.001 A 
HETATM   17  C16 UNL     1      21.745   1.594  51.971  1.00  0.00     0.013 A 
ENDBRANCH   2  12
BRANCH   1  18
HETATM   18  N2  UNL     1      24.634   4.999  51.278  1.00  0.00    -0.253 N 
HETATM   19  H3  UNL     1      25.361   4.960  52.035  1.00  0.00     0.191 HD
BRANCH  18  20
HETATM   20  C1  UNL     1      24.981   6.213  50.591  1.00  0.00     0.185 C 
HETATM   21  S1  UNL     1      24.375   6.417  49.070  1.00  0.00    -0.040 SA
BRANCH  20  22
HETATM   22  N1  UNL     1      25.746   7.414  50.799  1.00  0.00    -0.375 N 
HETATM   23  H1  UNL     1      26.323   7.791  50.027  1.00  0.00     0.158 HD
HETATM   24  H2  UNL     1      25.739   7.933  51.723  1.00  0.00     0.158 HD
ENDBRANCH  20  22
ENDBRANCH  18  20
ENDBRANCH   1  18
TORSDOF 6
ENDMDL
