MODEL 1
REMARK VINA RESULT:      -8.1      0.000      0.000
REMARK  4 active torsions:
REMARK  status: ('A' for Active; 'I' for Inactive)
REMARK    1  A    between atoms: C2_2  and  S1_3 
REMARK    2  A    between atoms: S1_3  and  C3_5 
REMARK    3  A    between atoms: C6_8  and  C7_9 
REMARK    4  A    between atoms: C9_11  and  N1_12 
ROOT
HETATM    1  C3  UNL     1      27.009   0.380  54.210  1.00  0.00     0.124 A 
HETATM    2  C4  UNL     1      26.359   0.986  53.175  1.00  0.00     0.057 A 
HETATM    3  C5  UNL     1      25.042   0.849  52.807  1.00  0.00     0.027 A 
HETATM    4  C6  UNL     1      24.552   1.520  51.719  1.00  0.00     0.081 A 
HETATM    5  N2  UNL     1      23.279   1.236  51.502  1.00  0.00    -0.240 NA
HETATM    6  C12 UNL     1      22.531   0.411  52.225  1.00  0.00     0.234 A 
HETATM    7  N3  UNL     1      23.054  -0.225  53.288  1.00  0.00    -0.240 NA
HETATM    8  C13 UNL     1      24.361  -0.025  53.626  1.00  0.00     0.088 A 
HETATM    9  C14 UNL     1      24.951  -0.670  54.686  1.00  0.00     0.150 A 
HETATM   10  N4  UNL     1      26.270  -0.475  54.984  1.00  0.00    -0.249 NA
ENDROOT
BRANCH   4  11
HETATM   11  C7  UNL     1      25.241   2.510  50.940  1.00  0.00    -0.008 A 
HETATM   12  C8  UNL     1      24.577   3.652  50.672  1.00  0.00     0.026 A 
HETATM   13  C9  UNL     1      25.335   4.626  49.877  1.00  0.00     0.264 A 
HETATM   14  C10 UNL     1      26.630   3.933  49.695  1.00  0.00     0.013 A 
HETATM   15  C11 UNL     1      26.492   2.785  50.304  1.00  0.00     0.012 A 
BRANCH  13  16
HETATM   16  N1  UNL     1      25.452   5.851  50.644  1.00  0.00     0.090 N 
HETATM   17  H7  UNL     1      24.741   5.910  51.403  1.00  0.00     0.314 HD
HETATM   18  H8  UNL     1      25.548   6.704  50.071  1.00  0.00     0.314 HD
ENDBRANCH  13  16
ENDBRANCH   4  11
BRANCH   1  19
HETATM   19  S1  UNL     1      28.719   0.639  54.589  1.00  0.00     0.074 S 
HETATM   20  O1  UNL     1      29.098   2.105  54.456  1.00  0.00    -0.251 OA
BRANCH  19  21
HETATM   21  C2  UNL     1      29.766  -0.348  53.551  1.00  0.00     0.103 C 
HETATM   22  C1  UNL     1      29.401  -1.596  53.371  1.00  0.00     0.020 C 
ENDBRANCH  19  21
ENDBRANCH   1  19
TORSDOF 4
ENDMDL
MODEL 2
REMARK VINA RESULT:      -7.8      1.824      4.483
REMARK  4 active torsions:
REMARK  status: ('A' for Active; 'I' for Inactive)
REMARK    1  A    between atoms: C2_2  and  S1_3 
REMARK    2  A    between atoms: S1_3  and  C3_5 
REMARK    3  A    between atoms: C6_8  and  C7_9 
REMARK    4  A    between atoms: C9_11  and  N1_12 
ROOT
HETATM    1  C3  UNL     1      26.951   1.344  53.171  1.00  0.00     0.124 A 
HETATM    2  C4  UNL     1      25.608   1.118  53.105  1.00  0.00     0.057 A 
HETATM    3  C5  UNL     1      24.715   1.587  52.172  1.00  0.00     0.027 A 
HETATM    4  C6  UNL     1      23.385   1.278  52.266  1.00  0.00     0.081 A 
HETATM    5  N2  UNL     1      22.681   1.848  51.302  1.00  0.00    -0.240 NA
HETATM    6  C12 UNL     1      23.165   2.626  50.341  1.00  0.00     0.234 A 
HETATM    7  N3  UNL     1      24.480   2.900  50.285  1.00  0.00    -0.240 NA
HETATM    8  C13 UNL     1      25.324   2.379  51.222  1.00  0.00     0.088 A 
HETATM    9  C14 UNL     1      26.671   2.649  51.226  1.00  0.00     0.150 A 
HETATM   10  N4  UNL     1      27.490   2.138  52.194  1.00  0.00    -0.249 NA
ENDROOT
BRANCH   4  11
HETATM   11  C7  UNL     1      22.780   0.367  53.195  1.00  0.00    -0.008 A 
HETATM   12  C8  UNL     1      21.535   0.660  53.621  1.00  0.00     0.026 A 
HETATM   13  C9  UNL     1      20.968  -0.311  54.565  1.00  0.00     0.264 A 
HETATM   14  C10 UNL     1      22.052  -1.315  54.660  1.00  0.00     0.013 A 
HETATM   15  C11 UNL     1      23.002  -0.867  53.885  1.00  0.00     0.012 A 
BRANCH  13  16
HETATM   16  N1  UNL     1      19.749  -0.848  53.992  1.00  0.00     0.090 N 
HETATM   17  H7  UNL     1      18.975  -0.897  54.688  1.00  0.00     0.314 HD
HETATM   18  H8  UNL     1      19.884  -1.705  53.431  1.00  0.00     0.314 HD
ENDBRANCH  13  16
ENDBRANCH   4  11
BRANCH   1  19
HETATM   19  S1  UNL     1      28.004   0.678  54.430  1.00  0.00     0.074 S 
HETATM   20  O1  UNL     1      29.017   1.709  54.904  1.00  0.00    -0.251 OA
BRANCH  19  21
HETATM   21  C2  UNL     1      28.849  -0.775  53.861  1.00  0.00     0.103 C 
HETATM   22  C1  UNL     1      30.096  -0.615  53.484  1.00  0.00     0.020 C 
ENDBRANCH  19  21
ENDBRANCH   1  19
TORSDOF 4
ENDMDL
MODEL 3
REMARK VINA RESULT:      -7.7      2.883      3.469
REMARK  4 active torsions:
REMARK  status: ('A' for Active; 'I' for Inactive)
REMARK    1  A    between atoms: C2_2  and  S1_3 
REMARK    2  A    between atoms: S1_3  and  C3_5 
REMARK    3  A    between atoms: C6_8  and  C7_9 
REMARK    4  A    between atoms: C9_11  and  N1_12 
ROOT
HETATM    1  C3  UNL     1      25.450  -0.390  53.865  1.00  0.00     0.124 A 
HETATM    2  C4  UNL     1      24.332  -0.099  53.140  1.00  0.00     0.057 A 
HETATM    3  C5  UNL     1      23.021  -0.351  53.467  1.00  0.00     0.027 A 
HETATM    4  C6  UNL     1      22.013  -0.008  52.607  1.00  0.00     0.081 A 
HETATM    5  N2  UNL     1      20.829  -0.362  53.078  1.00  0.00    -0.240 NA
HETATM    6  C12 UNL     1      20.601  -0.971  54.235  1.00  0.00     0.234 A 
HETATM    7  N3  UNL     1      21.622  -1.286  55.050  1.00  0.00    -0.240 NA
HETATM    8  C13 UNL     1      22.902  -0.981  54.687  1.00  0.00     0.088 A 
HETATM    9  C14 UNL     1      23.984  -1.305  55.470  1.00  0.00     0.150 A 
HETATM   10  N4  UNL     1      25.257  -1.014  55.068  1.00  0.00    -0.249 NA
ENDROOT
BRANCH   4  11
HETATM   11  C7  UNL     1      22.141   0.743  51.391  1.00  0.00    -0.008 A 
HETATM   12  C8  UNL     1      21.410   0.332  50.336  1.00  0.00     0.026 A 
HETATM   13  C9  UNL     1      21.579   1.143  49.123  1.00  0.00     0.264 A 
HETATM   14  C10 UNL     1      22.530   2.182  49.579  1.00  0.00     0.013 A 
HETATM   15  C11 UNL     1      22.786   1.887  50.825  1.00  0.00     0.012 A 
BRANCH  13  16
HETATM   16  N1  UNL     1      20.287   1.685  48.751  1.00  0.00     0.090 N 
HETATM   17  H7  UNL     1      19.834   2.200  49.536  1.00  0.00     0.314 HD
HETATM   18  H8  UNL     1      19.672   1.018  48.257  1.00  0.00     0.314 HD
ENDBRANCH  13  16
ENDBRANCH   4  11
BRANCH   1  19
HETATM   19  S1  UNL     1      27.097  -0.011  53.336  1.00  0.00     0.074 S 
HETATM   20  O1  UNL     1      28.125  -0.486  54.351  1.00  0.00    -0.251 OA
BRANCH  19  21
HETATM   21  C2  UNL     1      27.297   1.728  53.048  1.00  0.00     0.103 C 
HETATM   22  C1  UNL     1      28.384   2.280  53.537  1.00  0.00     0.020 C 
ENDBRANCH  19  21
ENDBRANCH   1  19
TORSDOF 4
ENDMDL
MODEL 4
REMARK VINA RESULT:      -7.4      1.663      2.405
REMARK  4 active torsions:
REMARK  status: ('A' for Active; 'I' for Inactive)
REMARK    1  A    between atoms: C2_2  and  S1_3 
REMARK    2  A    between atoms: S1_3  and  C3_5 
REMARK    3  A    between atoms: C6_8  and  C7_9 
REMARK    4  A    between atoms: C9_11  and  N1_12 
ROOT
HETATM    1  C3  UNL     1      26.263   1.737  52.852  1.00  0.00     0.124 A 
HETATM    2  C4  UNL     1      26.048   2.450  51.709  1.00  0.00     0.057 A 
HETATM    3  C5  UNL     1      24.906   2.505  50.948  1.00  0.00     0.027 A 
HETATM    4  C6  UNL     1      24.867   3.263  49.808  1.00  0.00     0.081 A 
HETATM    5  N2  UNL     1      23.700   3.162  49.194  1.00  0.00    -0.240 NA
HETATM    6  C12 UNL     1      22.667   2.433  49.600  1.00  0.00     0.234 A 
HETATM    7  N3  UNL     1      22.749   1.707  50.728  1.00  0.00    -0.240 NA
HETATM    8  C13 UNL     1      23.900   1.716  51.462  1.00  0.00     0.088 A 
HETATM    9  C14 UNL     1      24.045   0.971  52.607  1.00  0.00     0.150 A 
HETATM   10  N4  UNL     1      25.219   0.975  53.306  1.00  0.00    -0.249 NA
ENDROOT
BRANCH   4  11
HETATM   11  C7  UNL     1      25.882   4.164  49.343  1.00  0.00    -0.008 A 
HETATM   12  C8  UNL     1      25.546   5.465  49.236  1.00  0.00     0.026 A 
HETATM   13  C9  UNL     1      26.627   6.338  48.760  1.00  0.00     0.264 A 
HETATM   14  C10 UNL     1      27.746   5.382  48.602  1.00  0.00     0.013 A 
HETATM   15  C11 UNL     1      27.253   4.220  48.938  1.00  0.00     0.012 A 
BRANCH  13  16
HETATM   16  N1  UNL     1      26.882   7.344  49.773  1.00  0.00     0.090 N 
HETATM   17  H7  UNL     1      27.858   7.708  49.729  1.00  0.00     0.314 HD
HETATM   18  H8  UNL     1      26.555   7.089  50.718  1.00  0.00     0.314 HD
ENDBRANCH  13  16
ENDBRANCH   4  11
BRANCH   1  19
HETATM   19  S1  UNL     1      27.788   1.747  53.752  1.00  0.00     0.074 S 
HETATM   20  O1  UNL     1      28.813   2.654  53.089  1.00  0.00    -0.251 OA
BRANCH  19  21
HETATM   21  C2  UNL     1      28.452   0.110  53.914  1.00  0.00     0.103 C 
HETATM   22  C1  UNL     1      28.030  -0.780  53.046  1.00  0.00     0.020 C 
ENDBRANCH  19  21
ENDBRANCH   1  19
TORSDOF 4
ENDMDL
MODEL 5
REMARK VINA RESULT:      -7.4      2.998      5.310
REMARK  4 active torsions:
REMARK  status: ('A' for Active; 'I' for Inactive)
REMARK    1  A    between atoms: C2_2  and  S1_3 
REMARK    2  A    between atoms: S1_3  and  C3_5 
REMARK    3  A    between atoms: C6_8  and  C7_9 
REMARK    4  A    between atoms: C9_11  and  N1_12 
ROOT
HETATM    1  C3  UNL     1      22.870   2.376  51.343  1.00  0.00     0.124 A 
HETATM    2  C4  UNL     1      23.595   1.495  52.090  1.00  0.00     0.057 A 
HETATM    3  C5  UNL     1      23.138   0.614  53.041  1.00  0.00     0.027 A 
HETATM    4  C6  UNL     1      24.012  -0.192  53.718  1.00  0.00     0.081 A 
HETATM    5  N2  UNL     1      23.392  -0.942  54.614  1.00  0.00    -0.240 NA
HETATM    6  C12 UNL     1      22.086  -0.947  54.856  1.00  0.00     0.234 A 
HETATM    7  N3  UNL     1      21.264  -0.140  54.163  1.00  0.00    -0.240 NA
HETATM    8  C13 UNL     1      21.772   0.691  53.207  1.00  0.00     0.088 A 
HETATM    9  C14 UNL     1      20.979   1.555  52.490  1.00  0.00     0.150 A 
HETATM   10  N4  UNL     1      21.518   2.398  51.559  1.00  0.00    -0.249 NA
ENDROOT
BRANCH   4  11
HETATM   11  C7  UNL     1      25.416  -0.341  53.461  1.00  0.00    -0.008 A 
HETATM   12  C8  UNL     1      26.258   0.418  54.190  1.00  0.00     0.026 A 
HETATM   13  C9  UNL     1      27.681   0.217  53.886  1.00  0.00     0.264 A 
HETATM   14  C10 UNL     1      27.626  -0.835  52.847  1.00  0.00     0.013 A 
HETATM   15  C11 UNL     1      26.355  -1.080  52.674  1.00  0.00     0.012 A 
BRANCH  13  16
HETATM   16  N1  UNL     1      28.350  -0.217  55.096  1.00  0.00     0.090 N 
HETATM   17  H7  UNL     1      28.085   0.360  55.922  1.00  0.00     0.314 HD
HETATM   18  H8  UNL     1      29.364  -0.380  54.986  1.00  0.00     0.314 HD
ENDBRANCH  13  16
ENDBRANCH   4  11
BRANCH   1  19
HETATM   19  S1  UNL     1      23.576   3.466  50.140  1.00  0.00     0.074 S 
HETATM   20  O1  UNL     1      23.510   2.865  48.745  1.00  0.00    -0.251 OA
BRANCH  19  21
HETATM   21  C2  UNL     1      25.257   3.867  50.541  1.00  0.00     0.103 C 
HETATM   22  C1  UNL     1      26.187   3.199  49.898  1.00  0.00     0.020 C 
ENDBRANCH  19  21
ENDBRANCH   1  19
TORSDOF 4
ENDMDL
MODEL 6
REMARK VINA RESULT:      -7.1      2.728      5.519
REMARK  4 active torsions:
REMARK  status: ('A' for Active; 'I' for Inactive)
REMARK    1  A    between atoms: C2_2  and  S1_3 
REMARK    2  A    between atoms: S1_3  and  C3_5 
REMARK    3  A    between atoms: C6_8  and  C7_9 
REMARK    4  A    between atoms: C9_11  and  N1_12 
ROOT
HETATM    1  C3  UNL     1      26.417   2.504  51.294  1.00  0.00     0.124 A 
HETATM    2  C4  UNL     1      25.528   1.699  51.944  1.00  0.00     0.057 A 
HETATM    3  C5  UNL     1      25.713   1.005  53.115  1.00  0.00     0.027 A 
HETATM    4  C6  UNL     1      24.713   0.220  53.623  1.00  0.00     0.081 A 
HETATM    5  N2  UNL     1      25.090  -0.394  54.732  1.00  0.00    -0.240 NA
HETATM    6  C12 UNL     1      26.277  -0.288  55.316  1.00  0.00     0.234 A 
HETATM    7  N3  UNL     1      27.229   0.498  54.784  1.00  0.00    -0.240 NA
HETATM    8  C13 UNL     1      26.976   1.190  53.635  1.00  0.00     0.088 A 
HETATM    9  C14 UNL     1      27.922   1.985  53.035  1.00  0.00     0.150 A 
HETATM   10  N4  UNL     1      27.652   2.644  51.868  1.00  0.00    -0.249 NA
ENDROOT
BRANCH   4  11
HETATM   11  C7  UNL     1      23.368   0.120  53.132  1.00  0.00    -0.008 A 
HETATM   12  C8  UNL     1      22.505  -0.623  53.854  1.00  0.00     0.026 A 
HETATM   13  C9  UNL     1      21.144  -0.682  53.304  1.00  0.00     0.264 A 
HETATM   14  C10 UNL     1      21.258   0.182  52.108  1.00  0.00     0.013 A 
HETATM   15  C11 UNL     1      22.503   0.576  52.088  1.00  0.00     0.012 A 
BRANCH  13  16
HETATM   16  N1  UNL     1      20.227  -0.156  54.296  1.00  0.00     0.090 N 
HETATM   17  H7  UNL     1      20.638   0.640  54.830  1.00  0.00     0.314 HD
HETATM   18  H8  UNL     1      19.767  -0.876  54.875  1.00  0.00     0.314 HD
ENDBRANCH  13  16
ENDBRANCH   4  11
BRANCH   1  19
HETATM   19  S1  UNL     1      26.059   3.353  49.782  1.00  0.00     0.074 S 
HETATM   20  O1  UNL     1      27.310   3.993  49.199  1.00  0.00    -0.251 OA
BRANCH  19  21
HETATM   21  C2  UNL     1      24.808   4.588  50.017  1.00  0.00     0.103 C 
HETATM   22  C1  UNL     1      24.523   5.337  48.976  1.00  0.00     0.020 C 
ENDBRANCH  19  21
ENDBRANCH   1  19
TORSDOF 4
ENDMDL
MODEL 7
REMARK VINA RESULT:      -7.0      2.154      2.607
REMARK  4 active torsions:
REMARK  status: ('A' for Active; 'I' for Inactive)
REMARK    1  A    between atoms: C2_2  and  S1_3 
REMARK    2  A    between atoms: S1_3  and  C3_5 
REMARK    3  A    between atoms: C6_8  and  C7_9 
REMARK    4  A    between atoms: C9_11  and  N1_12 
ROOT
HETATM    1  C3  UNL     1      25.059   0.479  53.229  1.00  0.00     0.124 A 
HETATM    2  C4  UNL     1      24.299   1.447  52.641  1.00  0.00     0.057 A 
HETATM    3  C5  UNL     1      22.928   1.545  52.609  1.00  0.00     0.027 A 
HETATM    4  C6  UNL     1      22.322   2.580  51.950  1.00  0.00     0.081 A 
HETATM    5  N2  UNL     1      21.003   2.485  52.000  1.00  0.00    -0.240 NA
HETATM    6  C12 UNL     1      20.314   1.525  52.606  1.00  0.00     0.234 A 
HETATM    7  N3  UNL     1      20.953   0.529  53.245  1.00  0.00    -0.240 NA
HETATM    8  C13 UNL     1      22.317   0.501  53.270  1.00  0.00     0.088 A 
HETATM    9  C14 UNL     1      23.019  -0.507  53.885  1.00  0.00     0.150 A 
HETATM   10  N4  UNL     1      24.385  -0.526  53.870  1.00  0.00    -0.249 NA
ENDROOT
BRANCH   4  11
HETATM   11  C7  UNL     1      22.968   3.718  51.360  1.00  0.00    -0.008 A 
HETATM   12  C8  UNL     1      22.772   4.912  51.954  1.00  0.00     0.026 A 
HETATM   13  C9  UNL     1      23.463   6.035  51.307  1.00  0.00     0.264 A 
HETATM   14  C10 UNL     1      24.174   5.361  50.198  1.00  0.00     0.013 A 
HETATM   15  C11 UNL     1      23.847   4.101  50.298  1.00  0.00     0.012 A 
BRANCH  13  16
HETATM   16  N1  UNL     1      24.362   6.636  52.273  1.00  0.00     0.090 N 
HETATM   17  H7  UNL     1      24.851   5.922  52.854  1.00  0.00     0.314 HD
HETATM   18  H8  UNL     1      23.954   7.422  52.803  1.00  0.00     0.314 HD
ENDBRANCH  13  16
ENDBRANCH   4  11
BRANCH   1  19
HETATM   19  S1  UNL     1      26.829   0.462  53.204  1.00  0.00     0.074 S 
HETATM   20  O1  UNL     1      27.388  -0.426  54.305  1.00  0.00    -0.251 OA
BRANCH  19  21
HETATM   21  C2  UNL     1      27.492   2.099  53.360  1.00  0.00     0.103 C 
HETATM   22  C1  UNL     1      28.761   2.187  53.688  1.00  0.00     0.020 C 
ENDBRANCH  19  21
ENDBRANCH   1  19
TORSDOF 4
ENDMDL
MODEL 8
REMARK VINA RESULT:      -6.8      3.512      6.500
REMARK  4 active torsions:
REMARK  status: ('A' for Active; 'I' for Inactive)
REMARK    1  A    between atoms: C2_2  and  S1_3 
REMARK    2  A    between atoms: S1_3  and  C3_5 
REMARK    3  A    between atoms: C6_8  and  C7_9 
REMARK    4  A    between atoms: C9_11  and  N1_12 
ROOT
HETATM    1  C3  UNL     1      24.213   3.291  49.626  1.00  0.00     0.124 A 
HETATM    2  C4  UNL     1      24.196   2.463  50.710  1.00  0.00     0.057 A 
HETATM    3  C5  UNL     1      25.240   2.134  51.541  1.00  0.00     0.027 A 
HETATM    4  C6  UNL     1      25.053   1.263  52.580  1.00  0.00     0.081 A 
HETATM    5  N2  UNL     1      26.177   1.044  53.243  1.00  0.00    -0.240 NA
HETATM    6  C12 UNL     1      27.359   1.583  52.970  1.00  0.00     0.234 A 
HETATM    7  N3  UNL     1      27.496   2.437  51.941  1.00  0.00    -0.240 NA
HETATM    8  C13 UNL     1      26.415   2.752  51.169  1.00  0.00     0.088 A 
HETATM    9  C14 UNL     1      26.506   3.597  50.090  1.00  0.00     0.150 A 
HETATM   10  N4  UNL     1      25.414   3.871  49.315  1.00  0.00    -0.249 NA
ENDROOT
BRANCH   4  11
HETATM   11  C7  UNL     1      23.804   0.712  53.023  1.00  0.00    -0.008 A 
HETATM   12  C8  UNL     1      23.814  -0.567  53.448  1.00  0.00     0.026 A 
HETATM   13  C9  UNL     1      22.508  -1.072  53.893  1.00  0.00     0.264 A 
HETATM   14  C10 UNL     1      21.643   0.116  53.715  1.00  0.00     0.013 A 
HETATM   15  C11 UNL     1      22.428   1.042  53.234  1.00  0.00     0.012 A 
BRANCH  13  16
HETATM   16  N1  UNL     1      22.625  -1.483  55.279  1.00  0.00     0.090 N 
HETATM   17  H7  UNL     1      22.053  -2.329  55.488  1.00  0.00     0.314 HD
HETATM   18  H8  UNL     1      22.528  -0.713  55.961  1.00  0.00     0.314 HD
ENDBRANCH  13  16
ENDBRANCH   4  11
BRANCH   1  19
HETATM   19  S1  UNL     1      22.793   3.640  48.627  1.00  0.00     0.074 S 
HETATM   20  O1  UNL     1      21.672   4.246  49.456  1.00  0.00    -0.251 OA
BRANCH  19  21
HETATM   21  C2  UNL     1      22.210   2.181  47.804  1.00  0.00     0.103 C 
HETATM   22  C1  UNL     1      21.547   1.319  48.542  1.00  0.00     0.020 C 
ENDBRANCH  19  21
ENDBRANCH   1  19
TORSDOF 4
ENDMDL
MODEL 9
REMARK VINA RESULT:      -6.4      3.867      6.320
REMARK  4 active torsions:
REMARK  status: ('A' for Active; 'I' for Inactive)
REMARK    1  A    between atoms: C2_2  and  S1_3 
REMARK    2  A    between atoms: S1_3  and  C3_5 
REMARK    3  A    between atoms: C6_8  and  C7_9 
REMARK    4  A    between atoms: C9_11  and  N1_12 
ROOT
HETATM    1  C3  UNL     1      21.480   1.382  50.533  1.00  0.00     0.124 A 
HETATM    2  C4  UNL     1      22.402   0.911  51.420  1.00  0.00     0.057 A 
HETATM    3  C5  UNL     1      22.184   0.163  52.552  1.00  0.00     0.027 A 
HETATM    4  C6  UNL     1      23.231  -0.212  53.350  1.00  0.00     0.081 A 
HETATM    5  N2  UNL     1      22.820  -0.893  54.407  1.00  0.00    -0.240 NA
HETATM    6  C12 UNL     1      21.561  -1.199  54.695  1.00  0.00     0.234 A 
HETATM    7  N3  UNL     1      20.564  -0.813  53.880  1.00  0.00    -0.240 NA
HETATM    8  C13 UNL     1      20.845  -0.099  52.751  1.00  0.00     0.088 A 
HETATM    9  C14 UNL     1      19.862   0.344  51.899  1.00  0.00     0.150 A 
HETATM   10  N4  UNL     1      20.169   1.082  50.791  1.00  0.00    -0.249 NA
ENDROOT
BRANCH   4  11
HETATM   11  C7  UNL     1      24.627  -0.026  53.076  1.00  0.00    -0.008 A 
HETATM   12  C8  UNL     1      25.499  -0.735  53.821  1.00  0.00     0.026 A 
HETATM   13  C9  UNL     1      26.911  -0.506  53.491  1.00  0.00     0.264 A 
HETATM   14  C10 UNL     1      26.813   0.457  52.371  1.00  0.00     0.013 A 
HETATM   15  C11 UNL     1      25.533   0.666  52.212  1.00  0.00     0.012 A 
BRANCH  13  16
HETATM   16  N1  UNL     1      27.499  -1.771  53.097  1.00  0.00     0.090 N 
HETATM   17  H7  UNL     1      28.327  -1.645  52.475  1.00  0.00     0.314 HD
HETATM   18  H8  UNL     1      26.817  -2.476  52.774  1.00  0.00     0.314 HD
ENDBRANCH  13  16
ENDBRANCH   4  11
BRANCH   1  19
HETATM   19  S1  UNL     1      21.887   2.340  49.100  1.00  0.00     0.074 S 
HETATM   20  O1  UNL     1      23.366   2.693  49.074  1.00  0.00    -0.251 OA
BRANCH  19  21
HETATM   21  C2  UNL     1      20.916   3.822  49.018  1.00  0.00     0.103 C 
HETATM   22  C1  UNL     1      19.797   3.750  48.334  1.00  0.00     0.020 C 
ENDBRANCH  19  21
ENDBRANCH   1  19
TORSDOF 4
ENDMDL
