MODEL 1
REMARK VINA RESULT:      -7.2      0.000      0.000
REMARK  4 active torsions:
REMARK  status: ('A' for Active; 'I' for Inactive)
REMARK    1  A    between atoms: C2_2  and  C3_3 
REMARK    2  A    between atoms: C3_3  and  N1_5 
REMARK    3  A    between atoms: N1_5  and  C5_6 
REMARK    4  A    between atoms: C12_15  and  N3_16 
ROOT
HETATM    1  C5  UNL     1      22.259   1.525  52.119  1.00  0.00     0.021 A 
HETATM    2  C6  UNL     1      21.428   0.911  52.982  1.00  0.00     0.028 A 
HETATM    3  C7  UNL     1      22.218  -0.034  53.814  1.00  0.00     0.030 A 
HETATM    4  C8  UNL     1      23.499   0.091  53.375  1.00  0.00     0.050 A 
HETATM    5  N2  UNL     1      24.515  -0.693  53.978  1.00  0.00    -0.263 NA
HETATM    6  C9  UNL     1      25.699  -0.372  54.296  1.00  0.00     0.126 C 
HETATM    7  P1  UNL     1      26.650   1.187  54.148  1.00  0.00    -0.054 P 
HETATM    8  C10 UNL     1      28.266   0.708  53.333  1.00  0.00     0.054 C 
HETATM    9  C11 UNL     1      25.803   2.282  52.952  1.00  0.00     0.039 C 
HETATM   10  C12 UNL     1      24.653   2.075  52.332  1.00  0.00     0.046 C 
HETATM   11  C19 UNL     1      23.668   1.033  52.315  1.00  0.00     0.139 A 
ENDROOT
BRANCH  10  12
HETATM   12  N3  UNL     1      24.515   3.254  51.544  1.00  0.00    -0.288 N 
HETATM   13  N4  UNL     1      24.074   4.372  52.262  1.00  0.00    -0.309 N 
HETATM   14  C13 UNL     1      23.985   5.690  51.700  1.00  0.00     0.107 C 
HETATM   15  H18 UNL     1      23.788   4.253  53.275  1.00  0.00     0.186 HD
HETATM   16  C14 UNL     1      23.793   6.048  50.439  1.00  0.00     0.018 C 
HETATM   17  C15 UNL     1      23.625   5.130  49.310  1.00  0.00    -0.001 C 
HETATM   18  C16 UNL     1      24.087   3.890  49.225  1.00  0.00    -0.000 C 
HETATM   19  C17 UNL     1      24.871   3.054  50.150  1.00  0.00     0.126 C 
HETATM   20  C18 UNL     1      26.314   3.318  49.863  1.00  0.00     0.039 C 
ENDBRANCH  10  12
BRANCH   1  21
HETATM   21  N1  UNL     1      21.545   2.460  51.278  1.00  0.00    -0.388 N 
HETATM   22  H10 UNL     1      21.698   3.470  51.430  1.00  0.00     0.159 HD
BRANCH  21  23
HETATM   23  C3  UNL     1      20.613   2.084  50.216  1.00  0.00     0.077 C 
HETATM   24  C4  UNL     1      20.376   3.274  49.297  1.00  0.00     0.032 C 
BRANCH  23  25
HETATM   25  C2  UNL     1      21.168   0.978  49.367  1.00  0.00     0.020 C 
HETATM   26  C1  UNL     1      21.855   1.509  48.123  1.00  0.00     0.007 C 
ENDBRANCH  23  25
ENDBRANCH  21  23
ENDBRANCH   1  21
TORSDOF 4
ENDMDL
MODEL 2
REMARK VINA RESULT:      -7.1      2.498      5.151
REMARK  4 active torsions:
REMARK  status: ('A' for Active; 'I' for Inactive)
REMARK    1  A    between atoms: C2_2  and  C3_3 
REMARK    2  A    between atoms: C3_3  and  N1_5 
REMARK    3  A    between atoms: N1_5  and  C5_6 
REMARK    4  A    between atoms: C12_15  and  N3_16 
ROOT
HETATM    1  C5  UNL     1      23.164   0.810  53.201  1.00  0.00     0.021 A 
HETATM    2  C6  UNL     1      23.418  -0.427  53.665  1.00  0.00     0.028 A 
HETATM    3  C7  UNL     1      22.129  -1.146  53.836  1.00  0.00     0.030 A 
HETATM    4  C8  UNL     1      21.173  -0.260  53.448  1.00  0.00     0.050 A 
HETATM    5  N2  UNL     1      19.811  -0.650  53.495  1.00  0.00    -0.263 NA
HETATM    6  C9  UNL     1      18.877  -0.420  52.669  1.00  0.00     0.126 C 
HETATM    7  P1  UNL     1      18.817   0.486  51.077  1.00  0.00    -0.054 P 
HETATM    8  C10 UNL     1      17.366   1.660  51.227  1.00  0.00     0.054 C 
HETATM    9  C11 UNL     1      20.299   1.551  50.949  1.00  0.00     0.039 C 
HETATM   10  C12 UNL     1      21.317   1.633  51.789  1.00  0.00     0.046 C 
HETATM   11  C19 UNL     1      21.682   1.006  53.026  1.00  0.00     0.139 A 
ENDROOT
BRANCH  10  12
HETATM   12  N3  UNL     1      22.146   2.612  51.169  1.00  0.00    -0.288 N 
HETATM   13  N4  UNL     1      22.819   2.152  50.031  1.00  0.00    -0.309 N 
HETATM   14  C13 UNL     1      23.606   2.998  49.178  1.00  0.00     0.107 C 
HETATM   15  H18 UNL     1      22.751   1.126  49.772  1.00  0.00     0.186 HD
HETATM   16  C14 UNL     1      24.253   4.114  49.480  1.00  0.00     0.018 C 
HETATM   17  C15 UNL     1      24.300   4.739  50.804  1.00  0.00    -0.001 C 
HETATM   18  C16 UNL     1      23.393   4.626  51.764  1.00  0.00    -0.000 C 
HETATM   19  C17 UNL     1      22.116   3.897  51.845  1.00  0.00     0.126 C 
HETATM   20  C18 UNL     1      21.054   4.814  51.328  1.00  0.00     0.039 C 
ENDBRANCH  10  12
BRANCH   1  21
HETATM   21  N1  UNL     1      24.385   1.563  53.014  1.00  0.00    -0.388 N 
HETATM   22  H10 UNL     1      24.328   2.594  53.010  1.00  0.00     0.159 HD
BRANCH  21  23
HETATM   23  C3  UNL     1      25.710   0.971  52.829  1.00  0.00     0.077 C 
HETATM   24  C4  UNL     1      26.324   1.486  51.535  1.00  0.00     0.032 C 
BRANCH  23  25
HETATM   25  C2  UNL     1      26.641   1.355  53.941  1.00  0.00     0.020 C 
HETATM   26  C1  UNL     1      26.956   0.181  54.849  1.00  0.00     0.007 C 
ENDBRANCH  23  25
ENDBRANCH  21  23
ENDBRANCH   1  21
TORSDOF 4
ENDMDL
MODEL 3
REMARK VINA RESULT:      -7.1      1.733      2.192
REMARK  4 active torsions:
REMARK  status: ('A' for Active; 'I' for Inactive)
REMARK    1  A    between atoms: C2_2  and  C3_3 
REMARK    2  A    between atoms: C3_3  and  N1_5 
REMARK    3  A    between atoms: N1_5  and  C5_6 
REMARK    4  A    between atoms: C12_15  and  N3_16 
ROOT
HETATM    1  C5  UNL     1      21.901   0.332  52.376  1.00  0.00     0.021 A 
HETATM    2  C6  UNL     1      21.474  -0.503  53.341  1.00  0.00     0.028 A 
HETATM    3  C7  UNL     1      22.653  -1.000  54.097  1.00  0.00     0.030 A 
HETATM    4  C8  UNL     1      23.728  -0.406  53.513  1.00  0.00     0.050 A 
HETATM    5  N2  UNL     1      25.025  -0.681  54.012  1.00  0.00    -0.263 NA
HETATM    6  C9  UNL     1      26.006   0.104  54.186  1.00  0.00     0.126 C 
HETATM    7  P1  UNL     1      26.230   1.899  53.896  1.00  0.00    -0.054 P 
HETATM    8  C10 UNL     1      27.817   2.049  52.912  1.00  0.00     0.054 C 
HETATM    9  C11 UNL     1      24.904   2.487  52.781  1.00  0.00     0.039 C 
HETATM   10  C12 UNL     1      23.881   1.800  52.301  1.00  0.00     0.046 C 
HETATM   11  C19 UNL     1      23.401   0.454  52.420  1.00  0.00     0.139 A 
ENDROOT
BRANCH  10  12
HETATM   12  N3  UNL     1      23.205   2.772  51.509  1.00  0.00    -0.288 N 
HETATM   13  N4  UNL     1      22.485   3.714  52.253  1.00  0.00    -0.309 N 
HETATM   14  C13 UNL     1      21.834   4.854  51.670  1.00  0.00     0.107 C 
HETATM   15  H18 UNL     1      22.408   3.591  53.302  1.00  0.00     0.186 HD
HETATM   16  C14 UNL     1      21.350   5.003  50.446  1.00  0.00     0.018 C 
HETATM   17  C15 UNL     1      21.379   3.988  49.391  1.00  0.00    -0.001 C 
HETATM   18  C16 UNL     1      22.253   2.998  49.271  1.00  0.00    -0.000 C 
HETATM   19  C17 UNL     1      23.412   2.590  50.083  1.00  0.00     0.126 C 
HETATM   20  C18 UNL     1      24.598   3.332  49.556  1.00  0.00     0.039 C 
ENDBRANCH  10  12
BRANCH   1  21
HETATM   21  N1  UNL     1      20.794   0.849  51.601  1.00  0.00    -0.388 N 
HETATM   22  H10 UNL     1      20.972   1.132  50.624  1.00  0.00     0.159 HD
BRANCH  21  23
HETATM   23  C3  UNL     1      19.428   1.005  52.099  1.00  0.00     0.077 C 
HETATM   24  C4  UNL     1      18.922   2.404  51.777  1.00  0.00     0.032 C 
BRANCH  23  25
HETATM   25  C2  UNL     1      18.492   0.036  51.440  1.00  0.00     0.020 C 
HETATM   26  C1  UNL     1      17.822  -0.880  52.447  1.00  0.00     0.007 C 
ENDBRANCH  23  25
ENDBRANCH  21  23
ENDBRANCH   1  21
TORSDOF 4
ENDMDL
MODEL 4
REMARK VINA RESULT:      -6.9      1.786      4.061
REMARK  4 active torsions:
REMARK  status: ('A' for Active; 'I' for Inactive)
REMARK    1  A    between atoms: C2_2  and  C3_3 
REMARK    2  A    between atoms: C3_3  and  N1_5 
REMARK    3  A    between atoms: N1_5  and  C5_6 
REMARK    4  A    between atoms: C12_15  and  N3_16 
ROOT
HETATM    1  C5  UNL     1      25.612   2.713  51.616  1.00  0.00     0.021 A 
HETATM    2  C6  UNL     1      26.703   1.991  51.302  1.00  0.00     0.028 A 
HETATM    3  C7  UNL     1      26.682   0.729  52.084  1.00  0.00     0.030 A 
HETATM    4  C8  UNL     1      25.545   0.790  52.829  1.00  0.00     0.050 A 
HETATM    5  N2  UNL     1      25.231  -0.283  53.699  1.00  0.00    -0.263 NA
HETATM    6  C9  UNL     1      24.110  -0.826  53.938  1.00  0.00     0.126 C 
HETATM    7  P1  UNL     1      22.417  -0.516  53.312  1.00  0.00    -0.054 P 
HETATM    8  C10 UNL     1      21.338  -0.385  54.836  1.00  0.00     0.054 C 
HETATM    9  C11 UNL     1      22.370   1.139  52.533  1.00  0.00     0.039 C 
HETATM   10  C12 UNL     1      23.375   1.980  52.349  1.00  0.00     0.046 C 
HETATM   11  C19 UNL     1      24.780   1.980  52.634  1.00  0.00     0.139 A 
ENDROOT
BRANCH  10  12
HETATM   12  N3  UNL     1      22.737   3.080  51.707  1.00  0.00    -0.288 N 
HETATM   13  N4  UNL     1      23.026   4.323  52.283  1.00  0.00    -0.309 N 
HETATM   14  C13 UNL     1      22.596   5.575  51.726  1.00  0.00     0.107 C 
HETATM   15  H18 UNL     1      23.592   4.356  53.179  1.00  0.00     0.186 HD
HETATM   16  C14 UNL     1      21.538   5.832  50.971  1.00  0.00     0.018 C 
HETATM   17  C15 UNL     1      20.546   4.848  50.533  1.00  0.00    -0.001 C 
HETATM   18  C16 UNL     1      20.741   3.545  50.379  1.00  0.00    -0.000 C 
HETATM   19  C17 UNL     1      21.921   2.685  50.573  1.00  0.00     0.126 C 
HETATM   20  C18 UNL     1      22.669   2.671  49.279  1.00  0.00     0.039 C 
ENDBRANCH  10  12
BRANCH   1  21
HETATM   21  N1  UNL     1      25.577   3.960  50.883  1.00  0.00    -0.388 N 
HETATM   22  H10 UNL     1      25.426   4.833  51.412  1.00  0.00     0.159 HD
BRANCH  21  23
HETATM   23  C3  UNL     1      25.741   4.081  49.435  1.00  0.00     0.077 C 
HETATM   24  C4  UNL     1      24.930   5.263  48.926  1.00  0.00     0.032 C 
BRANCH  23  25
HETATM   25  C2  UNL     1      27.172   4.339  49.067  1.00  0.00     0.020 C 
HETATM   26  C1  UNL     1      27.376   5.747  48.537  1.00  0.00     0.007 C 
ENDBRANCH  23  25
ENDBRANCH  21  23
ENDBRANCH   1  21
TORSDOF 4
ENDMDL
MODEL 5
REMARK VINA RESULT:      -6.7      1.779      4.469
REMARK  4 active torsions:
REMARK  status: ('A' for Active; 'I' for Inactive)
REMARK    1  A    between atoms: C2_2  and  C3_3 
REMARK    2  A    between atoms: C3_3  and  N1_5 
REMARK    3  A    between atoms: N1_5  and  C5_6 
REMARK    4  A    between atoms: C12_15  and  N3_16 
ROOT
HETATM    1  C5  UNL     1      25.366   2.556  51.053  1.00  0.00     0.021 A 
HETATM    2  C6  UNL     1      26.590   1.999  51.026  1.00  0.00     0.028 A 
HETATM    3  C7  UNL     1      26.677   0.986  52.110  1.00  0.00     0.030 A 
HETATM    4  C8  UNL     1      25.462   1.012  52.720  1.00  0.00     0.050 A 
HETATM    5  N2  UNL     1      25.220   0.145  53.815  1.00  0.00    -0.263 NA
HETATM    6  C9  UNL     1      24.182  -0.524  54.100  1.00  0.00     0.126 C 
HETATM    7  P1  UNL     1      22.552  -0.703  53.283  1.00  0.00    -0.054 P 
HETATM    8  C10 UNL     1      21.286  -0.409  54.630  1.00  0.00     0.054 C 
HETATM    9  C11 UNL     1      22.335   0.671  52.095  1.00  0.00     0.039 C 
HETATM   10  C12 UNL     1      23.204   1.615  51.775  1.00  0.00     0.046 C 
HETATM   11  C19 UNL     1      24.543   1.952  52.160  1.00  0.00     0.139 A 
ENDROOT
BRANCH  10  12
HETATM   12  N3  UNL     1      22.481   2.384  50.818  1.00  0.00    -0.288 N 
HETATM   13  N4  UNL     1      22.380   1.780  49.559  1.00  0.00    -0.309 N 
HETATM   14  C13 UNL     1      21.591   2.315  48.484  1.00  0.00     0.107 C 
HETATM   15  H18 UNL     1      22.907   0.880  49.376  1.00  0.00     0.186 HD
HETATM   16  C14 UNL     1      21.256   3.573  48.242  1.00  0.00     0.018 C 
HETATM   17  C15 UNL     1      21.640   4.728  49.057  1.00  0.00    -0.001 C 
HETATM   18  C16 UNL     1      21.937   4.719  50.349  1.00  0.00    -0.000 C 
HETATM   19  C17 UNL     1      21.986   3.641  51.352  1.00  0.00     0.126 C 
HETATM   20  C18 UNL     1      20.619   3.535  51.947  1.00  0.00     0.039 C 
ENDBRANCH  10  12
BRANCH   1  21
HETATM   21  N1  UNL     1      25.220   3.556  50.017  1.00  0.00    -0.388 N 
HETATM   22  H10 UNL     1      24.501   3.406  49.292  1.00  0.00     0.159 HD
BRANCH  21  23
HETATM   23  C3  UNL     1      26.021   4.775  49.916  1.00  0.00     0.077 C 
HETATM   24  C4  UNL     1      27.112   4.585  48.872  1.00  0.00     0.032 C 
BRANCH  23  25
HETATM   25  C2  UNL     1      25.189   5.941  49.474  1.00  0.00     0.020 C 
HETATM   26  C1  UNL     1      24.945   6.925  50.604  1.00  0.00     0.007 C 
ENDBRANCH  23  25
ENDBRANCH  21  23
ENDBRANCH   1  21
TORSDOF 4
ENDMDL
MODEL 6
REMARK VINA RESULT:      -6.7      1.815      4.285
REMARK  4 active torsions:
REMARK  status: ('A' for Active; 'I' for Inactive)
REMARK    1  A    between atoms: C2_2  and  C3_3 
REMARK    2  A    between atoms: C3_3  and  N1_5 
REMARK    3  A    between atoms: N1_5  and  C5_6 
REMARK    4  A    between atoms: C12_15  and  N3_16 
ROOT
HETATM    1  C5  UNL     1      24.331   3.945  50.143  1.00  0.00     0.021 A 
HETATM    2  C6  UNL     1      25.310   4.197  49.254  1.00  0.00     0.028 A 
HETATM    3  C7  UNL     1      26.582   3.631  49.772  1.00  0.00     0.030 A 
HETATM    4  C8  UNL     1      26.260   3.064  50.966  1.00  0.00     0.050 A 
HETATM    5  N2  UNL     1      27.274   2.429  51.725  1.00  0.00    -0.263 NA
HETATM    6  C9  UNL     1      27.229   1.349  52.388  1.00  0.00     0.126 C 
HETATM    7  P1  UNL     1      25.899   0.125  52.685  1.00  0.00    -0.054 P 
HETATM    8  C10 UNL     1      25.859  -0.125  54.540  1.00  0.00     0.054 C 
HETATM    9  C11 UNL     1      24.291   0.886  52.257  1.00  0.00     0.039 C 
HETATM   10  C12 UNL     1      24.070   2.082  51.738  1.00  0.00     0.046 C 
HETATM   11  C19 UNL     1      24.882   3.188  51.322  1.00  0.00     0.139 A 
ENDROOT
BRANCH  10  12
HETATM   12  N3  UNL     1      22.650   2.110  51.632  1.00  0.00    -0.288 N 
HETATM   13  N4  UNL     1      22.046   3.162  52.332  1.00  0.00    -0.309 N 
HETATM   14  C13 UNL     1      20.642   3.457  52.263  1.00  0.00     0.107 C 
HETATM   15  H18 UNL     1      22.645   3.780  52.949  1.00  0.00     0.186 HD
HETATM   16  C14 UNL     1      19.629   2.641  52.014  1.00  0.00     0.018 C 
HETATM   17  C15 UNL     1      19.740   1.205  51.748  1.00  0.00    -0.001 C 
HETATM   18  C16 UNL     1      20.791   0.573  51.244  1.00  0.00    -0.000 C 
HETATM   19  C17 UNL     1      22.117   1.041  50.805  1.00  0.00     0.126 C 
HETATM   20  C18 UNL     1      21.995   1.412  49.362  1.00  0.00     0.039 C 
ENDBRANCH  10  12
BRANCH   1  21
HETATM   21  N1  UNL     1      23.063   4.475  49.693  1.00  0.00    -0.388 N 
HETATM   22  H10 UNL     1      22.197   4.061  50.076  1.00  0.00     0.159 HD
BRANCH  21  23
HETATM   23  C3  UNL     1      22.908   5.562  48.727  1.00  0.00     0.077 C 
HETATM   24  C4  UNL     1      22.243   5.033  47.464  1.00  0.00     0.032 C 
BRANCH  23  25
HETATM   25  C2  UNL     1      22.027   6.650  49.265  1.00  0.00     0.020 C 
HETATM   26  C1  UNL     1      21.999   6.660  50.782  1.00  0.00     0.007 C 
ENDBRANCH  23  25
ENDBRANCH  21  23
ENDBRANCH   1  21
TORSDOF 4
ENDMDL
MODEL 7
REMARK VINA RESULT:      -6.4      2.027      4.846
REMARK  4 active torsions:
REMARK  status: ('A' for Active; 'I' for Inactive)
REMARK    1  A    between atoms: C2_2  and  C3_3 
REMARK    2  A    between atoms: C3_3  and  N1_5 
REMARK    3  A    between atoms: N1_5  and  C5_6 
REMARK    4  A    between atoms: C12_15  and  N3_16 
ROOT
HETATM    1  C5  UNL     1      23.308   2.253  50.172  1.00  0.00     0.021 A 
HETATM    2  C6  UNL     1      22.433   3.024  49.502  1.00  0.00     0.028 A 
HETATM    3  C7  UNL     1      21.060   2.509  49.743  1.00  0.00     0.030 A 
HETATM    4  C8  UNL     1      21.222   1.437  50.565  1.00  0.00     0.050 A 
HETATM    5  N2  UNL     1      20.079   0.712  50.987  1.00  0.00    -0.263 NA
HETATM    6  C9  UNL     1      19.810   0.220  52.124  1.00  0.00     0.126 C 
HETATM    7  P1  UNL     1      20.714   0.200  53.717  1.00  0.00    -0.054 P 
HETATM    8  C10 UNL     1      20.717  -1.591  54.265  1.00  0.00     0.054 C 
HETATM    9  C11 UNL     1      22.467   0.621  53.406  1.00  0.00     0.039 C 
HETATM   10  C12 UNL     1      23.028   0.973  52.262  1.00  0.00     0.046 C 
HETATM   11  C19 UNL     1      22.580   1.163  50.913  1.00  0.00     0.139 A 
ENDROOT
BRANCH  10  12
HETATM   12  N3  UNL     1      24.388   1.172  52.637  1.00  0.00    -0.288 N 
HETATM   13  N4  UNL     1      24.624   2.377  53.309  1.00  0.00    -0.309 N 
HETATM   14  C13 UNL     1      25.891   2.726  53.889  1.00  0.00     0.107 C 
HETATM   15  H18 UNL     1      23.835   3.077  53.403  1.00  0.00     0.186 HD
HETATM   16  C14 UNL     1      27.106   2.337  53.534  1.00  0.00     0.018 C 
HETATM   17  C15 UNL     1      27.419   1.430  52.427  1.00  0.00    -0.001 C 
HETATM   18  C16 UNL     1      26.624   0.499  51.919  1.00  0.00    -0.000 C 
HETATM   19  C17 UNL     1      25.254   0.071  52.251  1.00  0.00     0.126 C 
HETATM   20  C18 UNL     1      25.368  -0.989  53.298  1.00  0.00     0.039 C 
ENDBRANCH  10  12
BRANCH   1  21
HETATM   21  N1  UNL     1      24.667   2.707  49.975  1.00  0.00    -0.388 N 
HETATM   22  H10 UNL     1      25.433   2.025  50.101  1.00  0.00     0.159 HD
BRANCH  21  23
HETATM   23  C3  UNL     1      25.046   4.070  49.608  1.00  0.00     0.077 C 
HETATM   24  C4  UNL     1      24.732   5.016  50.758  1.00  0.00     0.032 C 
BRANCH  23  25
HETATM   25  C2  UNL     1      26.519   4.176  49.343  1.00  0.00     0.020 C 
HETATM   26  C1  UNL     1      26.887   5.503  48.706  1.00  0.00     0.007 C 
ENDBRANCH  23  25
ENDBRANCH  21  23
ENDBRANCH   1  21
TORSDOF 4
ENDMDL
MODEL 8
REMARK VINA RESULT:      -6.2      2.584      6.292
REMARK  4 active torsions:
REMARK  status: ('A' for Active; 'I' for Inactive)
REMARK    1  A    between atoms: C2_2  and  C3_3 
REMARK    2  A    between atoms: C3_3  and  N1_5 
REMARK    3  A    between atoms: N1_5  and  C5_6 
REMARK    4  A    between atoms: C12_15  and  N3_16 
ROOT
HETATM    1  C5  UNL     1      24.619   3.187  50.183  1.00  0.00     0.021 A 
HETATM    2  C6  UNL     1      25.798   3.799  50.394  1.00  0.00     0.028 A 
HETATM    3  C7  UNL     1      25.812   5.081  49.644  1.00  0.00     0.030 A 
HETATM    4  C8  UNL     1      24.603   5.143  49.023  1.00  0.00     0.050 A 
HETATM    5  N2  UNL     1      24.299   6.265  48.213  1.00  0.00    -0.263 NA
HETATM    6  C9  UNL     1      23.215   6.913  48.105  1.00  0.00     0.126 C 
HETATM    7  P1  UNL     1      21.574   6.737  48.902  1.00  0.00    -0.054 P 
HETATM    8  C10 UNL     1      20.336   6.747  47.498  1.00  0.00     0.054 C 
HETATM    9  C11 UNL     1      21.457   5.070  49.647  1.00  0.00     0.039 C 
HETATM   10  C12 UNL     1      22.394   4.138  49.707  1.00  0.00     0.046 C 
HETATM   11  C19 UNL     1      23.756   4.021  49.273  1.00  0.00     0.139 A 
ENDROOT
BRANCH  10  12
HETATM   12  N3  UNL     1      21.729   3.080  50.390  1.00  0.00    -0.288 N 
HETATM   13  N4  UNL     1      21.514   3.326  51.752  1.00  0.00    -0.309 N 
HETATM   14  C13 UNL     1      20.752   2.456  52.604  1.00  0.00     0.107 C 
HETATM   15  H18 UNL     1      21.929   4.197  52.189  1.00  0.00     0.186 HD
HETATM   16  C14 UNL     1      20.554   1.151  52.499  1.00  0.00     0.018 C 
HETATM   17  C15 UNL     1      21.096   0.289  51.446  1.00  0.00    -0.001 C 
HETATM   18  C16 UNL     1      21.437   0.661  50.219  1.00  0.00    -0.000 C 
HETATM   19  C17 UNL     1      21.399   1.960  49.526  1.00  0.00     0.126 C 
HETATM   20  C18 UNL     1      20.052   2.078  48.890  1.00  0.00     0.039 C 
ENDBRANCH  10  12
BRANCH   1  21
HETATM   21  N1  UNL     1      24.546   1.927  50.890  1.00  0.00    -0.388 N 
HETATM   22  H10 UNL     1      23.953   1.179  50.495  1.00  0.00     0.159 HD
BRANCH  21  23
HETATM   23  C3  UNL     1      25.255   1.626  52.133  1.00  0.00     0.077 C 
HETATM   24  C4  UNL     1      24.286   1.025  53.141  1.00  0.00     0.032 C 
BRANCH  23  25
HETATM   25  C2  UNL     1      26.342   0.616  51.913  1.00  0.00     0.020 C 
HETATM   26  C1  UNL     1      26.121  -0.642  52.732  1.00  0.00     0.007 C 
ENDBRANCH  23  25
ENDBRANCH  21  23
ENDBRANCH   1  21
TORSDOF 4
ENDMDL
MODEL 9
REMARK VINA RESULT:      -6.1      7.750      9.916
REMARK  4 active torsions:
REMARK  status: ('A' for Active; 'I' for Inactive)
REMARK    1  A    between atoms: C2_2  and  C3_3 
REMARK    2  A    between atoms: C3_3  and  N1_5 
REMARK    3  A    between atoms: N1_5  and  C5_6 
REMARK    4  A    between atoms: C12_15  and  N3_16 
ROOT
HETATM    1  C5  UNL     1      28.638   7.620  47.638  1.00  0.00     0.021 A 
HETATM    2  C6  UNL     1      27.840   6.666  48.151  1.00  0.00     0.028 A 
HETATM    3  C7  UNL     1      28.631   5.418  48.311  1.00  0.00     0.030 A 
HETATM    4  C8  UNL     1      29.879   5.729  47.871  1.00  0.00     0.050 A 
HETATM    5  N2  UNL     1      30.887   4.733  47.893  1.00  0.00    -0.263 NA
HETATM    6  C9  UNL     1      32.111   4.830  48.210  1.00  0.00     0.126 C 
HETATM    7  P1  UNL     1      33.143   6.234  48.774  1.00  0.00    -0.054 P 
HETATM    8  C10 UNL     1      34.658   6.211  47.674  1.00  0.00     0.054 C 
HETATM    9  C11 UNL     1      32.276   7.798  48.383  1.00  0.00     0.039 C 
HETATM   10  C12 UNL     1      31.071   7.951  47.860  1.00  0.00     0.046 C 
HETATM   11  C19 UNL     1      30.024   7.076  47.419  1.00  0.00     0.139 A 
ENDROOT
BRANCH  10  12
HETATM   12  N3  UNL     1      30.946   9.368  47.791  1.00  0.00    -0.288 N 
HETATM   13  N4  UNL     1      30.691   9.979  49.025  1.00  0.00    -0.309 N 
HETATM   14  C13 UNL     1      30.653  11.403  49.212  1.00  0.00     0.107 C 
HETATM   15  H18 UNL     1      30.514   9.371  49.874  1.00  0.00     0.186 HD
HETATM   16  C14 UNL     1      30.350  12.351  48.338  1.00  0.00     0.018 C 
HETATM   17  C15 UNL     1      29.972  12.130  46.940  1.00  0.00    -0.001 C 
HETATM   18  C16 UNL     1      30.312  11.094  46.184  1.00  0.00    -0.000 C 
HETATM   19  C17 UNL     1      31.121   9.892  46.448  1.00  0.00     0.126 C 
HETATM   20  C18 UNL     1      32.539  10.240  46.127  1.00  0.00     0.039 C 
ENDBRANCH  10  12
BRANCH   1  21
HETATM   21  N1  UNL     1      27.921   8.864  47.457  1.00  0.00    -0.388 N 
HETATM   22  H10 UNL     1      28.063   9.614  48.152  1.00  0.00     0.159 HD
BRANCH  21  23
HETATM   23  C3  UNL     1      27.001   9.144  46.356  1.00  0.00     0.077 C 
HETATM   24  C4  UNL     1      26.625  10.619  46.366  1.00  0.00     0.032 C 
BRANCH  23  25
HETATM   25  C2  UNL     1      27.636   8.862  45.027  1.00  0.00     0.020 C 
HETATM   26  C1  UNL     1      26.607   8.505  43.971  1.00  0.00     0.007 C 
ENDBRANCH  23  25
ENDBRANCH  21  23
ENDBRANCH   1  21
TORSDOF 4
ENDMDL
