MODEL 1
REMARK VINA RESULT:      -8.5      0.000      0.000
REMARK  4 active torsions:
REMARK  status: ('A' for Active; 'I' for Inactive)
REMARK    1  A    between atoms: C7_7  and  N1_8 
REMARK    2  A    between atoms: N1_8  and  C8_9 
REMARK    3  A    between atoms: C10_11  and  C11_12 
REMARK    4  A    between atoms: C11_12  and  C12_13 
ROOT
HETATM    1  C1  UNL     1      19.320  -0.500  53.081  1.00  0.00     0.018 C 
HETATM    2  C2  UNL     1      20.457  -0.541  53.442  1.00  0.00    -0.078 C 
HETATM    3  C3  UNL     1      21.818  -0.604  53.855  1.00  0.00     0.019 A 
HETATM    4  C4  UNL     1      22.165  -1.302  54.987  1.00  0.00     0.021 A 
HETATM    5  C5  UNL     1      23.482  -1.361  55.383  1.00  0.00     0.004 A 
HETATM    6  C6  UNL     1      24.430  -0.709  54.621  1.00  0.00     0.029 A 
HETATM    7  C7  UNL     1      24.159   0.008  53.476  1.00  0.00     0.031 A 
HETATM    8  C20 UNL     1      22.822   0.025  53.142  1.00  0.00     0.049 A 
ENDROOT
BRANCH   7   9
HETATM    9  N1  UNL     1      25.153   0.672  52.708  1.00  0.00    -0.355 N 
HETATM   10  H5  UNL     1      25.540   0.129  51.887  1.00  0.00     0.163 HD
BRANCH   9  11
HETATM   11  C8  UNL     1      25.622   1.988  52.995  1.00  0.00     0.170 C 
HETATM   12  C9  UNL     1      24.554   2.990  53.243  1.00  0.00     0.036 C 
HETATM   13  C10 UNL     1      23.987   3.404  52.106  1.00  0.00    -0.070 C 
HETATM   14  C16 UNL     1      24.488   2.831  50.833  1.00  0.00     0.063 C 
HETATM   15  C17 UNL     1      25.982   2.865  50.774  1.00  0.00     0.009 C 
HETATM   16  C18 UNL     1      26.548   2.424  51.906  1.00  0.00     0.085 C 
HETATM   17  N4  UNL     1      27.899   2.267  52.335  1.00  0.00    -0.244 NA
HETATM   18  C19 UNL     1      27.922   2.004  53.603  1.00  0.00     0.205 C 
HETATM   19  N5  UNL     1      26.579   1.969  54.112  1.00  0.00    -0.350 N 
HETATM   20  H20 UNL     1      26.600   1.936  55.171  1.00  0.00     0.163 HD
BRANCH  13  21
HETATM   21  C11 UNL     1      22.873   4.423  52.085  1.00  0.00     0.090 C 
BRANCH  21  22
HETATM   22  C12 UNL     1      21.602   3.794  51.633  1.00  0.00     0.038 C 
HETATM   23  N2  UNL     1      21.116   3.859  50.437  1.00  0.00    -0.186 NA
HETATM   24  N3  UNL     1      19.920   3.168  50.345  1.00  0.00    -0.309 N 
HETATM   25  C13 UNL     1      19.444   2.751  49.022  1.00  0.00     0.173 C 
HETATM   26  C14 UNL     1      19.410   3.028  51.696  1.00  0.00     0.150 C 
HETATM   27  C15 UNL     1      20.696   2.993  52.496  1.00  0.00     0.078 C 
ENDBRANCH  21  22
ENDBRANCH  13  21
ENDBRANCH   9  11
ENDBRANCH   7   9
TORSDOF 4
ENDMDL
MODEL 2
REMARK VINA RESULT:      -8.2      1.941      2.846
REMARK  4 active torsions:
REMARK  status: ('A' for Active; 'I' for Inactive)
REMARK    1  A    between atoms: C7_7  and  N1_8 
REMARK    2  A    between atoms: N1_8  and  C8_9 
REMARK    3  A    between atoms: C10_11  and  C11_12 
REMARK    4  A    between atoms: C11_12  and  C12_13 
ROOT
HETATM    1  C1  UNL     1      19.283  -0.478  53.050  1.00  0.00     0.018 C 
HETATM    2  C2  UNL     1      20.426  -0.517  53.394  1.00  0.00    -0.078 C 
HETATM    3  C3  UNL     1      21.794  -0.577  53.785  1.00  0.00     0.019 A 
HETATM    4  C4  UNL     1      22.158  -1.265  54.918  1.00  0.00     0.021 A 
HETATM    5  C5  UNL     1      23.481  -1.322  55.294  1.00  0.00     0.004 A 
HETATM    6  C6  UNL     1      24.417  -0.678  54.511  1.00  0.00     0.029 A 
HETATM    7  C7  UNL     1      24.129   0.029  53.364  1.00  0.00     0.031 A 
HETATM    8  C20 UNL     1      22.787   0.044  53.051  1.00  0.00     0.049 A 
ENDROOT
BRANCH   7   9
HETATM    9  N1  UNL     1      25.111   0.685  52.574  1.00  0.00    -0.355 N 
HETATM   10  H5  UNL     1      25.511   0.121  51.775  1.00  0.00     0.163 HD
BRANCH   9  11
HETATM   11  C8  UNL     1      25.553   2.020  52.816  1.00  0.00     0.170 C 
HETATM   12  C9  UNL     1      24.467   3.029  52.902  1.00  0.00     0.036 C 
HETATM   13  C10 UNL     1      24.003   3.365  51.695  1.00  0.00    -0.070 C 
HETATM   14  C16 UNL     1      24.615   2.713  50.511  1.00  0.00     0.063 C 
HETATM   15  C17 UNL     1      26.108   2.752  50.582  1.00  0.00     0.009 C 
HETATM   16  C18 UNL     1      26.571   2.389  51.786  1.00  0.00     0.085 C 
HETATM   17  N4  UNL     1      27.879   2.267  52.341  1.00  0.00    -0.244 NA
HETATM   18  C19 UNL     1      27.790   2.088  53.621  1.00  0.00     0.205 C 
HETATM   19  N5  UNL     1      26.407   2.078  54.011  1.00  0.00    -0.350 N 
HETATM   20  H20 UNL     1      26.334   2.115  55.068  1.00  0.00     0.163 HD
BRANCH  13  21
HETATM   21  C11 UNL     1      22.895   4.374  51.509  1.00  0.00     0.090 C 
BRANCH  21  22
HETATM   22  C12 UNL     1      23.449   5.678  51.056  1.00  0.00     0.038 C 
HETATM   23  N2  UNL     1      24.706   5.963  50.945  1.00  0.00    -0.186 NA
HETATM   24  N3  UNL     1      24.887   7.260  50.498  1.00  0.00    -0.309 N 
HETATM   25  C13 UNL     1      26.173   7.627  49.896  1.00  0.00     0.173 C 
HETATM   26  C14 UNL     1      23.653   7.974  50.765  1.00  0.00     0.150 C 
HETATM   27  C15 UNL     1      22.636   6.857  50.659  1.00  0.00     0.078 C 
ENDBRANCH  21  22
ENDBRANCH  13  21
ENDBRANCH   9  11
ENDBRANCH   7   9
TORSDOF 4
ENDMDL
MODEL 3
REMARK VINA RESULT:      -7.9      2.493      7.105
REMARK  4 active torsions:
REMARK  status: ('A' for Active; 'I' for Inactive)
REMARK    1  A    between atoms: C7_7  and  N1_8 
REMARK    2  A    between atoms: N1_8  and  C8_9 
REMARK    3  A    between atoms: C10_11  and  C11_12 
REMARK    4  A    between atoms: C11_12  and  C12_13 
ROOT
HETATM    1  C1  UNL     1      24.737   8.006  47.567  1.00  0.00     0.018 C 
HETATM    2  C2  UNL     1      25.014   6.963  48.077  1.00  0.00    -0.078 C 
HETATM    3  C3  UNL     1      25.338   5.727  48.706  1.00  0.00     0.019 A 
HETATM    4  C4  UNL     1      26.644   5.305  48.764  1.00  0.00     0.021 A 
HETATM    5  C5  UNL     1      26.955   4.109  49.373  1.00  0.00     0.004 A 
HETATM    6  C6  UNL     1      25.931   3.360  49.916  1.00  0.00     0.029 A 
HETATM    7  C7  UNL     1      24.601   3.718  49.896  1.00  0.00     0.031 A 
HETATM    8  C20 UNL     1      24.366   4.923  49.271  1.00  0.00     0.049 A 
ENDROOT
BRANCH   7   9
HETATM    9  N1  UNL     1      23.564   2.928  50.461  1.00  0.00    -0.355 N 
HETATM   10  H5  UNL     1      23.096   2.244  49.805  1.00  0.00     0.163 HD
BRANCH   9  11
HETATM   11  C8  UNL     1      23.154   3.025  51.824  1.00  0.00     0.170 C 
HETATM   12  C9  UNL     1      23.872   2.119  52.757  1.00  0.00     0.036 C 
HETATM   13  C10 UNL     1      23.422   0.864  52.675  1.00  0.00    -0.070 C 
HETATM   14  C16 UNL     1      22.326   0.581  51.716  1.00  0.00     0.063 C 
HETATM   15  C17 UNL     1      21.220   1.579  51.848  1.00  0.00     0.009 C 
HETATM   16  C18 UNL     1      21.674   2.839  51.902  1.00  0.00     0.085 C 
HETATM   17  N4  UNL     1      21.037   4.109  52.024  1.00  0.00    -0.244 NA
HETATM   18  C19 UNL     1      21.929   5.019  52.249  1.00  0.00     0.205 C 
HETATM   19  N5  UNL     1      23.233   4.416  52.295  1.00  0.00    -0.350 N 
HETATM   20  H20 UNL     1      23.939   5.119  52.657  1.00  0.00     0.163 HD
BRANCH  13  21
HETATM   21  C11 UNL     1      23.988  -0.252  53.521  1.00  0.00     0.090 C 
BRANCH  21  22
HETATM   22  C12 UNL     1      25.476  -0.238  53.473  1.00  0.00     0.038 C 
HETATM   23  N2  UNL     1      26.251   0.241  54.390  1.00  0.00    -0.186 NA
HETATM   24  N3  UNL     1      27.583   0.100  54.041  1.00  0.00    -0.309 N 
HETATM   25  C13 UNL     1      28.601   0.165  55.095  1.00  0.00     0.173 C 
HETATM   26  C14 UNL     1      27.624  -0.090  52.603  1.00  0.00     0.150 C 
HETATM   27  C15 UNL     1      26.296  -0.776  52.358  1.00  0.00     0.078 C 
ENDBRANCH  21  22
ENDBRANCH  13  21
ENDBRANCH   9  11
ENDBRANCH   7   9
TORSDOF 4
ENDMDL
MODEL 4
REMARK VINA RESULT:      -7.8      2.514      5.407
REMARK  4 active torsions:
REMARK  status: ('A' for Active; 'I' for Inactive)
REMARK    1  A    between atoms: C7_7  and  N1_8 
REMARK    2  A    between atoms: N1_8  and  C8_9 
REMARK    3  A    between atoms: C10_11  and  C11_12 
REMARK    4  A    between atoms: C11_12  and  C12_13 
ROOT
HETATM    1  C1  UNL     1      27.179  -2.480  52.416  1.00  0.00     0.018 C 
HETATM    2  C2  UNL     1      26.758  -1.381  52.614  1.00  0.00    -0.078 C 
HETATM    3  C3  UNL     1      26.249  -0.068  52.827  1.00  0.00     0.019 A 
HETATM    4  C4  UNL     1      27.112   0.985  53.011  1.00  0.00     0.021 A 
HETATM    5  C5  UNL     1      26.616   2.253  53.217  1.00  0.00     0.004 A 
HETATM    6  C6  UNL     1      25.248   2.432  53.232  1.00  0.00     0.029 A 
HETATM    7  C7  UNL     1      24.322   1.427  53.054  1.00  0.00     0.031 A 
HETATM    8  C20 UNL     1      24.890   0.187  52.855  1.00  0.00     0.049 A 
ENDROOT
BRANCH   7   9
HETATM    9  N1  UNL     1      22.917   1.636  53.074  1.00  0.00    -0.355 N 
HETATM   10  H5  UNL     1      22.526   2.049  53.964  1.00  0.00     0.163 HD
BRANCH   9  11
HETATM   11  C8  UNL     1      22.059   1.321  51.979  1.00  0.00     0.170 C 
HETATM   12  C9  UNL     1      22.670   1.498  50.637  1.00  0.00     0.036 C 
HETATM   13  C10 UNL     1      22.714   2.783  50.277  1.00  0.00    -0.070 C 
HETATM   14  C16 UNL     1      22.171   3.788  51.223  1.00  0.00     0.063 C 
HETATM   15  C17 UNL     1      20.824   3.381  51.730  1.00  0.00     0.009 C 
HETATM   16  C18 UNL     1      20.790   2.099  52.116  1.00  0.00     0.085 C 
HETATM   17  N4  UNL     1      19.770   1.260  52.656  1.00  0.00    -0.244 NA
HETATM   18  C19 UNL     1      20.180   0.031  52.660  1.00  0.00     0.205 C 
HETATM   19  N5  UNL     1      21.509  -0.036  52.121  1.00  0.00    -0.350 N 
HETATM   20  H20 UNL     1      21.776  -1.048  51.954  1.00  0.00     0.163 HD
BRANCH  13  21
HETATM   21  C11 UNL     1      23.290   3.230  48.954  1.00  0.00     0.090 C 
BRANCH  21  22
HETATM   22  C12 UNL     1      24.556   3.983  49.166  1.00  0.00     0.038 C 
HETATM   23  N2  UNL     1      24.722   5.248  48.956  1.00  0.00    -0.186 NA
HETATM   24  N3  UNL     1      26.016   5.639  49.250  1.00  0.00    -0.309 N 
HETATM   25  C13 UNL     1      26.287   7.058  49.503  1.00  0.00     0.173 C 
HETATM   26  C14 UNL     1      26.833   4.440  49.229  1.00  0.00     0.150 C 
HETATM   27  C15 UNL     1      25.828   3.389  49.654  1.00  0.00     0.078 C 
ENDBRANCH  21  22
ENDBRANCH  13  21
ENDBRANCH   9  11
ENDBRANCH   7   9
TORSDOF 4
ENDMDL
MODEL 5
REMARK VINA RESULT:      -7.4      2.309      5.182
REMARK  4 active torsions:
REMARK  status: ('A' for Active; 'I' for Inactive)
REMARK    1  A    between atoms: C7_7  and  N1_8 
REMARK    2  A    between atoms: N1_8  and  C8_9 
REMARK    3  A    between atoms: C10_11  and  C11_12 
REMARK    4  A    between atoms: C11_12  and  C12_13 
ROOT
HETATM    1  C1  UNL     1      26.717   3.960  49.355  1.00  0.00     0.018 C 
HETATM    2  C2  UNL     1      26.395   3.134  50.154  1.00  0.00    -0.078 C 
HETATM    3  C3  UNL     1      26.010   2.164  51.123  1.00  0.00     0.019 A 
HETATM    4  C4  UNL     1      26.918   1.232  51.565  1.00  0.00     0.021 A 
HETATM    5  C5  UNL     1      26.543   0.296  52.503  1.00  0.00     0.004 A 
HETATM    6  C6  UNL     1      25.248   0.322  52.979  1.00  0.00     0.029 A 
HETATM    7  C7  UNL     1      24.284   1.224  52.585  1.00  0.00     0.031 A 
HETATM    8  C20 UNL     1      24.731   2.128  51.645  1.00  0.00     0.049 A 
ENDROOT
BRANCH   7   9
HETATM    9  N1  UNL     1      22.956   1.230  53.090  1.00  0.00    -0.355 N 
HETATM   10  H5  UNL     1      22.739   1.977  53.805  1.00  0.00     0.163 HD
BRANCH   9  11
HETATM   11  C8  UNL     1      21.953   0.303  52.678  1.00  0.00     0.170 C 
HETATM   12  C9  UNL     1      21.825   0.136  51.208  1.00  0.00     0.036 C 
HETATM   13  C10 UNL     1      21.162   1.152  50.649  1.00  0.00    -0.070 C 
HETATM   14  C16 UNL     1      20.678   2.238  51.537  1.00  0.00     0.063 C 
HETATM   15  C17 UNL     1      19.973   1.683  52.734  1.00  0.00     0.009 C 
HETATM   16  C18 UNL     1      20.653   0.681  53.308  1.00  0.00     0.085 C 
HETATM   17  N4  UNL     1      20.409  -0.151  54.441  1.00  0.00    -0.244 NA
HETATM   18  C19 UNL     1      21.268  -1.119  54.457  1.00  0.00     0.205 C 
HETATM   19  N5  UNL     1      22.150  -1.001  53.329  1.00  0.00    -0.350 N 
HETATM   20  H20 UNL     1      22.731  -1.882  53.237  1.00  0.00     0.163 HD
BRANCH  13  21
HETATM   21  C11 UNL     1      20.897   1.223  49.163  1.00  0.00     0.090 C 
BRANCH  21  22
HETATM   22  C12 UNL     1      21.262   2.564  48.632  1.00  0.00     0.038 C 
HETATM   23  N2  UNL     1      20.427   3.470  48.242  1.00  0.00    -0.186 NA
HETATM   24  N3  UNL     1      21.087   4.604  47.804  1.00  0.00    -0.309 N 
HETATM   25  C13 UNL     1      20.352   5.872  47.742  1.00  0.00     0.173 C 
HETATM   26  C14 UNL     1      22.448   4.206  47.494  1.00  0.00     0.150 C 
HETATM   27  C15 UNL     1      22.651   3.065  48.470  1.00  0.00     0.078 C 
ENDBRANCH  21  22
ENDBRANCH  13  21
ENDBRANCH   9  11
ENDBRANCH   7   9
TORSDOF 4
ENDMDL
MODEL 6
REMARK VINA RESULT:      -7.3      2.360      5.498
REMARK  4 active torsions:
REMARK  status: ('A' for Active; 'I' for Inactive)
REMARK    1  A    between atoms: C7_7  and  N1_8 
REMARK    2  A    between atoms: N1_8  and  C8_9 
REMARK    3  A    between atoms: C10_11  and  C11_12 
REMARK    4  A    between atoms: C11_12  and  C12_13 
ROOT
HETATM    1  C1  UNL     1      26.446   0.035  52.742  1.00  0.00     0.018 C 
HETATM    2  C2  UNL     1      25.316  -0.052  53.117  1.00  0.00    -0.078 C 
HETATM    3  C3  UNL     1      23.970  -0.134  53.574  1.00  0.00     0.019 A 
HETATM    4  C4  UNL     1      23.635  -1.010  54.578  1.00  0.00     0.021 A 
HETATM    5  C5  UNL     1      22.332  -1.088  55.018  1.00  0.00     0.004 A 
HETATM    6  C6  UNL     1      21.388  -0.271  54.430  1.00  0.00     0.029 A 
HETATM    7  C7  UNL     1      21.648   0.630  53.420  1.00  0.00     0.031 A 
HETATM    8  C20 UNL     1      22.970   0.652  53.032  1.00  0.00     0.049 A 
ENDROOT
BRANCH   7   9
HETATM    9  N1  UNL     1      20.658   1.460  52.830  1.00  0.00    -0.355 N 
HETATM   10  H5  UNL     1      20.328   2.274  53.418  1.00  0.00     0.163 HD
BRANCH   9  11
HETATM   11  C8  UNL     1      20.122   1.240  51.526  1.00  0.00     0.170 C 
HETATM   12  C9  UNL     1      21.135   1.127  50.447  1.00  0.00     0.036 C 
HETATM   13  C10 UNL     1      21.612   2.321  50.085  1.00  0.00    -0.070 C 
HETATM   14  C16 UNL     1      21.082   3.519  50.781  1.00  0.00     0.063 C 
HETATM   15  C17 UNL     1      19.587   3.493  50.841  1.00  0.00     0.009 C 
HETATM   16  C18 UNL     1      19.113   2.302  51.230  1.00  0.00     0.085 C 
HETATM   17  N4  UNL     1      17.799   1.786  51.436  1.00  0.00    -0.244 NA
HETATM   18  C19 UNL     1      17.861   0.503  51.604  1.00  0.00     0.205 C 
HETATM   19  N5  UNL     1      19.229   0.071  51.520  1.00  0.00    -0.350 N 
HETATM   20  H20 UNL     1      19.267  -0.987  51.474  1.00  0.00     0.163 HD
BRANCH  13  21
HETATM   21  C11 UNL     1      22.656   2.479  49.006  1.00  0.00     0.090 C 
BRANCH  21  22
HETATM   22  C12 UNL     1      23.829   3.236  49.523  1.00  0.00     0.038 C 
HETATM   23  N2  UNL     1      24.218   4.395  49.104  1.00  0.00    -0.186 NA
HETATM   24  N3  UNL     1      25.340   4.824  49.791  1.00  0.00    -0.309 N 
HETATM   25  C13 UNL     1      25.669   6.254  49.787  1.00  0.00     0.173 C 
HETATM   26  C14 UNL     1      25.947   3.647  50.383  1.00  0.00     0.150 C 
HETATM   27  C15 UNL     1      24.733   2.769  50.605  1.00  0.00     0.078 C 
ENDBRANCH  21  22
ENDBRANCH  13  21
ENDBRANCH   9  11
ENDBRANCH   7   9
TORSDOF 4
ENDMDL
MODEL 7
REMARK VINA RESULT:      -7.2      3.743      5.794
REMARK  4 active torsions:
REMARK  status: ('A' for Active; 'I' for Inactive)
REMARK    1  A    between atoms: C7_7  and  N1_8 
REMARK    2  A    between atoms: N1_8  and  C8_9 
REMARK    3  A    between atoms: C10_11  and  C11_12 
REMARK    4  A    between atoms: C11_12  and  C12_13 
ROOT
HETATM    1  C1  UNL     1      21.948  -1.038  54.734  1.00  0.00     0.018 C 
HETATM    2  C2  UNL     1      22.831  -0.511  54.127  1.00  0.00    -0.078 C 
HETATM    3  C3  UNL     1      23.871   0.114  53.383  1.00  0.00     0.019 A 
HETATM    4  C4  UNL     1      25.071  -0.530  53.199  1.00  0.00     0.021 A 
HETATM    5  C5  UNL     1      26.076   0.077  52.479  1.00  0.00     0.004 A 
HETATM    6  C6  UNL     1      25.845   1.333  51.956  1.00  0.00     0.029 A 
HETATM    7  C7  UNL     1      24.671   2.040  52.098  1.00  0.00     0.031 A 
HETATM    8  C20 UNL     1      23.713   1.371  52.830  1.00  0.00     0.049 A 
ENDROOT
BRANCH   7   9
HETATM    9  N1  UNL     1      24.457   3.333  51.550  1.00  0.00    -0.355 N 
HETATM   10  H5  UNL     1      24.525   4.139  52.231  1.00  0.00     0.163 HD
BRANCH   9  11
HETATM   11  C8  UNL     1      24.169   3.567  50.173  1.00  0.00     0.170 C 
HETATM   12  C9  UNL     1      25.363   3.774  49.313  1.00  0.00     0.036 C 
HETATM   13  C10 UNL     1      25.867   5.003  49.451  1.00  0.00    -0.070 C 
HETATM   14  C16 UNL     1      25.191   5.929  50.393  1.00  0.00     0.063 C 
HETATM   15  C17 UNL     1      23.711   5.938  50.175  1.00  0.00     0.009 C 
HETATM   16  C18 UNL     1      23.205   4.703  50.064  1.00  0.00     0.085 C 
HETATM   17  N4  UNL     1      21.888   4.195  49.854  1.00  0.00    -0.244 NA
HETATM   18  C19 UNL     1      21.951   2.926  49.603  1.00  0.00     0.205 C 
HETATM   19  N5  UNL     1      23.321   2.496  49.628  1.00  0.00    -0.350 N 
HETATM   20  H20 UNL     1      23.393   1.509  49.248  1.00  0.00     0.163 HD
BRANCH  13  21
HETATM   21  C11 UNL     1      27.084   5.466  48.686  1.00  0.00     0.090 C 
BRANCH  21  22
HETATM   22  C12 UNL     1      26.992   6.923  48.394  1.00  0.00     0.038 C 
HETATM   23  N2  UNL     1      27.777   7.834  48.867  1.00  0.00    -0.186 NA
HETATM   24  N3  UNL     1      27.424   9.089  48.402  1.00  0.00    -0.309 N 
HETATM   25  C13 UNL     1      28.416  10.168  48.453  1.00  0.00     0.173 C 
HETATM   26  C14 UNL     1      26.049   8.998  47.948  1.00  0.00     0.150 C 
HETATM   27  C15 UNL     1      25.977   7.550  47.508  1.00  0.00     0.078 C 
ENDBRANCH  21  22
ENDBRANCH  13  21
ENDBRANCH   9  11
ENDBRANCH   7   9
TORSDOF 4
ENDMDL
MODEL 8
REMARK VINA RESULT:      -7.1      1.359      5.549
REMARK  4 active torsions:
REMARK  status: ('A' for Active; 'I' for Inactive)
REMARK    1  A    between atoms: C7_7  and  N1_8 
REMARK    2  A    between atoms: N1_8  and  C8_9 
REMARK    3  A    between atoms: C10_11  and  C11_12 
REMARK    4  A    between atoms: C11_12  and  C12_13 
ROOT
HETATM    1  C1  UNL     1      23.388  -1.425  55.401  1.00  0.00     0.018 C 
HETATM    2  C2  UNL     1      22.593  -0.885  54.693  1.00  0.00    -0.078 C 
HETATM    3  C3  UNL     1      21.642  -0.224  53.865  1.00  0.00     0.019 A 
HETATM    4  C4  UNL     1      20.406  -0.786  53.650  1.00  0.00     0.021 A 
HETATM    5  C5  UNL     1      19.488  -0.144  52.849  1.00  0.00     0.004 A 
HETATM    6  C6  UNL     1      19.840   1.061  52.278  1.00  0.00     0.029 A 
HETATM    7  C7  UNL     1      21.057   1.686  52.447  1.00  0.00     0.031 A 
HETATM    8  C20 UNL     1      21.924   0.986  53.259  1.00  0.00     0.049 A 
ENDROOT
BRANCH   7   9
HETATM    9  N1  UNL     1      21.396   2.928  51.848  1.00  0.00    -0.355 N 
HETATM   10  H5  UNL     1      21.415   3.762  52.496  1.00  0.00     0.163 HD
BRANCH   9  11
HETATM   11  C8  UNL     1      21.701   3.076  50.462  1.00  0.00     0.170 C 
HETATM   12  C9  UNL     1      22.982   2.456  50.036  1.00  0.00     0.036 C 
HETATM   13  C10 UNL     1      24.034   3.203  50.382  1.00  0.00    -0.070 C 
HETATM   14  C16 UNL     1      23.777   4.475  51.101  1.00  0.00     0.063 C 
HETATM   15  C17 UNL     1      22.706   5.272  50.425  1.00  0.00     0.009 C 
HETATM   16  C18 UNL     1      21.641   4.525  50.103  1.00  0.00     0.085 C 
HETATM   17  N4  UNL     1      20.398   4.809  49.463  1.00  0.00    -0.244 NA
HETATM   18  C19 UNL     1      19.791   3.699  49.189  1.00  0.00     0.205 C 
HETATM   19  N5  UNL     1      20.591   2.590  49.629  1.00  0.00    -0.350 N 
HETATM   20  H20 UNL     1      20.189   1.686  49.248  1.00  0.00     0.163 HD
BRANCH  13  21
HETATM   21  C11 UNL     1      25.453   2.793  50.064  1.00  0.00     0.090 C 
BRANCH  21  22
HETATM   22  C12 UNL     1      26.123   2.251  51.277  1.00  0.00     0.038 C 
HETATM   23  N2  UNL     1      27.304   2.576  51.691  1.00  0.00    -0.186 NA
HETATM   24  N3  UNL     1      27.633   1.893  52.849  1.00  0.00    -0.309 N 
HETATM   25  C13 UNL     1      28.701   2.423  53.703  1.00  0.00     0.173 C 
HETATM   26  C14 UNL     1      26.760   0.735  52.918  1.00  0.00     0.150 C 
HETATM   27  C15 UNL     1      25.529   1.250  52.200  1.00  0.00     0.078 C 
ENDBRANCH  21  22
ENDBRANCH  13  21
ENDBRANCH   9  11
ENDBRANCH   7   9
TORSDOF 4
ENDMDL
MODEL 9
REMARK VINA RESULT:      -7.1      6.745      9.764
REMARK  4 active torsions:
REMARK  status: ('A' for Active; 'I' for Inactive)
REMARK    1  A    between atoms: C7_7  and  N1_8 
REMARK    2  A    between atoms: N1_8  and  C8_9 
REMARK    3  A    between atoms: C10_11  and  C11_12 
REMARK    4  A    between atoms: C11_12  and  C12_13 
ROOT
HETATM    1  C1  UNL     1      32.035   0.250  46.725  1.00  0.00     0.018 C 
HETATM    2  C2  UNL     1      32.373   1.393  46.799  1.00  0.00    -0.078 C 
HETATM    3  C3  UNL     1      32.769   2.759  46.865  1.00  0.00     0.019 A 
HETATM    4  C4  UNL     1      34.102   3.092  46.865  1.00  0.00     0.021 A 
HETATM    5  C5  UNL     1      34.482   4.414  46.928  1.00  0.00     0.004 A 
HETATM    6  C6  UNL     1      33.498   5.380  46.992  1.00  0.00     0.029 A 
HETATM    7  C7  UNL     1      32.144   5.124  46.996  1.00  0.00     0.031 A 
HETATM    8  C20 UNL     1      31.840   3.781  46.930  1.00  0.00     0.049 A 
ENDROOT
BRANCH   7   9
HETATM    9  N1  UNL     1      31.150   6.136  47.062  1.00  0.00    -0.355 N 
HETATM   10  H5  UNL     1      30.916   6.612  46.148  1.00  0.00     0.163 HD
BRANCH   9  11
HETATM   11  C8  UNL     1      30.487   6.511  48.268  1.00  0.00     0.170 C 
HETATM   12  C9  UNL     1      29.016   6.308  48.259  1.00  0.00     0.036 C 
HETATM   13  C10 UNL     1      28.386   7.267  47.575  1.00  0.00    -0.070 C 
HETATM   14  C16 UNL     1      29.210   8.337  46.961  1.00  0.00     0.063 C 
HETATM   15  C17 UNL     1      30.200   8.886  47.939  1.00  0.00     0.009 C 
HETATM   16  C18 UNL     1      30.850   7.921  48.604  1.00  0.00     0.085 C 
HETATM   17  N4  UNL     1      31.859   7.930  49.612  1.00  0.00    -0.244 NA
HETATM   18  C19 UNL     1      32.003   6.734  50.087  1.00  0.00     0.205 C 
HETATM   19  N5  UNL     1      31.094   5.839  49.427  1.00  0.00    -0.350 N 
HETATM   20  H20 UNL     1      31.078   4.908  49.933  1.00  0.00     0.163 HD
BRANCH  13  21
HETATM   21  C11 UNL     1      26.885   7.290  47.416  1.00  0.00     0.090 C 
BRANCH  21  22
HETATM   22  C12 UNL     1      26.221   6.871  48.680  1.00  0.00     0.038 C 
HETATM   23  N2  UNL     1      25.614   5.745  48.872  1.00  0.00    -0.186 NA
HETATM   24  N3  UNL     1      25.105   5.664  50.156  1.00  0.00    -0.309 N 
HETATM   25  C13 UNL     1      24.784   4.344  50.708  1.00  0.00     0.173 C 
HETATM   26  C14 UNL     1      25.015   7.022  50.660  1.00  0.00     0.150 C 
HETATM   27  C15 UNL     1      26.156   7.689  49.919  1.00  0.00     0.078 C 
ENDBRANCH  21  22
ENDBRANCH  13  21
ENDBRANCH   9  11
ENDBRANCH   7   9
TORSDOF 4
ENDMDL
