MODEL 1
REMARK VINA RESULT:      -8.2      0.000      0.000
REMARK  9 active torsions:
REMARK  status: ('A' for Active; 'I' for Inactive)
REMARK    1  A    between atoms: C2_2  and  C3_3 
REMARK    2  A    between atoms: C3_3  and  C4_4 
REMARK    3  A    between atoms: C4_4  and  C5_5 
REMARK    4  A    between atoms: C7_7  and  O1_8 
REMARK    5  A    between atoms: C11_13  and  C12_14 
REMARK    6  A    between atoms: C17_19  and  O3_20 
REMARK    7  A    between atoms: O3_20  and  C18_21 
REMARK    8  A    between atoms: C18_21  and  C19_22 
REMARK       I    between atoms: C19_22  and  N1_24 
REMARK    9  A    between atoms: N1_24  and  C20_25 
ROOT
HETATM    1  C5  UNL     1      26.265   2.808  50.850  1.00  0.00    -0.057 C 
HETATM    2  C6  UNL     1      27.206   2.568  51.682  1.00  0.00     0.019 C 
HETATM    3  C7  UNL     1      27.671   1.963  52.883  1.00  0.00     0.119 A 
HETATM    4  C8  UNL     1      27.331   1.207  53.931  1.00  0.00     0.073 A 
HETATM    5  C9  UNL     1      25.917   1.047  53.468  1.00  0.00    -0.040 A 
HETATM    6  O2  UNL     1      27.068   1.450  53.305  1.00  0.00     0.000 OA
HETATM    7  C10 UNL     1      24.496   0.706  53.393  1.00  0.00     0.045 C 
HETATM    8  C11 UNL     1      23.620   0.881  52.415  1.00  0.00     0.082 C 
HETATM    9  O5  UNL     1      24.292   1.491  51.297  1.00  0.00    -0.346 OA
HETATM   10  C22 UNL     1      25.134   2.575  51.685  1.00  0.00     0.209 C 
ENDROOT
BRANCH   8  11
HETATM   11  C12 UNL     1      22.439   0.448  52.790  1.00  0.00     0.031 A 
HETATM   12  C13 UNL     1      22.807  -0.616  53.649  1.00  0.00     0.017 A 
HETATM   13  C14 UNL     1      21.845  -1.474  54.302  1.00  0.00     0.001 A 
HETATM   14  C15 UNL     1      20.481  -1.234  54.065  1.00  0.00     0.003 A 
HETATM   15  C16 UNL     1      20.053  -0.221  53.242  1.00  0.00     0.038 A 
HETATM   16  C17 UNL     1      21.015   0.599  52.623  1.00  0.00     0.082 A 
BRANCH  16  17
HETATM   17  O3  UNL     1      20.885   1.715  51.727  1.00  0.00    -0.341 OA
BRANCH  17  18
HETATM   18  C18 UNL     1      20.528   2.930  52.453  1.00  0.00     0.278 C 
BRANCH  18  19
HETATM   19  C19 UNL     1      21.454   3.997  52.180  1.00  0.00     0.241 C 
HETATM   20  O4  UNL     1      21.620   3.577  50.965  1.00  0.00    -0.271 OA
HETATM   21  N1  UNL     1      22.259   5.131  52.338  1.00  0.00    -0.360 N 
HETATM   22  H20 UNL     1      21.973   5.290  53.381  1.00  0.00     0.162 HD
BRANCH  21  23
HETATM   23  C20 UNL     1      23.107   5.727  51.320  1.00  0.00     0.118 C 
HETATM   24  C21 UNL     1      22.562   6.989  50.727  1.00  0.00     0.026 C 
ENDBRANCH  21  23
ENDBRANCH  18  19
ENDBRANCH  17  18
ENDBRANCH  16  17
ENDBRANCH   8  11
BRANCH   1  25
HETATM   25  C4  UNL     1      25.687   3.373  49.636  1.00  0.00     0.036 C 
BRANCH  25  26
HETATM   26  C3  UNL     1      26.163   4.817  49.435  1.00  0.00     0.004 C 
BRANCH  26  27
HETATM   27  C2  UNL     1      27.521   4.738  48.703  1.00  0.00    -0.004 C 
HETATM   28  C1  UNL     1      27.890   6.132  48.290  1.00  0.00     0.005 C 
ENDBRANCH  26  27
ENDBRANCH  25  26
ENDBRANCH   1  25
BRANCH   3  29
HETATM   29  O1  UNL     1      28.991   2.265  53.067  1.00  0.00    -0.382 OA
HETATM   30  H11 UNL     1      29.771   1.731  52.810  1.00  0.00     0.211 HD
ENDBRANCH   3  29
TORSDOF 9
ENDMDL
MODEL 2
REMARK VINA RESULT:      -7.9      2.776      5.468
REMARK  9 active torsions:
REMARK  status: ('A' for Active; 'I' for Inactive)
REMARK    1  A    between atoms: C2_2  and  C3_3 
REMARK    2  A    between atoms: C3_3  and  C4_4 
REMARK    3  A    between atoms: C4_4  and  C5_5 
REMARK    4  A    between atoms: C7_7  and  O1_8 
REMARK    5  A    between atoms: C11_13  and  C12_14 
REMARK    6  A    between atoms: C17_19  and  O3_20 
REMARK    7  A    between atoms: O3_20  and  C18_21 
REMARK    8  A    between atoms: C18_21  and  C19_22 
REMARK       I    between atoms: C19_22  and  N1_24 
REMARK    9  A    between atoms: N1_24  and  C20_25 
ROOT
HETATM    1  C5  UNL     1      25.628  -0.379  53.920  1.00  0.00    -0.057 C 
HETATM    2  C6  UNL     1      24.718  -0.890  54.658  1.00  0.00     0.019 C 
HETATM    3  C7  UNL     1      23.343  -1.079  54.976  1.00  0.00     0.119 A 
HETATM    4  C8  UNL     1      22.088  -0.792  54.620  1.00  0.00     0.073 A 
HETATM    5  C9  UNL     1      22.516   0.021  53.438  1.00  0.00    -0.040 A 
HETATM    6  O2  UNL     1      22.769  -0.714  54.392  1.00  0.00     0.000 OA
HETATM    7  C10 UNL     1      22.522   0.901  52.269  1.00  0.00     0.045 C 
HETATM    8  C11 UNL     1      23.515   1.271  51.476  1.00  0.00     0.082 C 
HETATM    9  O5  UNL     1      24.726   0.629  51.921  1.00  0.00    -0.346 OA
HETATM   10  C22 UNL     1      24.897   0.695  53.335  1.00  0.00     0.209 C 
ENDROOT
BRANCH   8  11
HETATM   11  C12 UNL     1      23.072   2.098  50.559  1.00  0.00     0.031 A 
HETATM   12  C13 UNL     1      22.061   1.309  49.958  1.00  0.00     0.017 A 
HETATM   13  C14 UNL     1      21.278   1.754  48.827  1.00  0.00     0.001 A 
HETATM   14  C15 UNL     1      21.541   3.033  48.307  1.00  0.00     0.003 A 
HETATM   15  C16 UNL     1      22.507   3.851  48.840  1.00  0.00     0.038 A 
HETATM   16  C17 UNL     1      23.251   3.389  49.942  1.00  0.00     0.082 A 
BRANCH  16  17
HETATM   17  O3  UNL     1      24.307   3.997  50.704  1.00  0.00    -0.341 OA
BRANCH  17  18
HETATM   18  C18 UNL     1      24.560   5.362  50.251  1.00  0.00     0.278 C 
BRANCH  18  19
HETATM   19  C19 UNL     1      25.854   5.480  49.633  1.00  0.00     0.241 C 
HETATM   20  O4  UNL     1      25.349   6.144  48.641  1.00  0.00    -0.271 OA
HETATM   21  N1  UNL     1      27.228   5.363  49.396  1.00  0.00    -0.360 N 
HETATM   22  H20 UNL     1      27.422   4.793  50.307  1.00  0.00     0.162 HD
BRANCH  21  23
HETATM   23  C20 UNL     1      27.948   5.903  48.254  1.00  0.00     0.118 C 
HETATM   24  C21 UNL     1      29.431   5.703  48.312  1.00  0.00     0.026 C 
ENDBRANCH  21  23
ENDBRANCH  18  19
ENDBRANCH  17  18
ENDBRANCH  16  17
ENDBRANCH   8  11
BRANCH   1  25
HETATM   25  C4  UNL     1      27.002  -0.130  53.498  1.00  0.00     0.036 C 
BRANCH  25  26
HETATM   26  C3  UNL     1      27.886   0.195  54.709  1.00  0.00     0.004 C 
BRANCH  26  27
HETATM   27  C2  UNL     1      29.322   0.380  54.171  1.00  0.00    -0.004 C 
HETATM   28  C1  UNL     1      29.759  -0.935  53.595  1.00  0.00     0.005 C 
ENDBRANCH  26  27
ENDBRANCH  25  26
ENDBRANCH   1  25
BRANCH   3  29
HETATM   29  O1  UNL     1      23.235  -1.857  56.093  1.00  0.00    -0.382 OA
HETATM   30  H11 UNL     1      22.825  -2.745  56.170  1.00  0.00     0.211 HD
ENDBRANCH   3  29
TORSDOF 9
ENDMDL
MODEL 3
REMARK VINA RESULT:      -7.9      2.643      5.442
REMARK  9 active torsions:
REMARK  status: ('A' for Active; 'I' for Inactive)
REMARK    1  A    between atoms: C2_2  and  C3_3 
REMARK    2  A    between atoms: C3_3  and  C4_4 
REMARK    3  A    between atoms: C4_4  and  C5_5 
REMARK    4  A    between atoms: C7_7  and  O1_8 
REMARK    5  A    between atoms: C11_13  and  C12_14 
REMARK    6  A    between atoms: C17_19  and  O3_20 
REMARK    7  A    between atoms: O3_20  and  C18_21 
REMARK    8  A    between atoms: C18_21  and  C19_22 
REMARK       I    between atoms: C19_22  and  N1_24 
REMARK    9  A    between atoms: N1_24  and  C20_25 
ROOT
HETATM    1  C5  UNL     1      24.238   3.812  49.502  1.00  0.00    -0.057 C 
HETATM    2  C6  UNL     1      23.400   3.684  48.547  1.00  0.00     0.019 C 
HETATM    3  C7  UNL     1      22.258   3.051  47.977  1.00  0.00     0.119 A 
HETATM    4  C8  UNL     1      21.313   2.126  48.163  1.00  0.00     0.073 A 
HETATM    5  C9  UNL     1      21.820   1.755  49.522  1.00  0.00    -0.040 A 
HETATM    6  O2  UNL     1      21.852   2.456  48.511  1.00  0.00     0.000 OA
HETATM    7  C10 UNL     1      22.024   1.091  50.810  1.00  0.00     0.045 C 
HETATM    8  C11 UNL     1      22.842   1.384  51.809  1.00  0.00     0.082 C 
HETATM    9  O5  UNL     1      23.581   2.573  51.467  1.00  0.00    -0.346 OA
HETATM   10  C22 UNL     1      24.086   2.543  50.134  1.00  0.00     0.209 C 
ENDROOT
BRANCH   8  11
HETATM   11  C12 UNL     1      22.712   0.498  52.768  1.00  0.00     0.031 A 
HETATM   12  C13 UNL     1      21.319   0.570  53.008  1.00  0.00     0.017 A 
HETATM   13  C14 UNL     1      20.653  -0.196  54.037  1.00  0.00     0.001 A 
HETATM   14  C15 UNL     1      21.436  -1.051  54.831  1.00  0.00     0.003 A 
HETATM   15  C16 UNL     1      22.793  -1.170  54.654  1.00  0.00     0.038 A 
HETATM   16  C17 UNL     1      23.411  -0.411  53.642  1.00  0.00     0.082 A 
BRANCH  16  17
HETATM   17  O3  UNL     1      24.782  -0.317  53.221  1.00  0.00    -0.341 OA
BRANCH  17  18
HETATM   18  C18 UNL     1      25.618   0.239  54.280  1.00  0.00     0.278 C 
BRANCH  18  19
HETATM   19  C19 UNL     1      27.015   0.162  53.943  1.00  0.00     0.241 C 
HETATM   20  O4  UNL     1      27.306  -0.255  55.135  1.00  0.00    -0.271 OA
HETATM   21  N1  UNL     1      28.214   0.234  53.226  1.00  0.00    -0.360 N 
HETATM   22  H20 UNL     1      27.741   0.595  52.310  1.00  0.00     0.162 HD
BRANCH  21  23
HETATM   23  C20 UNL     1      29.534  -0.112  53.728  1.00  0.00     0.118 C 
HETATM   24  C21 UNL     1      29.930  -1.536  53.485  1.00  0.00     0.026 C 
ENDBRANCH  21  23
ENDBRANCH  18  19
ENDBRANCH  17  18
ENDBRANCH  16  17
ENDBRANCH   8  11
BRANCH   1  25
HETATM   25  C4  UNL     1      25.386   4.400  50.184  1.00  0.00     0.036 C 
BRANCH  25  26
HETATM   26  C3  UNL     1      26.677   4.117  49.405  1.00  0.00     0.004 C 
BRANCH  26  27
HETATM   27  C2  UNL     1      27.039   5.421  48.660  1.00  0.00    -0.004 C 
HETATM   28  C1  UNL     1      28.506   5.368  48.349  1.00  0.00     0.005 C 
ENDBRANCH  26  27
ENDBRANCH  25  26
ENDBRANCH   1  25
BRANCH   3  29
HETATM   29  O1  UNL     1      22.014   3.577  46.740  1.00  0.00    -0.382 OA
HETATM   30  H11 UNL     1      21.587   4.433  46.524  1.00  0.00     0.211 HD
ENDBRANCH   3  29
TORSDOF 9
ENDMDL
MODEL 4
REMARK VINA RESULT:      -7.7      1.533      5.977
REMARK  9 active torsions:
REMARK  status: ('A' for Active; 'I' for Inactive)
REMARK    1  A    between atoms: C2_2  and  C3_3 
REMARK    2  A    between atoms: C3_3  and  C4_4 
REMARK    3  A    between atoms: C4_4  and  C5_5 
REMARK    4  A    between atoms: C7_7  and  O1_8 
REMARK    5  A    between atoms: C11_13  and  C12_14 
REMARK    6  A    between atoms: C17_19  and  O3_20 
REMARK    7  A    between atoms: O3_20  and  C18_21 
REMARK    8  A    between atoms: C18_21  and  C19_22 
REMARK       I    between atoms: C19_22  and  N1_24 
REMARK    9  A    between atoms: N1_24  and  C20_25 
ROOT
HETATM    1  C5  UNL     1      23.693   0.762  52.812  1.00  0.00    -0.057 C 
HETATM    2  C6  UNL     1      24.692   0.006  53.063  1.00  0.00     0.019 C 
HETATM    3  C7  UNL     1      26.083  -0.282  52.963  1.00  0.00     0.119 A 
HETATM    4  C8  UNL     1      27.258   0.146  52.494  1.00  0.00     0.073 A 
HETATM    5  C9  UNL     1      26.670   1.392  51.909  1.00  0.00    -0.040 A 
HETATM    6  O2  UNL     1      26.572   0.357  52.567  1.00  0.00     0.000 OA
HETATM    7  C10 UNL     1      26.485   2.647  51.180  1.00  0.00     0.045 C 
HETATM    8  C11 UNL     1      25.428   3.440  51.087  1.00  0.00     0.082 C 
HETATM    9  O5  UNL     1      24.364   2.887  51.885  1.00  0.00    -0.346 OA
HETATM   10  C22 UNL     1      24.205   1.483  51.694  1.00  0.00     0.209 C 
ENDROOT
BRANCH   8  11
HETATM   11  C12 UNL     1      25.698   4.455  50.300  1.00  0.00     0.031 A 
HETATM   12  C13 UNL     1      26.830   3.960  49.608  1.00  0.00     0.017 A 
HETATM   13  C14 UNL     1      27.561   4.735  48.631  1.00  0.00     0.001 A 
HETATM   14  C15 UNL     1      27.119   6.042  48.364  1.00  0.00     0.003 A 
HETATM   15  C16 UNL     1      26.030   6.586  48.999  1.00  0.00     0.038 A 
HETATM   16  C17 UNL     1      25.338   5.805  49.944  1.00  0.00     0.082 A 
BRANCH  16  17
HETATM   17  O3  UNL     1      24.187   6.087  50.757  1.00  0.00    -0.341 OA
BRANCH  17  18
HETATM   18  C18 UNL     1      22.959   6.001  49.973  1.00  0.00     0.278 C 
BRANCH  18  19
HETATM   19  C19 UNL     1      21.982   5.161  50.615  1.00  0.00     0.241 C 
HETATM   20  O4  UNL     1      21.013   5.845  50.093  1.00  0.00    -0.271 OA
HETATM   21  N1  UNL     1      21.404   4.149  51.390  1.00  0.00    -0.360 N 
HETATM   22  H20 UNL     1      22.362   3.737  51.715  1.00  0.00     0.162 HD
BRANCH  21  23
HETATM   23  C20 UNL     1      19.981   3.908  51.558  1.00  0.00     0.118 C 
HETATM   24  C21 UNL     1      19.483   2.668  50.883  1.00  0.00     0.026 C 
ENDBRANCH  21  23
ENDBRANCH  18  19
ENDBRANCH  17  18
ENDBRANCH  16  17
ENDBRANCH   8  11
BRANCH   1  25
HETATM   25  C4  UNL     1      22.290   1.160  52.865  1.00  0.00     0.036 C 
BRANCH  25  26
HETATM   26  C3  UNL     1      21.380  -0.075  52.861  1.00  0.00     0.004 C 
BRANCH  26  27
HETATM   27  C2  UNL     1      21.116  -0.435  54.340  1.00  0.00    -0.004 C 
HETATM   28  C1  UNL     1      21.655  -1.816  54.569  1.00  0.00     0.005 C 
ENDBRANCH  26  27
ENDBRANCH  25  26
ENDBRANCH   1  25
BRANCH   3  29
HETATM   29  O1  UNL     1      26.349  -1.471  53.580  1.00  0.00    -0.382 OA
HETATM   30  H11 UNL     1      26.160  -2.375  53.250  1.00  0.00     0.211 HD
ENDBRANCH   3  29
TORSDOF 9
ENDMDL
MODEL 5
REMARK VINA RESULT:      -7.3      2.851      5.465
REMARK  9 active torsions:
REMARK  status: ('A' for Active; 'I' for Inactive)
REMARK    1  A    between atoms: C2_2  and  C3_3 
REMARK    2  A    between atoms: C3_3  and  C4_4 
REMARK    3  A    between atoms: C4_4  and  C5_5 
REMARK    4  A    between atoms: C7_7  and  O1_8 
REMARK    5  A    between atoms: C11_13  and  C12_14 
REMARK    6  A    between atoms: C17_19  and  O3_20 
REMARK    7  A    between atoms: O3_20  and  C18_21 
REMARK    8  A    between atoms: C18_21  and  C19_22 
REMARK       I    between atoms: C19_22  and  N1_24 
REMARK    9  A    between atoms: N1_24  and  C20_25 
ROOT
HETATM    1  C5  UNL     1      26.996   6.313  48.986  1.00  0.00    -0.057 C 
HETATM    2  C6  UNL     1      26.507   7.422  49.390  1.00  0.00     0.019 C 
HETATM    3  C7  UNL     1      25.472   8.157  50.036  1.00  0.00     0.119 A 
HETATM    4  C8  UNL     1      24.295   8.071  50.661  1.00  0.00     0.073 A 
HETATM    5  C9  UNL     1      24.236   6.581  50.530  1.00  0.00    -0.040 A 
HETATM    6  O2  UNL     1      24.819   7.655  50.390  1.00  0.00     0.000 OA
HETATM    7  C10 UNL     1      23.792   5.187  50.560  1.00  0.00     0.045 C 
HETATM    8  C11 UNL     1      24.432   4.073  50.238  1.00  0.00     0.082 C 
HETATM    9  O5  UNL     1      25.771   4.412  49.829  1.00  0.00    -0.346 OA
HETATM   10  C22 UNL     1      25.810   5.524  48.938  1.00  0.00     0.209 C 
ENDROOT
BRANCH   8  11
HETATM   11  C12 UNL     1      23.638   3.040  50.393  1.00  0.00     0.031 A 
HETATM   12  C13 UNL     1      23.123   2.902  49.081  1.00  0.00     0.017 A 
HETATM   13  C14 UNL     1      22.137   1.910  48.719  1.00  0.00     0.001 A 
HETATM   14  C15 UNL     1      21.674   1.045  49.725  1.00  0.00     0.003 A 
HETATM   15  C16 UNL     1      22.129   1.122  51.018  1.00  0.00     0.038 A 
HETATM   16  C17 UNL     1      23.091   2.099  51.338  1.00  0.00     0.082 A 
BRANCH  16  17
HETATM   17  O3  UNL     1      23.747   2.424  52.575  1.00  0.00    -0.341 OA
BRANCH  17  18
HETATM   18  C18 UNL     1      24.614   1.333  53.009  1.00  0.00     0.278 C 
BRANCH  18  19
HETATM   19  C19 UNL     1      25.941   1.803  53.310  1.00  0.00     0.241 C 
HETATM   20  O4  UNL     1      26.435   1.115  52.329  1.00  0.00    -0.271 OA
HETATM   21  N1  UNL     1      27.006   2.472  53.922  1.00  0.00    -0.360 N 
HETATM   22  H20 UNL     1      26.379   2.949  54.679  1.00  0.00     0.162 HD
BRANCH  21  23
HETATM   23  C20 UNL     1      28.401   2.413  53.517  1.00  0.00     0.118 C 
HETATM   24  C21 UNL     1      29.249   1.516  54.365  1.00  0.00     0.026 C 
ENDBRANCH  21  23
ENDBRANCH  18  19
ENDBRANCH  17  18
ENDBRANCH  16  17
ENDBRANCH   8  11
BRANCH   1  25
HETATM   25  C4  UNL     1      28.000   5.463  48.356  1.00  0.00     0.036 C 
BRANCH  25  26
HETATM   26  C3  UNL     1      29.128   6.314  47.760  1.00  0.00     0.004 C 
BRANCH  26  27
HETATM   27  C2  UNL     1      30.420   5.929  48.514  1.00  0.00    -0.004 C 
HETATM   28  C1  UNL     1      31.213   5.026  47.615  1.00  0.00     0.005 C 
ENDBRANCH  26  27
ENDBRANCH  25  26
ENDBRANCH   1  25
BRANCH   3  29
HETATM   29  O1  UNL     1      25.776   9.489  50.017  1.00  0.00    -0.382 OA
HETATM   30  H11 UNL     1      26.322   9.990  50.659  1.00  0.00     0.211 HD
ENDBRANCH   3  29
TORSDOF 9
ENDMDL
MODEL 6
REMARK VINA RESULT:      -7.2      1.488      3.395
REMARK  9 active torsions:
REMARK  status: ('A' for Active; 'I' for Inactive)
REMARK    1  A    between atoms: C2_2  and  C3_3 
REMARK    2  A    between atoms: C3_3  and  C4_4 
REMARK    3  A    between atoms: C4_4  and  C5_5 
REMARK    4  A    between atoms: C7_7  and  O1_8 
REMARK    5  A    between atoms: C11_13  and  C12_14 
REMARK    6  A    between atoms: C17_19  and  O3_20 
REMARK    7  A    between atoms: O3_20  and  C18_21 
REMARK    8  A    between atoms: C18_21  and  C19_22 
REMARK       I    between atoms: C19_22  and  N1_24 
REMARK    9  A    between atoms: N1_24  and  C20_25 
ROOT
HETATM    1  C5  UNL     1      27.004   1.731  52.627  1.00  0.00    -0.057 C 
HETATM    2  C6  UNL     1      27.062   2.506  51.613  1.00  0.00     0.019 C 
HETATM    3  C7  UNL     1      26.425   3.188  50.537  1.00  0.00     0.119 A 
HETATM    4  C8  UNL     1      25.259   3.425  49.930  1.00  0.00     0.073 A 
HETATM    5  C9  UNL     1      24.484   2.582  50.894  1.00  0.00    -0.040 A 
HETATM    6  O2  UNL     1      25.531   3.106  50.517  1.00  0.00     0.000 OA
HETATM    7  C10 UNL     1      23.416   1.838  51.563  1.00  0.00     0.045 C 
HETATM    8  C11 UNL     1      23.421   1.164  52.703  1.00  0.00     0.082 C 
HETATM    9  O5  UNL     1      24.731   1.266  53.294  1.00  0.00    -0.346 OA
HETATM   10  C22 UNL     1      25.780   1.056  52.351  1.00  0.00     0.209 C 
ENDROOT
BRANCH   8  11
HETATM   11  C12 UNL     1      22.242   0.626  52.910  1.00  0.00     0.031 A 
HETATM   12  C13 UNL     1      22.579  -0.412  53.811  1.00  0.00     0.017 A 
HETATM   13  C14 UNL     1      21.614  -1.358  54.324  1.00  0.00     0.001 A 
HETATM   14  C15 UNL     1      20.280  -1.232  53.900  1.00  0.00     0.003 A 
HETATM   15  C16 UNL     1      19.884  -0.249  53.027  1.00  0.00     0.038 A 
HETATM   16  C17 UNL     1      20.847   0.658  52.547  1.00  0.00     0.082 A 
BRANCH  16  17
HETATM   17  O3  UNL     1      20.745   1.770  51.643  1.00  0.00    -0.341 OA
BRANCH  17  18
HETATM   18  C18 UNL     1      20.210   2.947  52.320  1.00  0.00     0.278 C 
BRANCH  18  19
HETATM   19  C19 UNL     1      20.985   4.123  52.022  1.00  0.00     0.241 C 
HETATM   20  O4  UNL     1      20.733   4.000  50.757  1.00  0.00    -0.271 OA
HETATM   21  N1  UNL     1      21.791   5.257  52.175  1.00  0.00    -0.360 N 
HETATM   22  H20 UNL     1      21.873   5.154  53.259  1.00  0.00     0.162 HD
BRANCH  21  23
HETATM   23  C20 UNL     1      22.243   6.135  51.109  1.00  0.00     0.118 C 
HETATM   24  C21 UNL     1      23.710   6.433  51.139  1.00  0.00     0.026 C 
ENDBRANCH  21  23
ENDBRANCH  18  19
ENDBRANCH  17  18
ENDBRANCH  16  17
ENDBRANCH   8  11
BRANCH   1  25
HETATM   25  C4  UNL     1      27.551   1.000  53.765  1.00  0.00     0.036 C 
BRANCH  25  26
HETATM   26  C3  UNL     1      27.781  -0.471  53.399  1.00  0.00     0.004 C 
BRANCH  26  27
HETATM   27  C2  UNL     1      29.305  -0.712  53.467  1.00  0.00    -0.004 C 
HETATM   28  C1  UNL     1      29.529  -2.194  53.396  1.00  0.00     0.005 C 
ENDBRANCH  26  27
ENDBRANCH  25  26
ENDBRANCH   1  25
BRANCH   3  29
HETATM   29  O1  UNL     1      27.357   3.881  49.818  1.00  0.00    -0.382 OA
HETATM   30  H11 UNL     1      28.272   3.607  49.600  1.00  0.00     0.211 HD
ENDBRANCH   3  29
TORSDOF 9
ENDMDL
MODEL 7
REMARK VINA RESULT:      -7.0      2.616      4.030
REMARK  9 active torsions:
REMARK  status: ('A' for Active; 'I' for Inactive)
REMARK    1  A    between atoms: C2_2  and  C3_3 
REMARK    2  A    between atoms: C3_3  and  C4_4 
REMARK    3  A    between atoms: C4_4  and  C5_5 
REMARK    4  A    between atoms: C7_7  and  O1_8 
REMARK    5  A    between atoms: C11_13  and  C12_14 
REMARK    6  A    between atoms: C17_19  and  O3_20 
REMARK    7  A    between atoms: O3_20  and  C18_21 
REMARK    8  A    between atoms: C18_21  and  C19_22 
REMARK       I    between atoms: C19_22  and  N1_24 
REMARK    9  A    between atoms: N1_24  and  C20_25 
ROOT
HETATM    1  C5  UNL     1      26.871   1.352  52.404  1.00  0.00    -0.057 C 
HETATM    2  C6  UNL     1      27.041   2.301  51.566  1.00  0.00     0.019 C 
HETATM    3  C7  UNL     1      26.513   3.237  50.632  1.00  0.00     0.119 A 
HETATM    4  C8  UNL     1      25.400   3.697  50.053  1.00  0.00     0.073 A 
HETATM    5  C9  UNL     1      24.514   2.757  50.809  1.00  0.00    -0.040 A 
HETATM    6  O2  UNL     1      25.618   3.245  50.572  1.00  0.00     0.000 OA
HETATM    7  C10 UNL     1      23.357   1.999  51.287  1.00  0.00     0.045 C 
HETATM    8  C11 UNL     1      23.253   1.117  52.269  1.00  0.00     0.082 C 
HETATM    9  O5  UNL     1      24.539   0.979  52.904  1.00  0.00    -0.346 OA
HETATM   10  C22 UNL     1      25.607   0.860  51.966  1.00  0.00     0.209 C 
ENDROOT
BRANCH   8  11
HETATM   11  C12 UNL     1      22.024   0.662  52.334  1.00  0.00     0.031 A 
HETATM   12  C13 UNL     1      21.869   0.512  53.733  1.00  0.00     0.017 A 
HETATM   13  C14 UNL     1      20.673  -0.021  54.344  1.00  0.00     0.001 A 
HETATM   14  C15 UNL     1      19.619  -0.406  53.499  1.00  0.00     0.003 A 
HETATM   15  C16 UNL     1      19.700  -0.289  52.133  1.00  0.00     0.038 A 
HETATM   16  C17 UNL     1      20.879   0.235  51.569  1.00  0.00     0.082 A 
BRANCH  16  17
HETATM   17  O3  UNL     1      21.260   0.475  50.204  1.00  0.00    -0.341 OA
BRANCH  17  18
HETATM   18  C18 UNL     1      20.228   1.229  49.498  1.00  0.00     0.278 C 
BRANCH  18  19
HETATM   19  C19 UNL     1      20.802   2.115  48.520  1.00  0.00     0.241 C 
HETATM   20  O4  UNL     1      21.596   1.181  48.101  1.00  0.00    -0.271 OA
HETATM   21  N1  UNL     1      21.065   3.256  47.753  1.00  0.00    -0.360 N 
HETATM   22  H20 UNL     1      20.324   3.873  48.266  1.00  0.00     0.162 HD
BRANCH  21  23
HETATM   23  C20 UNL     1      22.040   3.359  46.680  1.00  0.00     0.118 C 
HETATM   24  C21 UNL     1      21.463   3.786  45.366  1.00  0.00     0.026 C 
ENDBRANCH  21  23
ENDBRANCH  18  19
ENDBRANCH  17  18
ENDBRANCH  16  17
ENDBRANCH   8  11
BRANCH   1  25
HETATM   25  C4  UNL     1      27.302   0.364  53.387  1.00  0.00     0.036 C 
BRANCH  25  26
HETATM   26  C3  UNL     1      27.402  -1.026  52.746  1.00  0.00     0.004 C 
BRANCH  26  27
HETATM   27  C2  UNL     1      28.759  -1.619  53.185  1.00  0.00    -0.004 C 
HETATM   28  C1  UNL     1      29.530  -0.525  53.863  1.00  0.00     0.005 C 
ENDBRANCH  26  27
ENDBRANCH  25  26
ENDBRANCH   1  25
BRANCH   3  29
HETATM   29  O1  UNL     1      27.533   3.968  50.090  1.00  0.00    -0.382 OA
HETATM   30  H11 UNL     1      27.799   4.021  49.148  1.00  0.00     0.211 HD
ENDBRANCH   3  29
TORSDOF 9
ENDMDL
MODEL 8
REMARK VINA RESULT:      -7.0      2.545      3.116
REMARK  9 active torsions:
REMARK  status: ('A' for Active; 'I' for Inactive)
REMARK    1  A    between atoms: C2_2  and  C3_3 
REMARK    2  A    between atoms: C3_3  and  C4_4 
REMARK    3  A    between atoms: C4_4  and  C5_5 
REMARK    4  A    between atoms: C7_7  and  O1_8 
REMARK    5  A    between atoms: C11_13  and  C12_14 
REMARK    6  A    between atoms: C17_19  and  O3_20 
REMARK    7  A    between atoms: O3_20  and  C18_21 
REMARK    8  A    between atoms: C18_21  and  C19_22 
REMARK       I    between atoms: C19_22  and  N1_24 
REMARK    9  A    between atoms: N1_24  and  C20_25 
ROOT
HETATM    1  C5  UNL     1      23.939   3.577  49.096  1.00  0.00    -0.057 C 
HETATM    2  C6  UNL     1      25.183   3.698  49.362  1.00  0.00     0.019 C 
HETATM    3  C7  UNL     1      26.300   3.434  50.205  1.00  0.00     0.119 A 
HETATM    4  C8  UNL     1      26.708   2.827  51.322  1.00  0.00     0.073 A 
HETATM    5  C9  UNL     1      25.346   2.289  51.632  1.00  0.00    -0.040 A 
HETATM    6  O2  UNL     1      26.128   2.891  50.898  1.00  0.00     0.000 OA
HETATM    7  C10 UNL     1      24.209   1.647  52.292  1.00  0.00     0.045 C 
HETATM    8  C11 UNL     1      22.969   1.451  51.870  1.00  0.00     0.082 C 
HETATM    9  O5  UNL     1      22.846   1.976  50.534  1.00  0.00    -0.346 OA
HETATM   10  C22 UNL     1      23.438   3.266  50.393  1.00  0.00     0.209 C 
ENDROOT
BRANCH   8  11
HETATM   11  C12 UNL     1      22.268   0.852  52.804  1.00  0.00     0.031 A 
HETATM   12  C13 UNL     1      23.148  -0.197  53.165  1.00  0.00     0.017 A 
HETATM   13  C14 UNL     1      22.818  -1.203  54.149  1.00  0.00     0.001 A 
HETATM   14  C15 UNL     1      21.561  -1.126  54.772  1.00  0.00     0.003 A 
HETATM   15  C16 UNL     1      20.658  -0.136  54.470  1.00  0.00     0.038 A 
HETATM   16  C17 UNL     1      21.010   0.829  53.509  1.00  0.00     0.082 A 
BRANCH  16  17
HETATM   17  O3  UNL     1      20.297   1.963  52.988  1.00  0.00    -0.341 OA
BRANCH  17  18
HETATM   18  C18 UNL     1      19.383   1.562  51.923  1.00  0.00     0.278 C 
BRANCH  18  19
HETATM   19  C19 UNL     1      19.005   2.683  51.104  1.00  0.00     0.241 C 
HETATM   20  O4  UNL     1      19.034   3.475  52.129  1.00  0.00    -0.271 OA
HETATM   21  N1  UNL     1      18.643   3.456  49.994  1.00  0.00    -0.360 N 
HETATM   22  H20 UNL     1      18.676   2.617  49.295  1.00  0.00     0.162 HD
BRANCH  21  23
HETATM   23  C20 UNL     1      18.368   4.883  49.999  1.00  0.00     0.118 C 
HETATM   24  C21 UNL     1      19.465   5.723  49.423  1.00  0.00     0.026 C 
ENDBRANCH  21  23
ENDBRANCH  18  19
ENDBRANCH  17  18
ENDBRANCH  16  17
ENDBRANCH   8  11
BRANCH   1  25
HETATM   25  C4  UNL     1      22.732   3.776  48.300  1.00  0.00     0.036 C 
BRANCH  25  26
HETATM   26  C3  UNL     1      22.727   5.174  47.671  1.00  0.00     0.004 C 
BRANCH  26  27
HETATM   27  C2  UNL     1      21.956   5.057  46.338  1.00  0.00    -0.004 C 
HETATM   28  C1  UNL     1      22.338   6.237  45.492  1.00  0.00     0.005 C 
ENDBRANCH  26  27
ENDBRANCH  25  26
ENDBRANCH   1  25
BRANCH   3  29
HETATM   29  O1  UNL     1      27.413   4.039  49.692  1.00  0.00    -0.382 OA
HETATM   30  H11 UNL     1      28.297   4.119  50.107  1.00  0.00     0.211 HD
ENDBRANCH   3  29
TORSDOF 9
ENDMDL
MODEL 9
REMARK VINA RESULT:      -6.9      2.435      5.171
REMARK  9 active torsions:
REMARK  status: ('A' for Active; 'I' for Inactive)
REMARK    1  A    between atoms: C2_2  and  C3_3 
REMARK    2  A    between atoms: C3_3  and  C4_4 
REMARK    3  A    between atoms: C4_4  and  C5_5 
REMARK    4  A    between atoms: C7_7  and  O1_8 
REMARK    5  A    between atoms: C11_13  and  C12_14 
REMARK    6  A    between atoms: C17_19  and  O3_20 
REMARK    7  A    between atoms: O3_20  and  C18_21 
REMARK    8  A    between atoms: C18_21  and  C19_22 
REMARK       I    between atoms: C19_22  and  N1_24 
REMARK    9  A    between atoms: N1_24  and  C20_25 
ROOT
HETATM    1  C5  UNL     1      24.099   5.852  50.437  1.00  0.00    -0.057 C 
HETATM    2  C6  UNL     1      25.227   5.624  49.882  1.00  0.00     0.019 C 
HETATM    3  C7  UNL     1      26.280   4.728  49.540  1.00  0.00     0.119 A 
HETATM    4  C8  UNL     1      26.712   3.466  49.619  1.00  0.00     0.073 A 
HETATM    5  C9  UNL     1      25.500   3.005  50.366  1.00  0.00    -0.040 A 
HETATM    6  O2  UNL     1      26.134   3.872  49.766  1.00  0.00     0.000 OA
HETATM    7  C10 UNL     1      24.541   2.198  51.122  1.00  0.00     0.045 C 
HETATM    8  C11 UNL     1      23.320   2.487  51.545  1.00  0.00     0.082 C 
HETATM    9  O5  UNL     1      22.986   3.821  51.118  1.00  0.00    -0.346 OA
HETATM   10  C22 UNL     1      24.043   4.752  51.342  1.00  0.00     0.209 C 
ENDROOT
BRANCH   8  11
HETATM   11  C12 UNL     1      22.826   1.471  52.212  1.00  0.00     0.031 A 
HETATM   12  C13 UNL     1      21.502   1.443  51.713  1.00  0.00     0.017 A 
HETATM   13  C14 UNL     1      20.500   0.511  52.177  1.00  0.00     0.001 A 
HETATM   14  C15 UNL     1      20.869  -0.409  53.173  1.00  0.00     0.003 A 
HETATM   15  C16 UNL     1      22.135  -0.439  53.703  1.00  0.00     0.038 A 
HETATM   16  C17 UNL     1      23.089   0.482  53.228  1.00  0.00     0.082 A 
BRANCH  16  17
HETATM   17  O3  UNL     1      24.466   0.696  53.578  1.00  0.00    -0.341 OA
BRANCH  17  18
HETATM   18  C18 UNL     1      25.186  -0.570  53.670  1.00  0.00     0.278 C 
BRANCH  18  19
HETATM   19  C19 UNL     1      26.576  -0.364  53.982  1.00  0.00     0.241 C 
HETATM   20  O4  UNL     1      26.792   0.135  52.805  1.00  0.00    -0.271 OA
HETATM   21  N1  UNL     1      27.794  -0.343  54.670  1.00  0.00    -0.360 N 
HETATM   22  H20 UNL     1      27.384  -0.794  55.577  1.00  0.00     0.162 HD
BRANCH  21  23
HETATM   23  C20 UNL     1      29.057   0.160  54.158  1.00  0.00     0.118 C 
HETATM   24  C21 UNL     1      30.011  -0.907  53.720  1.00  0.00     0.026 C 
ENDBRANCH  21  23
ENDBRANCH  18  19
ENDBRANCH  17  18
ENDBRANCH  16  17
ENDBRANCH   8  11
BRANCH   1  25
HETATM   25  C4  UNL     1      22.962   6.678  50.829  1.00  0.00     0.036 C 
BRANCH  25  26
HETATM   26  C3  UNL     1      23.170   8.129  50.378  1.00  0.00     0.004 C 
BRANCH  26  27
HETATM   27  C2  UNL     1      22.068   8.433  49.340  1.00  0.00    -0.004 C 
HETATM   28  C1  UNL     1      20.744   8.228  50.017  1.00  0.00     0.005 C 
ENDBRANCH  26  27
ENDBRANCH  25  26
ENDBRANCH   1  25
BRANCH   3  29
HETATM   29  O1  UNL     1      27.255   5.405  48.865  1.00  0.00    -0.382 OA
HETATM   30  H11 UNL     1      27.503   6.349  48.954  1.00  0.00     0.211 HD
ENDBRANCH   3  29
TORSDOF 9
ENDMDL
