MODEL 1
REMARK VINA RESULT:      -8.5      0.000      0.000
REMARK  1 active torsions:
REMARK  status: ('A' for Active; 'I' for Inactive)
REMARK    1  A    between atoms: N1_1  and  C1_2 
ROOT
HETATM    1  C1  UNL     1      24.264   5.968  50.599  1.00  0.00     0.112 C 
HETATM    2  C2  UNL     1      24.790   5.534  49.331  1.00  0.00    -0.030 C 
HETATM    3  C3  UNL     1      25.488   4.502  49.513  1.00  0.00     0.052 C 
HETATM    4  C4  UNL     1      26.310   3.347  49.501  1.00  0.00    -0.020 C 
HETATM    5  C5  UNL     1      26.412   2.778  50.686  1.00  0.00    -0.025 C 
HETATM    6  C6  UNL     1      26.803   1.841  51.734  1.00  0.00     0.068 C 
HETATM    7  C7  UNL     1      25.533   1.189  52.293  1.00  0.00    -0.025 A 
HETATM    8  C8  UNL     1      25.730   0.267  53.278  1.00  0.00     0.053 A 
HETATM    9  C9  UNL     1      24.697  -0.398  53.894  1.00  0.00     0.138 A 
HETATM   10  F1  UNL     1      24.998  -1.284  54.849  1.00  0.00    -0.204 F 
HETATM   11  C10 UNL     1      23.382  -0.176  53.553  1.00  0.00     0.074 A 
HETATM   12 CL1  UNL     1      22.155  -1.062  54.386  1.00  0.00    -0.081 Cl
HETATM   13  C11 UNL     1      23.234   0.770  52.546  1.00  0.00     0.056 A 
HETATM   14  C12 UNL     1      24.222   1.483  51.875  1.00  0.00     0.036 A 
HETATM   15  N2  UNL     1      23.568   2.301  50.934  1.00  0.00    -0.386 N 
HETATM   16  C13 UNL     1      22.952   2.200  49.625  1.00  0.00     0.149 C 
HETATM   17  C14 UNL     1      22.748   3.464  48.915  1.00  0.00     0.017 C 
HETATM   18  C15 UNL     1      22.653   4.699  48.416  1.00  0.00     0.132 C 
HETATM   19  O1  UNL     1      22.843   6.136  48.390  1.00  0.00    -0.359 OA
HETATM   20  C16 UNL     1      24.317   6.381  48.164  1.00  0.00     0.210 C 
HETATM   21  H10 UNL     1      23.604   3.111  51.560  1.00  0.00     0.160 HD
ENDROOT
BRANCH   1  22
HETATM   22  N1  UNL     1      24.328   5.611  51.817  1.00  0.00    -0.312 NA
HETATM   23  H1  UNL     1      24.677   4.742  52.231  1.00  0.00     0.186 HD
ENDBRANCH   1  22
TORSDOF 1
ENDMDL
MODEL 2
REMARK VINA RESULT:      -8.1      1.122      1.302
REMARK  1 active torsions:
REMARK  status: ('A' for Active; 'I' for Inactive)
REMARK    1  A    between atoms: N1_1  and  C1_2 
ROOT
HETATM    1  C1  UNL     1      25.032   6.905  50.260  1.00  0.00     0.112 C 
HETATM    2  C2  UNL     1      25.590   6.430  49.020  1.00  0.00    -0.030 C 
HETATM    3  C3  UNL     1      26.066   5.279  49.204  1.00  0.00     0.052 C 
HETATM    4  C4  UNL     1      26.659   3.992  49.200  1.00  0.00    -0.020 C 
HETATM    5  C5  UNL     1      26.540   3.368  50.356  1.00  0.00    -0.025 C 
HETATM    6  C6  UNL     1      26.649   2.334  51.379  1.00  0.00     0.068 C 
HETATM    7  C7  UNL     1      25.233   1.910  51.786  1.00  0.00    -0.025 A 
HETATM    8  C8  UNL     1      25.162   0.930  52.731  1.00  0.00     0.053 A 
HETATM    9  C9  UNL     1      23.969   0.447  53.215  1.00  0.00     0.138 A 
HETATM   10  F1  UNL     1      24.009  -0.517  54.142  1.00  0.00    -0.204 F 
HETATM   11  C10 UNL     1      22.757   0.925  52.773  1.00  0.00     0.074 A 
HETATM   12 CL1  UNL     1      21.313   0.253  53.443  1.00  0.00    -0.081 Cl
HETATM   13  C11 UNL     1      22.883   1.920  51.812  1.00  0.00     0.056 A 
HETATM   14  C12 UNL     1      24.045   2.461  51.272  1.00  0.00     0.036 A 
HETATM   15  N2  UNL     1      23.647   3.424  50.325  1.00  0.00    -0.386 N 
HETATM   16  C13 UNL     1      23.152   3.491  48.963  1.00  0.00     0.149 C 
HETATM   17  C14 UNL     1      23.253   4.798  48.310  1.00  0.00     0.017 C 
HETATM   18  C15 UNL     1      23.435   6.048  47.875  1.00  0.00     0.132 C 
HETATM   19  O1  UNL     1      23.887   7.423  47.948  1.00  0.00    -0.359 OA
HETATM   20  C16 UNL     1      25.395   7.396  47.866  1.00  0.00     0.210 C 
HETATM   21  H10 UNL     1      23.769   4.187  50.996  1.00  0.00     0.160 HD
ENDROOT
BRANCH   1  22
HETATM   22  N1  UNL     1      24.911   6.495  51.456  1.00  0.00    -0.312 NA
HETATM   23  H1  UNL     1      24.217   5.865  51.870  1.00  0.00     0.186 HD
ENDBRANCH   1  22
TORSDOF 1
ENDMDL
MODEL 3
REMARK VINA RESULT:      -7.6      4.014      5.990
REMARK  1 active torsions:
REMARK  status: ('A' for Active; 'I' for Inactive)
REMARK    1  A    between atoms: N1_1  and  C1_2 
ROOT
HETATM    1  C1  UNL     1      21.187   0.828  50.482  1.00  0.00     0.112 C 
HETATM    2  C2  UNL     1      21.399   0.815  51.906  1.00  0.00    -0.030 C 
HETATM    3  C3  UNL     1      22.608   1.079  52.139  1.00  0.00     0.052 C 
HETATM    4  C4  UNL     1      23.916   1.352  52.613  1.00  0.00    -0.020 C 
HETATM    5  C5  UNL     1      24.756   1.664  51.646  1.00  0.00    -0.025 C 
HETATM    6  C6  UNL     1      25.988   2.048  50.964  1.00  0.00     0.068 C 
HETATM    7  C7  UNL     1      25.743   3.380  50.245  1.00  0.00    -0.025 A 
HETATM    8  C8  UNL     1      26.811   3.888  49.567  1.00  0.00     0.053 A 
HETATM    9  C9  UNL     1      26.754   5.064  48.860  1.00  0.00     0.138 A 
HETATM   10  F1  UNL     1      27.860   5.476  48.230  1.00  0.00    -0.204 F 
HETATM   11  C10 UNL     1      25.603   5.816  48.788  1.00  0.00     0.074 A 
HETATM   12 CL1  UNL     1      25.632   7.281  47.873  1.00  0.00    -0.081 Cl
HETATM   13  C11 UNL     1      24.545   5.258  49.495  1.00  0.00     0.056 A 
HETATM   14  C12 UNL     1      24.521   4.079  50.231  1.00  0.00     0.036 A 
HETATM   15  N2  UNL     1      23.226   3.959  50.770  1.00  0.00    -0.386 N 
HETATM   16  C13 UNL     1      22.433   4.490  51.862  1.00  0.00     0.149 C 
HETATM   17  C14 UNL     1      21.229   3.731  52.206  1.00  0.00     0.017 C 
HETATM   18  C15 UNL     1      20.188   2.913  52.386  1.00  0.00     0.132 C 
HETATM   19  O1  UNL     1      19.370   1.740  52.152  1.00  0.00    -0.359 OA
HETATM   20  C16 UNL     1      20.131   0.555  52.698  1.00  0.00     0.210 C 
HETATM   21  H10 UNL     1      22.932   3.330  50.017  1.00  0.00     0.160 HD
ENDROOT
BRANCH   1  22
HETATM   22  N1  UNL     1      21.875   1.011  49.429  1.00  0.00    -0.312 NA
HETATM   23  H1  UNL     1      22.107   0.362  48.672  1.00  0.00     0.186 HD
ENDBRANCH   1  22
TORSDOF 1
ENDMDL
MODEL 4
REMARK VINA RESULT:      -7.5      3.199      4.123
REMARK  1 active torsions:
REMARK  status: ('A' for Active; 'I' for Inactive)
REMARK    1  A    between atoms: N1_1  and  C1_2 
ROOT
HETATM    1  C1  UNL     1      23.158   4.568  51.565  1.00  0.00     0.112 C 
HETATM    2  C2  UNL     1      24.260   3.758  51.115  1.00  0.00    -0.030 C 
HETATM    3  C3  UNL     1      24.152   2.609  51.619  1.00  0.00     0.052 C 
HETATM    4  C4  UNL     1      24.216   1.270  52.080  1.00  0.00    -0.020 C 
HETATM    5  C5  UNL     1      23.177   0.932  52.818  1.00  0.00    -0.025 C 
HETATM    6  C6  UNL     1      22.276   0.132  53.641  1.00  0.00     0.068 C 
HETATM    7  C7  UNL     1      20.924   0.041  52.923  1.00  0.00    -0.025 A 
HETATM    8  C8  UNL     1      19.968  -0.693  53.559  1.00  0.00     0.053 A 
HETATM    9  C9  UNL     1      18.700  -0.860  53.056  1.00  0.00     0.138 A 
HETATM   10  F1  UNL     1      17.836  -1.602  53.759  1.00  0.00    -0.204 F 
HETATM   11  C10 UNL     1      18.308  -0.294  51.865  1.00  0.00     0.074 A 
HETATM   12 CL1  UNL     1      16.692  -0.564  51.317  1.00  0.00    -0.081 Cl
HETATM   13  C11 UNL     1      19.316   0.442  51.256  1.00  0.00     0.056 A 
HETATM   14  C12 UNL     1      20.617   0.660  51.696  1.00  0.00     0.036 A 
HETATM   15  N2  UNL     1      21.252   1.453  50.721  1.00  0.00    -0.386 N 
HETATM   16  C13 UNL     1      21.868   1.313  49.416  1.00  0.00     0.149 C 
HETATM   17  C14 UNL     1      22.731   2.419  48.995  1.00  0.00     0.017 C 
HETATM   18  C15 UNL     1      23.484   3.502  48.784  1.00  0.00     0.132 C 
HETATM   19  O1  UNL     1      24.104   4.769  49.117  1.00  0.00    -0.359 OA
HETATM   20  C16 UNL     1      25.176   4.478  50.142  1.00  0.00     0.210 C 
HETATM   21  H10 UNL     1      21.077   2.310  51.254  1.00  0.00     0.160 HD
ENDROOT
BRANCH   1  22
HETATM   22  N1  UNL     1      22.147   4.444  52.324  1.00  0.00    -0.312 NA
HETATM   23  H1  UNL     1      21.440   3.704  52.364  1.00  0.00     0.186 HD
ENDBRANCH   1  22
TORSDOF 1
ENDMDL
MODEL 5
REMARK VINA RESULT:      -7.4      3.687      5.217
REMARK  1 active torsions:
REMARK  status: ('A' for Active; 'I' for Inactive)
REMARK    1  A    between atoms: N1_1  and  C1_2 
ROOT
HETATM    1  C1  UNL     1      27.546   9.855  49.904  1.00  0.00     0.112 C 
HETATM    2  C2  UNL     1      27.535   9.897  48.465  1.00  0.00    -0.030 C 
HETATM    3  C3  UNL     1      27.662   8.725  48.024  1.00  0.00     0.052 C 
HETATM    4  C4  UNL     1      27.798   7.497  47.328  1.00  0.00    -0.020 C 
HETATM    5  C5  UNL     1      27.838   6.453  48.133  1.00  0.00    -0.025 C 
HETATM    6  C6  UNL     1      27.920   5.070  48.590  1.00  0.00     0.068 C 
HETATM    7  C7  UNL     1      26.630   4.739  49.350  1.00  0.00    -0.025 A 
HETATM    8  C8  UNL     1      26.541   3.467  49.832  1.00  0.00     0.053 A 
HETATM    9  C9  UNL     1      25.457   3.015  50.546  1.00  0.00     0.138 A 
HETATM   10  F1  UNL     1      25.469   1.747  50.974  1.00  0.00    -0.204 F 
HETATM   11  C10 UNL     1      24.380   3.824  50.825  1.00  0.00     0.074 A 
HETATM   12 CL1  UNL     1      23.066   3.162  51.730  1.00  0.00    -0.081 Cl
HETATM   13  C11 UNL     1      24.518   5.108  50.313  1.00  0.00     0.056 A 
HETATM   14  C12 UNL     1      25.575   5.641  49.584  1.00  0.00     0.036 A 
HETATM   15  N2  UNL     1      25.233   6.973  49.281  1.00  0.00    -0.386 N 
HETATM   16  C13 UNL     1      24.404   7.714  48.351  1.00  0.00     0.149 C 
HETATM   17  C14 UNL     1      24.708   9.140  48.220  1.00  0.00     0.017 C 
HETATM   18  C15 UNL     1      25.131  10.407  48.221  1.00  0.00     0.132 C 
HETATM   19  O1  UNL     1      25.987  11.517  48.588  1.00  0.00    -0.359 OA
HETATM   20  C16 UNL     1      27.317  11.292  47.908  1.00  0.00     0.210 C 
HETATM   21  H10 UNL     1      25.780   7.330  50.070  1.00  0.00     0.160 HD
ENDROOT
BRANCH   1  22
HETATM   22  N1  UNL     1      27.664   8.982  50.820  1.00  0.00    -0.312 NA
HETATM   23  H1  UNL     1      28.503   8.623  51.284  1.00  0.00     0.186 HD
ENDBRANCH   1  22
TORSDOF 1
ENDMDL
MODEL 6
REMARK VINA RESULT:      -7.3      4.464      6.992
REMARK  1 active torsions:
REMARK  status: ('A' for Active; 'I' for Inactive)
REMARK    1  A    between atoms: N1_1  and  C1_2 
ROOT
HETATM    1  C1  UNL     1      24.159   3.208  53.103  1.00  0.00     0.112 C 
HETATM    2  C2  UNL     1      23.989   1.993  52.349  1.00  0.00    -0.030 C 
HETATM    3  C3  UNL     1      23.566   2.284  51.200  1.00  0.00     0.052 C 
HETATM    4  C4  UNL     1      23.091   2.396  49.869  1.00  0.00    -0.020 C 
HETATM    5  C5  UNL     1      22.943   3.648  49.481  1.00  0.00    -0.025 C 
HETATM    6  C6  UNL     1      22.640   4.802  48.640  1.00  0.00     0.068 C 
HETATM    7  C7  UNL     1      23.923   5.624  48.474  1.00  0.00    -0.025 A 
HETATM    8  C8  UNL     1      23.812   6.737  47.695  1.00  0.00     0.053 A 
HETATM    9  C9  UNL     1      24.864   7.589  47.458  1.00  0.00     0.138 A 
HETATM   10  F1  UNL     1      24.649   8.654  46.677  1.00  0.00    -0.204 F 
HETATM   11  C10 UNL     1      26.112   7.373  47.996  1.00  0.00     0.074 A 
HETATM   12 CL1  UNL     1      27.369   8.503  47.638  1.00  0.00    -0.081 Cl
HETATM   13  C11 UNL     1      26.174   6.228  48.780  1.00  0.00     0.056 A 
HETATM   14  C12 UNL     1      25.163   5.319  49.068  1.00  0.00     0.036 A 
HETATM   15  N2  UNL     1      25.728   4.323  49.888  1.00  0.00    -0.386 N 
HETATM   16  C13 UNL     1      26.561   3.143  49.773  1.00  0.00     0.149 C 
HETATM   17  C14 UNL     1      26.543   2.232  50.919  1.00  0.00     0.017 C 
HETATM   18  C15 UNL     1      26.393   1.520  52.039  1.00  0.00     0.132 C 
HETATM   19  O1  UNL     1      25.839   1.196  53.338  1.00  0.00    -0.359 OA
HETATM   20  C16 UNL     1      24.413   0.750  53.111  1.00  0.00     0.210 C 
HETATM   21  H10 UNL     1      25.375   4.773  50.738  1.00  0.00     0.160 HD
ENDROOT
BRANCH   1  22
HETATM   22  N1  UNL     1      23.986   4.454  52.931  1.00  0.00    -0.312 NA
HETATM   23  H1  UNL     1      24.541   5.249  53.261  1.00  0.00     0.186 HD
ENDBRANCH   1  22
TORSDOF 1
ENDMDL
MODEL 7
REMARK VINA RESULT:      -7.3      5.315      7.001
REMARK  1 active torsions:
REMARK  status: ('A' for Active; 'I' for Inactive)
REMARK    1  A    between atoms: N1_1  and  C1_2 
ROOT
HETATM    1  C1  UNL     1      29.520  10.235  49.069  1.00  0.00     0.112 C 
HETATM    2  C2  UNL     1      29.974  10.078  47.711  1.00  0.00    -0.030 C 
HETATM    3  C3  UNL     1      29.954   8.855  47.414  1.00  0.00     0.052 C 
HETATM    4  C4  UNL     1      30.007   7.541  46.884  1.00  0.00    -0.020 C 
HETATM    5  C5  UNL     1      29.544   6.633  47.720  1.00  0.00    -0.025 C 
HETATM    6  C6  UNL     1      29.147   5.337  48.263  1.00  0.00     0.068 C 
HETATM    7  C7  UNL     1      27.644   5.382  48.560  1.00  0.00    -0.025 A 
HETATM    8  C8  UNL     1      27.109   4.233  49.063  1.00  0.00     0.053 A 
HETATM    9  C9  UNL     1      25.781   4.113  49.395  1.00  0.00     0.138 A 
HETATM   10  F1  UNL     1      25.357   2.940  49.880  1.00  0.00    -0.204 F 
HETATM   11  C10 UNL     1      24.894   5.153  49.240  1.00  0.00     0.074 A 
HETATM   12 CL1  UNL     1      23.244   4.902  49.687  1.00  0.00    -0.081 Cl
HETATM   13  C11 UNL     1      25.486   6.299  48.726  1.00  0.00     0.056 A 
HETATM   14  C12 UNL     1      26.814   6.502  48.366  1.00  0.00     0.036 A 
HETATM   15  N2  UNL     1      26.910   7.821  47.882  1.00  0.00    -0.386 N 
HETATM   16  C13 UNL     1      26.617   8.578  46.681  1.00  0.00     0.149 C 
HETATM   17  C14 UNL     1      27.275   9.882  46.571  1.00  0.00     0.017 C 
HETATM   18  C15 UNL     1      27.963  11.025  46.635  1.00  0.00     0.132 C 
HETATM   19  O1  UNL     1      28.896  11.979  47.200  1.00  0.00    -0.359 OA
HETATM   20  C16 UNL     1      30.280  11.398  47.026  1.00  0.00     0.210 C 
HETATM   21  H10 UNL     1      27.248   8.166  48.785  1.00  0.00     0.160 HD
ENDROOT
BRANCH   1  22
HETATM   22  N1  UNL     1      29.133   9.490  50.023  1.00  0.00    -0.312 NA
HETATM   23  H1  UNL     1      29.620   8.728  50.503  1.00  0.00     0.186 HD
ENDBRANCH   1  22
TORSDOF 1
ENDMDL
MODEL 8
REMARK VINA RESULT:      -7.2      6.087      8.208
REMARK  1 active torsions:
REMARK  status: ('A' for Active; 'I' for Inactive)
REMARK    1  A    between atoms: N1_1  and  C1_2 
ROOT
HETATM    1  C1  UNL     1      25.673   7.803  50.485  1.00  0.00     0.112 C 
HETATM    2  C2  UNL     1      24.949   7.282  49.355  1.00  0.00    -0.030 C 
HETATM    3  C3  UNL     1      25.617   7.497  48.310  1.00  0.00     0.052 C 
HETATM    4  C4  UNL     1      26.204   7.642  47.028  1.00  0.00    -0.020 C 
HETATM    5  C5  UNL     1      27.405   8.185  47.072  1.00  0.00    -0.025 C 
HETATM    6  C6  UNL     1      28.692   8.716  46.635  1.00  0.00     0.068 C 
HETATM    7  C7  UNL     1      29.801   7.875  47.278  1.00  0.00    -0.025 A 
HETATM    8  C8  UNL     1      31.075   8.235  46.955  1.00  0.00     0.053 A 
HETATM    9  C9  UNL     1      32.181   7.593  47.457  1.00  0.00     0.138 A 
HETATM   10  F1  UNL     1      33.388   8.025  47.075  1.00  0.00    -0.204 F 
HETATM   11  C10 UNL     1      32.076   6.533  48.328  1.00  0.00     0.074 A 
HETATM   12 CL1  UNL     1      33.526   5.792  48.903  1.00  0.00    -0.081 Cl
HETATM   13  C11 UNL     1      30.759   6.204  48.625  1.00  0.00     0.056 A 
HETATM   14  C12 UNL     1      29.591   6.800  48.163  1.00  0.00     0.036 A 
HETATM   15  N2  UNL     1      28.516   6.096  48.739  1.00  0.00    -0.386 N 
HETATM   16  C13 UNL     1      27.787   4.856  48.557  1.00  0.00     0.149 C 
HETATM   17  C14 UNL     1      26.480   4.780  49.213  1.00  0.00     0.017 C 
HETATM   18  C15 UNL     1      25.319   4.894  49.864  1.00  0.00     0.132 C 
HETATM   19  O1  UNL     1      24.299   5.564  50.645  1.00  0.00    -0.359 OA
HETATM   20  C16 UNL     1      23.655   6.589  49.741  1.00  0.00     0.210 C 
HETATM   21  H10 UNL     1      28.412   6.793  49.482  1.00  0.00     0.160 HD
ENDROOT
BRANCH   1  22
HETATM   22  N1  UNL     1      26.764   8.417  50.702  1.00  0.00    -0.312 NA
HETATM   23  H1  UNL     1      26.962   9.422  50.722  1.00  0.00     0.186 HD
ENDBRANCH   1  22
TORSDOF 1
ENDMDL
MODEL 9
REMARK VINA RESULT:      -7.1      4.131      6.681
REMARK  1 active torsions:
REMARK  status: ('A' for Active; 'I' for Inactive)
REMARK    1  A    between atoms: N1_1  and  C1_2 
ROOT
HETATM    1  C1  UNL     1      20.222   1.976  52.815  1.00  0.00     0.112 C 
HETATM    2  C2  UNL     1      20.619   0.712  52.250  1.00  0.00    -0.030 C 
HETATM    3  C3  UNL     1      21.019   0.903  51.071  1.00  0.00     0.052 C 
HETATM    4  C4  UNL     1      21.503   0.900  49.739  1.00  0.00    -0.020 C 
HETATM    5  C5  UNL     1      21.592   2.111  49.224  1.00  0.00    -0.025 C 
HETATM    6  C6  UNL     1      21.856   3.186  48.273  1.00  0.00     0.068 C 
HETATM    7  C7  UNL     1      22.917   4.112  48.878  1.00  0.00    -0.025 A 
HETATM    8  C8  UNL     1      23.290   5.168  48.100  1.00  0.00     0.053 A 
HETATM    9  C9  UNL     1      24.218   6.098  48.502  1.00  0.00     0.138 A 
HETATM   10  F1  UNL     1      24.514   7.096  47.661  1.00  0.00    -0.204 F 
HETATM   11  C10 UNL     1      24.839   6.025  49.727  1.00  0.00     0.074 A 
HETATM   12 CL1  UNL     1      25.993   7.244  50.139  1.00  0.00    -0.081 Cl
HETATM   13  C11 UNL     1      24.427   4.934  50.481  1.00  0.00     0.056 A 
HETATM   14  C12 UNL     1      23.499   3.953  50.150  1.00  0.00     0.036 A 
HETATM   15  N2  UNL     1      23.444   3.058  51.236  1.00  0.00    -0.386 N 
HETATM   16  C13 UNL     1      24.200   1.954  51.793  1.00  0.00     0.149 C 
HETATM   17  C14 UNL     1      23.485   1.107  52.750  1.00  0.00     0.017 C 
HETATM   18  C15 UNL     1      22.679   0.444  53.584  1.00  0.00     0.132 C 
HETATM   19  O1  UNL     1      21.434   0.141  54.261  1.00  0.00    -0.359 OA
HETATM   20  C16 UNL     1      20.502  -0.444  53.226  1.00  0.00     0.210 C 
HETATM   21  H10 UNL     1      22.613   3.518  51.619  1.00  0.00     0.160 HD
ENDROOT
BRANCH   1  22
HETATM   22  N1  UNL     1      20.155   3.191  52.450  1.00  0.00    -0.312 NA
HETATM   23  H1  UNL     1      20.848   3.775  51.973  1.00  0.00     0.186 HD
ENDBRANCH   1  22
TORSDOF 1
ENDMDL
