MODEL 1
REMARK VINA RESULT:      -7.8      0.000      0.000
REMARK  9 active torsions:
REMARK  status: ('A' for Active; 'I' for Inactive)
REMARK    1  A    between atoms: N2_5  and  C4_6 
REMARK    2  A    between atoms: C4_6  and  C5_7 
REMARK    3  A    between atoms: C5_7  and  C6_8 
REMARK    4  A    between atoms: C6_8  and  C7_9 
REMARK    5  A    between atoms: C7_9  and  C8_10 
REMARK       I    between atoms: C8_10  and  N3_12 
REMARK    6  A    between atoms: N3_12  and  C9_13 
REMARK    7  A    between atoms: N4_17  and  C13_18 
REMARK    8  A    between atoms: C13_18  and  N5_19 
REMARK    9  A    between atoms: N5_19  and  C14_20 
ROOT
HETATM    1  C9  UNL     1      26.461   2.230  51.774  1.00  0.00     0.127 A 
HETATM    2  C10 UNL     1      25.631   2.414  52.786  1.00  0.00     0.030 A 
HETATM    3  C11 UNL     1      25.261   1.390  53.767  1.00  0.00     0.091 A 
HETATM    4  C12 UNL     1      25.910   0.087  53.505  1.00  0.00     0.051 A 
HETATM    5  N4  UNL     1      25.711  -0.950  54.235  1.00  0.00    -0.273 NA
HETATM    6  C20 UNL     1      26.823  -0.057  52.367  1.00  0.00     0.145 A 
HETATM    7  N6  UNL     1      27.049   0.949  51.596  1.00  0.00    -0.242 NA
ENDROOT
BRANCH   1   8
HETATM    8  N3  UNL     1      26.801   3.263  50.825  1.00  0.00    -0.301 N 
HETATM    9  C8  UNL     1      26.155   3.847  49.695  1.00  0.00     0.302 C 
HETATM   10  O1  UNL     1      25.018   3.489  49.295  1.00  0.00    -0.258 OA
HETATM   11  H12 UNL     1      27.765   3.567  51.155  1.00  0.00     0.171 HD
BRANCH   9  12
HETATM   12  C7  UNL     1      26.917   4.887  49.043  1.00  0.00    -0.005 C 
BRANCH  12  13
HETATM   13  C6  UNL     1      27.562   5.787  48.497  1.00  0.00    -0.095 C 
BRANCH  13  14
HETATM   14  C5  UNL     1      28.309   6.853  47.880  1.00  0.00     0.124 C 
BRANCH  14  15
HETATM   15  C4  UNL     1      29.694   6.488  47.537  1.00  0.00     0.284 C 
BRANCH  15  16
HETATM   16  N2  UNL     1      30.687   7.396  47.951  1.00  0.00     0.092 N 
HETATM   17  C3  UNL     1      31.821   7.392  46.983  1.00  0.00     0.291 C 
HETATM   18  C2  UNL     1      33.070   6.824  47.539  1.00  0.00     0.146 C 
HETATM   19  N1  UNL     1      32.950   5.744  48.458  1.00  0.00    -0.413 N 
HETATM   20  C1  UNL     1      33.055   4.433  47.920  1.00  0.00     0.143 C 
HETATM   21  C22 UNL     1      31.873   5.928  49.418  1.00  0.00     0.146 C 
HETATM   22  C21 UNL     1      31.245   7.294  49.254  1.00  0.00     0.291 C 
ENDBRANCH  15  16
ENDBRANCH  14  15
ENDBRANCH  13  14
ENDBRANCH  12  13
ENDBRANCH   9  12
ENDBRANCH   1   8
BRANCH   5  23
HETATM   23  C13 UNL     1      24.817  -0.870  55.375  1.00  0.00     0.270 C 
BRANCH  23  24
HETATM   24  N5  UNL     1      23.523  -1.453  55.050  1.00  0.00    -0.372 N 
HETATM   25  H18 UNL     1      23.305  -2.426  55.407  1.00  0.00     0.161 HD
BRANCH  24  26
HETATM   26  C14 UNL     1      22.509  -0.848  54.295  1.00  0.00     0.029 A 
HETATM   27  C15 UNL     1      22.458  -0.857  52.900  1.00  0.00     0.032 A 
HETATM   28  C16 UNL     1      21.439  -0.244  52.239  1.00  0.00     0.044 A 
HETATM   29  C17 UNL     1      20.407   0.413  52.865  1.00  0.00     0.116 A 
HETATM   30  F1  UNL     1      19.403   1.015  52.189  1.00  0.00    -0.206 F 
HETATM   31  C18 UNL     1      20.426   0.440  54.239  1.00  0.00     0.044 A 
HETATM   32  C19 UNL     1      21.463  -0.183  54.935  1.00  0.00     0.032 A 
ENDBRANCH  24  26
ENDBRANCH  23  24
ENDBRANCH   5  23
TORSDOF 9
ENDMDL
MODEL 2
REMARK VINA RESULT:      -7.8      2.669      3.946
REMARK  9 active torsions:
REMARK  status: ('A' for Active; 'I' for Inactive)
REMARK    1  A    between atoms: N2_5  and  C4_6 
REMARK    2  A    between atoms: C4_6  and  C5_7 
REMARK    3  A    between atoms: C5_7  and  C6_8 
REMARK    4  A    between atoms: C6_8  and  C7_9 
REMARK    5  A    between atoms: C7_9  and  C8_10 
REMARK       I    between atoms: C8_10  and  N3_12 
REMARK    6  A    between atoms: N3_12  and  C9_13 
REMARK    7  A    between atoms: N4_17  and  C13_18 
REMARK    8  A    between atoms: C13_18  and  N5_19 
REMARK    9  A    between atoms: N5_19  and  C14_20 
ROOT
HETATM    1  C9  UNL     1      25.514   3.794  50.796  1.00  0.00     0.127 A 
HETATM    2  C10 UNL     1      25.861   2.519  50.789  1.00  0.00     0.030 A 
HETATM    3  C11 UNL     1      25.196   1.462  51.556  1.00  0.00     0.091 A 
HETATM    4  C12 UNL     1      24.075   1.971  52.376  1.00  0.00     0.051 A 
HETATM    5  N4  UNL     1      23.367   1.216  53.136  1.00  0.00    -0.273 NA
HETATM    6  C20 UNL     1      23.735   3.398  52.342  1.00  0.00     0.145 A 
HETATM    7  N6  UNL     1      24.419   4.201  51.605  1.00  0.00    -0.242 NA
ENDROOT
BRANCH   1   8
HETATM    8  N3  UNL     1      26.195   4.808  50.027  1.00  0.00    -0.301 N 
HETATM    9  C8  UNL     1      25.820   5.702  48.980  1.00  0.00     0.302 C 
HETATM   10  O1  UNL     1      24.660   5.743  48.496  1.00  0.00    -0.258 OA
HETATM   11  H12 UNL     1      27.179   4.777  50.428  1.00  0.00     0.171 HD
BRANCH   9  12
HETATM   12  C7  UNL     1      26.885   6.562  48.519  1.00  0.00    -0.005 C 
BRANCH  12  13
HETATM   13  C6  UNL     1      27.805   7.291  48.136  1.00  0.00    -0.095 C 
BRANCH  13  14
HETATM   14  C5  UNL     1      28.873   8.158  47.709  1.00  0.00     0.124 C 
BRANCH  14  15
HETATM   15  C4  UNL     1      30.124   7.449  47.388  1.00  0.00     0.284 C 
BRANCH  15  16
HETATM   16  N2  UNL     1      31.283   7.937  48.022  1.00  0.00     0.092 N 
HETATM   17  C3  UNL     1      32.488   7.602  47.211  1.00  0.00     0.291 C 
HETATM   18  C2  UNL     1      33.377   6.609  47.856  1.00  0.00     0.146 C 
HETATM   19  N1  UNL     1      32.767   5.583  48.629  1.00  0.00    -0.413 N 
HETATM   20  C1  UNL     1      32.516   4.349  47.968  1.00  0.00     0.143 C 
HETATM   21  C22 UNL     1      31.674   6.066  49.458  1.00  0.00     0.146 C 
HETATM   22  C21 UNL     1      31.565   7.572  49.366  1.00  0.00     0.291 C 
ENDBRANCH  15  16
ENDBRANCH  14  15
ENDBRANCH  13  14
ENDBRANCH  12  13
ENDBRANCH   9  12
ENDBRANCH   1   8
BRANCH   5  23
HETATM   23  C13 UNL     1      23.656  -0.204  53.212  1.00  0.00     0.270 C 
BRANCH  23  24
HETATM   24  N5  UNL     1      24.642  -0.468  54.250  1.00  0.00    -0.372 N 
HETATM   25  H18 UNL     1      24.301  -0.619  55.243  1.00  0.00     0.161 HD
BRANCH  24  26
HETATM   26  C14 UNL     1      26.030  -0.546  54.074  1.00  0.00     0.029 A 
HETATM   27  C15 UNL     1      26.656  -1.340  53.111  1.00  0.00     0.032 A 
HETATM   28  C16 UNL     1      28.012  -1.362  53.005  1.00  0.00     0.044 A 
HETATM   29  C17 UNL     1      28.854  -0.630  53.807  1.00  0.00     0.116 A 
HETATM   30  F1  UNL     1      30.200  -0.666  53.684  1.00  0.00    -0.206 F 
HETATM   31  C18 UNL     1      28.270   0.163  54.766  1.00  0.00     0.044 A 
HETATM   32  C19 UNL     1      26.881   0.199  54.890  1.00  0.00     0.032 A 
ENDBRANCH  24  26
ENDBRANCH  23  24
ENDBRANCH   5  23
TORSDOF 9
ENDMDL
MODEL 3
REMARK VINA RESULT:      -7.6      3.202      4.794
REMARK  9 active torsions:
REMARK  status: ('A' for Active; 'I' for Inactive)
REMARK    1  A    between atoms: N2_5  and  C4_6 
REMARK    2  A    between atoms: C4_6  and  C5_7 
REMARK    3  A    between atoms: C5_7  and  C6_8 
REMARK    4  A    between atoms: C6_8  and  C7_9 
REMARK    5  A    between atoms: C7_9  and  C8_10 
REMARK       I    between atoms: C8_10  and  N3_12 
REMARK    6  A    between atoms: N3_12  and  C9_13 
REMARK    7  A    between atoms: N4_17  and  C13_18 
REMARK    8  A    between atoms: C13_18  and  N5_19 
REMARK    9  A    between atoms: N5_19  and  C14_20 
ROOT
HETATM    1  C9  UNL     1      25.817   4.401  50.104  1.00  0.00     0.127 A 
HETATM    2  C10 UNL     1      26.255   3.155  50.159  1.00  0.00     0.030 A 
HETATM    3  C11 UNL     1      25.664   2.091  50.975  1.00  0.00     0.091 A 
HETATM    4  C12 UNL     1      24.505   2.555  51.767  1.00  0.00     0.051 A 
HETATM    5  N4  UNL     1      23.849   1.788  52.561  1.00  0.00    -0.273 NA
HETATM    6  C20 UNL     1      24.063   3.950  51.664  1.00  0.00     0.145 A 
HETATM    7  N6  UNL     1      24.691   4.765  50.891  1.00  0.00    -0.242 NA
ENDROOT
BRANCH   1   8
HETATM    8  N3  UNL     1      26.426   5.424  49.289  1.00  0.00    -0.301 N 
HETATM    9  C8  UNL     1      27.639   5.532  48.546  1.00  0.00     0.302 C 
HETATM   10  O1  UNL     1      28.490   4.609  48.485  1.00  0.00    -0.258 OA
HETATM   11  H12 UNL     1      25.714   6.211  49.340  1.00  0.00     0.171 HD
BRANCH   9  12
HETATM   12  C7  UNL     1      27.813   6.795  47.866  1.00  0.00    -0.005 C 
BRANCH  12  13
HETATM   13  C6  UNL     1      27.962   7.866  47.271  1.00  0.00    -0.095 C 
BRANCH  13  14
HETATM   14  C5  UNL     1      28.160   9.110  46.572  1.00  0.00     0.124 C 
BRANCH  14  15
HETATM   15  C4  UNL     1      28.386  10.263  47.461  1.00  0.00     0.284 C 
BRANCH  15  16
HETATM   16  N2  UNL     1      29.622  10.919  47.309  1.00  0.00     0.092 N 
HETATM   17  C3  UNL     1      30.572  10.051  46.556  1.00  0.00     0.291 C 
HETATM   18  C2  UNL     1      31.704   9.563  47.377  1.00  0.00     0.146 C 
HETATM   19  N1  UNL     1      31.447   9.271  48.745  1.00  0.00    -0.413 N 
HETATM   20  C1  UNL     1      31.143   7.918  49.062  1.00  0.00     0.143 C 
HETATM   21  C22 UNL     1      30.595  10.257  49.389  1.00  0.00     0.146 C 
HETATM   22  C21 UNL     1      30.312  11.408  48.450  1.00  0.00     0.291 C 
ENDBRANCH  15  16
ENDBRANCH  14  15
ENDBRANCH  13  14
ENDBRANCH  12  13
ENDBRANCH   9  12
ENDBRANCH   1   8
BRANCH   5  23
HETATM   23  C13 UNL     1      24.240   0.398  52.706  1.00  0.00     0.270 C 
BRANCH  23  24
HETATM   24  N5  UNL     1      25.062   0.221  53.895  1.00  0.00    -0.372 N 
HETATM   25  H18 UNL     1      24.605   0.331  54.844  1.00  0.00     0.161 HD
BRANCH  24  26
HETATM   26  C14 UNL     1      26.429  -0.086  53.918  1.00  0.00     0.029 A 
HETATM   27  C15 UNL     1      27.345   0.478  54.808  1.00  0.00     0.032 A 
HETATM   28  C16 UNL     1      28.659   0.128  54.765  1.00  0.00     0.044 A 
HETATM   29  C17 UNL     1      29.181  -0.779  53.874  1.00  0.00     0.116 A 
HETATM   30  F1  UNL     1      30.491  -1.113  53.849  1.00  0.00    -0.206 F 
HETATM   31  C18 UNL     1      28.306  -1.354  52.983  1.00  0.00     0.044 A 
HETATM   32  C19 UNL     1      26.954  -1.007  53.012  1.00  0.00     0.032 A 
ENDBRANCH  24  26
ENDBRANCH  23  24
ENDBRANCH   5  23
TORSDOF 9
ENDMDL
MODEL 4
REMARK VINA RESULT:      -7.6      3.003      4.538
REMARK  9 active torsions:
REMARK  status: ('A' for Active; 'I' for Inactive)
REMARK    1  A    between atoms: N2_5  and  C4_6 
REMARK    2  A    between atoms: C4_6  and  C5_7 
REMARK    3  A    between atoms: C5_7  and  C6_8 
REMARK    4  A    between atoms: C6_8  and  C7_9 
REMARK    5  A    between atoms: C7_9  and  C8_10 
REMARK       I    between atoms: C8_10  and  N3_12 
REMARK    6  A    between atoms: N3_12  and  C9_13 
REMARK    7  A    between atoms: N4_17  and  C13_18 
REMARK    8  A    between atoms: C13_18  and  N5_19 
REMARK    9  A    between atoms: N5_19  and  C14_20 
ROOT
HETATM    1  C9  UNL     1      26.621   4.583  49.552  1.00  0.00     0.127 A 
HETATM    2  C10 UNL     1      26.651   3.273  49.726  1.00  0.00     0.030 A 
HETATM    3  C11 UNL     1      25.633   2.496  50.438  1.00  0.00     0.091 A 
HETATM    4  C12 UNL     1      24.542   3.339  50.973  1.00  0.00     0.051 A 
HETATM    5  N4  UNL     1      23.555   2.861  51.642  1.00  0.00    -0.273 NA
HETATM    6  C20 UNL     1      24.561   4.788  50.746  1.00  0.00     0.145 A 
HETATM    7  N6  UNL     1      25.532   5.320  50.090  1.00  0.00    -0.242 NA
ENDROOT
BRANCH   1   8
HETATM    8  N3  UNL     1      27.644   5.316  48.845  1.00  0.00    -0.301 N 
HETATM    9  C8  UNL     1      27.690   6.550  48.132  1.00  0.00     0.302 C 
HETATM   10  O1  UNL     1      26.689   7.297  47.989  1.00  0.00    -0.258 OA
HETATM   11  H12 UNL     1      28.494   4.687  48.958  1.00  0.00     0.171 HD
BRANCH   9  12
HETATM   12  C7  UNL     1      28.987   6.875  47.583  1.00  0.00    -0.005 C 
BRANCH  12  13
HETATM   13  C6  UNL     1      30.102   7.149  47.130  1.00  0.00    -0.095 C 
BRANCH  13  14
HETATM   14  C5  UNL     1      31.410   7.477  46.623  1.00  0.00     0.124 C 
BRANCH  14  15
HETATM   15  C4  UNL     1      32.279   6.306  46.414  1.00  0.00     0.284 C 
BRANCH  15  16
HETATM   16  N2  UNL     1      32.497   5.497  47.546  1.00  0.00     0.092 N 
HETATM   17  C3  UNL     1      33.922   5.591  47.974  1.00  0.00     0.291 C 
HETATM   18  C2  UNL     1      34.683   4.336  47.774  1.00  0.00     0.146 C 
HETATM   19  N1  UNL     1      34.361   3.546  46.637  1.00  0.00    -0.413 N 
HETATM   20  C1  UNL     1      35.152   3.751  45.473  1.00  0.00     0.143 C 
HETATM   21  C22 UNL     1      32.931   3.447  46.396  1.00  0.00     0.146 C 
HETATM   22  C21 UNL     1      32.158   4.118  47.510  1.00  0.00     0.291 C 
ENDBRANCH  15  16
ENDBRANCH  14  15
ENDBRANCH  13  14
ENDBRANCH  12  13
ENDBRANCH   9  12
ENDBRANCH   1   8
BRANCH   5  23
HETATM   23  C13 UNL     1      23.482   1.435  51.900  1.00  0.00     0.270 C 
BRANCH  23  24
HETATM   24  N5  UNL     1      24.140   1.109  53.157  1.00  0.00    -0.372 N 
HETATM   25  H18 UNL     1      23.622   1.301  54.061  1.00  0.00     0.161 HD
BRANCH  24  26
HETATM   26  C14 UNL     1      25.419   0.556  53.303  1.00  0.00     0.029 A 
HETATM   27  C15 UNL     1      25.870  -0.573  52.616  1.00  0.00     0.032 A 
HETATM   28  C16 UNL     1      27.128  -1.050  52.815  1.00  0.00     0.044 A 
HETATM   29  C17 UNL     1      28.033  -0.483  53.679  1.00  0.00     0.116 A 
HETATM   30  F1  UNL     1      29.280  -0.973  53.862  1.00  0.00    -0.206 F 
HETATM   31  C18 UNL     1      27.622   0.631  54.371  1.00  0.00     0.044 A 
HETATM   32  C19 UNL     1      26.335   1.136  54.181  1.00  0.00     0.032 A 
ENDBRANCH  24  26
ENDBRANCH  23  24
ENDBRANCH   5  23
TORSDOF 9
ENDMDL
MODEL 5
REMARK VINA RESULT:      -7.5      1.175      1.535
REMARK  9 active torsions:
REMARK  status: ('A' for Active; 'I' for Inactive)
REMARK    1  A    between atoms: N2_5  and  C4_6 
REMARK    2  A    between atoms: C4_6  and  C5_7 
REMARK    3  A    between atoms: C5_7  and  C6_8 
REMARK    4  A    between atoms: C6_8  and  C7_9 
REMARK    5  A    between atoms: C7_9  and  C8_10 
REMARK       I    between atoms: C8_10  and  N3_12 
REMARK    6  A    between atoms: N3_12  and  C9_13 
REMARK    7  A    between atoms: N4_17  and  C13_18 
REMARK    8  A    between atoms: C13_18  and  N5_19 
REMARK    9  A    between atoms: N5_19  and  C14_20 
ROOT
HETATM    1  C9  UNL     1      26.185   2.809  51.191  1.00  0.00     0.127 A 
HETATM    2  C10 UNL     1      25.028   2.893  51.825  1.00  0.00     0.030 A 
HETATM    3  C11 UNL     1      24.468   1.855  52.694  1.00  0.00     0.091 A 
HETATM    4  C12 UNL     1      25.335   0.661  52.789  1.00  0.00     0.051 A 
HETATM    5  N4  UNL     1      25.027  -0.373  53.487  1.00  0.00    -0.273 NA
HETATM    6  C20 UNL     1      26.610   0.625  52.064  1.00  0.00     0.145 A 
HETATM    7  N6  UNL     1      26.963   1.630  51.342  1.00  0.00    -0.242 NA
ENDROOT
BRANCH   1   8
HETATM    8  N3  UNL     1      26.704   3.853  50.340  1.00  0.00    -0.301 N 
HETATM    9  C8  UNL     1      26.159   4.686  49.318  1.00  0.00     0.302 C 
HETATM   10  O1  UNL     1      24.960   4.621  48.949  1.00  0.00    -0.258 OA
HETATM   11  H12 UNL     1      27.721   3.910  50.644  1.00  0.00     0.171 HD
BRANCH   9  12
HETATM   12  C7  UNL     1      27.102   5.615  48.739  1.00  0.00    -0.005 C 
BRANCH  12  13
HETATM   13  C6  UNL     1      27.895   6.419  48.241  1.00  0.00    -0.095 C 
BRANCH  13  14
HETATM   14  C5  UNL     1      28.833   7.338  47.649  1.00  0.00     0.124 C 
BRANCH  14  15
HETATM   15  C4  UNL     1      30.225   6.854  47.653  1.00  0.00     0.284 C 
BRANCH  15  16
HETATM   16  N2  UNL     1      30.964   7.129  48.819  1.00  0.00     0.092 N 
HETATM   17  C3  UNL     1      32.010   8.152  48.532  1.00  0.00     0.291 C 
HETATM   18  C2  UNL     1      33.391   7.620  48.601  1.00  0.00     0.146 C 
HETATM   19  N1  UNL     1      33.603   6.283  48.165  1.00  0.00    -0.413 N 
HETATM   20  C1  UNL     1      34.021   6.109  46.818  1.00  0.00     0.143 C 
HETATM   21  C22 UNL     1      32.564   5.366  48.608  1.00  0.00     0.146 C 
HETATM   22  C21 UNL     1      31.593   6.071  49.528  1.00  0.00     0.291 C 
ENDBRANCH  15  16
ENDBRANCH  14  15
ENDBRANCH  13  14
ENDBRANCH  12  13
ENDBRANCH   9  12
ENDBRANCH   1   8
BRANCH   5  23
HETATM   23  C13 UNL     1      23.778  -0.397  54.226  1.00  0.00     0.270 C 
BRANCH  23  24
HETATM   24  N5  UNL     1      22.785  -1.195  53.522  1.00  0.00    -0.372 N 
HETATM   25  H18 UNL     1      22.988  -2.222  53.358  1.00  0.00     0.161 HD
BRANCH  24  26
HETATM   26  C14 UNL     1      21.557  -0.739  53.025  1.00  0.00     0.029 A 
HETATM   27  C15 UNL     1      20.330  -0.937  53.660  1.00  0.00     0.032 A 
HETATM   28  C16 UNL     1      19.179  -0.464  53.110  1.00  0.00     0.044 A 
HETATM   29  C17 UNL     1      19.126   0.226  51.924  1.00  0.00     0.116 A 
HETATM   30  F1  UNL     1      17.970   0.689  51.395  1.00  0.00    -0.206 F 
HETATM   31  C18 UNL     1      20.316   0.440  51.271  1.00  0.00     0.044 A 
HETATM   32  C19 UNL     1      21.508  -0.038  51.820  1.00  0.00     0.032 A 
ENDBRANCH  24  26
ENDBRANCH  23  24
ENDBRANCH   5  23
TORSDOF 9
ENDMDL
MODEL 6
REMARK VINA RESULT:      -7.5      1.512      2.431
REMARK  9 active torsions:
REMARK  status: ('A' for Active; 'I' for Inactive)
REMARK    1  A    between atoms: N2_5  and  C4_6 
REMARK    2  A    between atoms: C4_6  and  C5_7 
REMARK    3  A    between atoms: C5_7  and  C6_8 
REMARK    4  A    between atoms: C6_8  and  C7_9 
REMARK    5  A    between atoms: C7_9  and  C8_10 
REMARK       I    between atoms: C8_10  and  N3_12 
REMARK    6  A    between atoms: N3_12  and  C9_13 
REMARK    7  A    between atoms: N4_17  and  C13_18 
REMARK    8  A    between atoms: C13_18  and  N5_19 
REMARK    9  A    between atoms: N5_19  and  C14_20 
ROOT
HETATM    1  C9  UNL     1      26.497   2.117  51.883  1.00  0.00     0.127 A 
HETATM    2  C10 UNL     1      25.611   2.328  52.841  1.00  0.00     0.030 A 
HETATM    3  C11 UNL     1      25.211   1.343  53.849  1.00  0.00     0.091 A 
HETATM    4  C12 UNL     1      25.898   0.045  53.684  1.00  0.00     0.051 A 
HETATM    5  N4  UNL     1      25.683  -0.962  54.451  1.00  0.00    -0.273 NA
HETATM    6  C20 UNL     1      26.874  -0.131  52.602  1.00  0.00     0.145 A 
HETATM    7  N6  UNL     1      27.120   0.842  51.798  1.00  0.00    -0.242 NA
ENDROOT
BRANCH   1   8
HETATM    8  N3  UNL     1      26.866   3.112  50.906  1.00  0.00    -0.301 N 
HETATM    9  C8  UNL     1      26.210   3.733  49.802  1.00  0.00     0.302 C 
HETATM   10  O1  UNL     1      25.031   3.460  49.463  1.00  0.00    -0.258 OA
HETATM   11  H12 UNL     1      27.866   3.344  51.183  1.00  0.00     0.171 HD
BRANCH   9  12
HETATM   12  C7  UNL     1      27.015   4.706  49.099  1.00  0.00    -0.005 C 
BRANCH  12  13
HETATM   13  C6  UNL     1      27.709   5.542  48.514  1.00  0.00    -0.095 C 
BRANCH  13  14
HETATM   14  C5  UNL     1      28.541   6.507  47.841  1.00  0.00     0.124 C 
BRANCH  14  15
HETATM   15  C4  UNL     1      28.643   7.798  48.543  1.00  0.00     0.284 C 
BRANCH  15  16
HETATM   16  N2  UNL     1      29.947   8.297  48.719  1.00  0.00     0.092 N 
HETATM   17  C3  UNL     1      29.905   9.587  49.466  1.00  0.00     0.291 C 
HETATM   18  C2  UNL     1      30.299  10.757  48.648  1.00  0.00     0.146 C 
HETATM   19  N1  UNL     1      29.935  10.751  47.273  1.00  0.00    -0.413 N 
HETATM   20  C1  UNL     1      28.724  11.412  46.930  1.00  0.00     0.143 C 
HETATM   21  C22 UNL     1      30.129   9.458  46.637  1.00  0.00     0.146 C 
HETATM   22  C21 UNL     1      30.792   8.491  47.593  1.00  0.00     0.291 C 
ENDBRANCH  15  16
ENDBRANCH  14  15
ENDBRANCH  13  14
ENDBRANCH  12  13
ENDBRANCH   9  12
ENDBRANCH   1   8
BRANCH   5  23
HETATM   23  C13 UNL     1      24.728  -0.849  55.538  1.00  0.00     0.270 C 
BRANCH  23  24
HETATM   24  N5  UNL     1      23.455  -1.448  55.162  1.00  0.00    -0.372 N 
HETATM   25  H18 UNL     1      23.224  -2.414  55.533  1.00  0.00     0.161 HD
BRANCH  24  26
HETATM   26  C14 UNL     1      22.478  -0.870  54.341  1.00  0.00     0.029 A 
HETATM   27  C15 UNL     1      22.484  -0.937  52.946  1.00  0.00     0.032 A 
HETATM   28  C16 UNL     1      21.498  -0.346  52.219  1.00  0.00     0.044 A 
HETATM   29  C17 UNL     1      20.447   0.343  52.773  1.00  0.00     0.116 A 
HETATM   30  F1  UNL     1      19.476   0.922  52.031  1.00  0.00    -0.206 F 
HETATM   31  C18 UNL     1      20.410   0.428  54.145  1.00  0.00     0.044 A 
HETATM   32  C19 UNL     1      21.413  -0.171  54.909  1.00  0.00     0.032 A 
ENDBRANCH  24  26
ENDBRANCH  23  24
ENDBRANCH   5  23
TORSDOF 9
ENDMDL
MODEL 7
REMARK VINA RESULT:      -7.4      2.673      3.579
REMARK  9 active torsions:
REMARK  status: ('A' for Active; 'I' for Inactive)
REMARK    1  A    between atoms: N2_5  and  C4_6 
REMARK    2  A    between atoms: C4_6  and  C5_7 
REMARK    3  A    between atoms: C5_7  and  C6_8 
REMARK    4  A    between atoms: C6_8  and  C7_9 
REMARK    5  A    between atoms: C7_9  and  C8_10 
REMARK       I    between atoms: C8_10  and  N3_12 
REMARK    6  A    between atoms: N3_12  and  C9_13 
REMARK    7  A    between atoms: N4_17  and  C13_18 
REMARK    8  A    between atoms: C13_18  and  N5_19 
REMARK    9  A    between atoms: N5_19  and  C14_20 
ROOT
HETATM    1  C9  UNL     1      24.750   4.004  49.949  1.00  0.00     0.127 A 
HETATM    2  C10 UNL     1      23.880   3.286  49.259  1.00  0.00     0.030 A 
HETATM    3  C11 UNL     1      22.568   2.856  49.749  1.00  0.00     0.091 A 
HETATM    4  C12 UNL     1      22.304   3.297  51.136  1.00  0.00     0.051 A 
HETATM    5  N4  UNL     1      21.220   3.014  51.764  1.00  0.00    -0.273 NA
HETATM    6  C20 UNL     1      23.307   4.093  51.852  1.00  0.00     0.145 A 
HETATM    7  N6  UNL     1      24.416   4.396  51.273  1.00  0.00    -0.242 NA
ENDROOT
BRANCH   1   8
HETATM    8  N3  UNL     1      26.035   4.409  49.432  1.00  0.00    -0.301 N 
HETATM    9  C8  UNL     1      26.534   5.566  48.764  1.00  0.00     0.302 C 
HETATM   10  O1  UNL     1      25.814   6.557  48.479  1.00  0.00    -0.258 OA
HETATM   11  H12 UNL     1      26.649   3.573  49.666  1.00  0.00     0.171 HD
BRANCH   9  12
HETATM   12  C7  UNL     1      27.940   5.508  48.438  1.00  0.00    -0.005 C 
BRANCH  12  13
HETATM   13  C6  UNL     1      29.145   5.463  48.175  1.00  0.00    -0.095 C 
BRANCH  13  14
HETATM   14  C5  UNL     1      30.554   5.388  47.879  1.00  0.00     0.124 C 
BRANCH  14  15
HETATM   15  C4  UNL     1      31.382   6.294  48.694  1.00  0.00     0.284 C 
BRANCH  15  16
HETATM   16  N2  UNL     1      32.348   7.037  47.990  1.00  0.00     0.092 N 
HETATM   17  C3  UNL     1      32.547   6.459  46.630  1.00  0.00     0.291 C 
HETATM   18  C2  UNL     1      33.877   5.836  46.441  1.00  0.00     0.146 C 
HETATM   19  N1  UNL     1      34.458   5.174  47.558  1.00  0.00    -0.413 N 
HETATM   20  C1  UNL     1      34.247   3.770  47.649  1.00  0.00     0.143 C 
HETATM   21  C22 UNL     1      34.286   5.900  48.806  1.00  0.00     0.146 C 
HETATM   22  C21 UNL     1      33.636   7.243  48.553  1.00  0.00     0.291 C 
ENDBRANCH  15  16
ENDBRANCH  14  15
ENDBRANCH  13  14
ENDBRANCH  12  13
ENDBRANCH   9  12
ENDBRANCH   1   8
BRANCH   5  23
HETATM   23  C13 UNL     1      20.191   2.229  51.108  1.00  0.00     0.270 C 
BRANCH  23  24
HETATM   24  N5  UNL     1      20.374   0.813  51.389  1.00  0.00    -0.372 N 
HETATM   25  H18 UNL     1      20.001   0.107  50.691  1.00  0.00     0.161 HD
BRANCH  24  26
HETATM   26  C14 UNL     1      21.006   0.267  52.514  1.00  0.00     0.029 A 
HETATM   27  C15 UNL     1      20.444   0.231  53.792  1.00  0.00     0.032 A 
HETATM   28  C16 UNL     1      21.125  -0.315  54.835  1.00  0.00     0.044 A 
HETATM   29  C17 UNL     1      22.381  -0.860  54.727  1.00  0.00     0.116 A 
HETATM   30  F1  UNL     1      23.040  -1.399  55.777  1.00  0.00    -0.206 F 
HETATM   31  C18 UNL     1      22.965  -0.842  53.482  1.00  0.00     0.044 A 
HETATM   32  C19 UNL     1      22.282  -0.286  52.399  1.00  0.00     0.032 A 
ENDBRANCH  24  26
ENDBRANCH  23  24
ENDBRANCH   5  23
TORSDOF 9
ENDMDL
MODEL 8
REMARK VINA RESULT:      -7.4      2.325      3.357
REMARK  9 active torsions:
REMARK  status: ('A' for Active; 'I' for Inactive)
REMARK    1  A    between atoms: N2_5  and  C4_6 
REMARK    2  A    between atoms: C4_6  and  C5_7 
REMARK    3  A    between atoms: C5_7  and  C6_8 
REMARK    4  A    between atoms: C6_8  and  C7_9 
REMARK    5  A    between atoms: C7_9  and  C8_10 
REMARK       I    between atoms: C8_10  and  N3_12 
REMARK    6  A    between atoms: N3_12  and  C9_13 
REMARK    7  A    between atoms: N4_17  and  C13_18 
REMARK    8  A    between atoms: C13_18  and  N5_19 
REMARK    9  A    between atoms: N5_19  and  C14_20 
ROOT
HETATM    1  C9  UNL     1      26.501   3.901  49.664  1.00  0.00     0.127 A 
HETATM    2  C10 UNL     1      25.239   3.873  49.273  1.00  0.00     0.030 A 
HETATM    3  C11 UNL     1      24.185   3.064  49.890  1.00  0.00     0.091 A 
HETATM    4  C12 UNL     1      24.680   2.245  51.017  1.00  0.00     0.051 A 
HETATM    5  N4  UNL     1      23.924   1.452  51.688  1.00  0.00    -0.273 NA
HETATM    6  C20 UNL     1      26.092   2.319  51.408  1.00  0.00     0.145 A 
HETATM    7  N6  UNL     1      26.895   3.090  50.763  1.00  0.00    -0.242 NA
ENDROOT
BRANCH   1   8
HETATM    8  N3  UNL     1      27.514   4.711  49.030  1.00  0.00    -0.301 N 
HETATM    9  C8  UNL     1      27.556   6.028  48.484  1.00  0.00     0.302 C 
HETATM   10  O1  UNL     1      26.562   6.796  48.470  1.00  0.00    -0.258 OA
HETATM   11  H12 UNL     1      28.358   4.065  49.034  1.00  0.00     0.171 HD
BRANCH   9  12
HETATM   12  C7  UNL     1      28.841   6.410  47.945  1.00  0.00    -0.005 C 
BRANCH  12  13
HETATM   13  C6  UNL     1      29.943   6.720  47.482  1.00  0.00    -0.095 C 
BRANCH  13  14
HETATM   14  C5  UNL     1      31.218   7.101  46.930  1.00  0.00     0.124 C 
BRANCH  14  15
HETATM   15  C4  UNL     1      32.101   5.962  46.627  1.00  0.00     0.284 C 
BRANCH  15  16
HETATM   16  N2  UNL     1      32.474   5.168  47.729  1.00  0.00     0.092 N 
HETATM   17  C3  UNL     1      33.899   5.426  48.084  1.00  0.00     0.291 C 
HETATM   18  C2  UNL     1      34.792   4.274  47.819  1.00  0.00     0.146 C 
HETATM   19  N1  UNL     1      34.505   3.468  46.683  1.00  0.00    -0.413 N 
HETATM   20  C1  UNL     1      35.201   3.783  45.484  1.00  0.00     0.143 C 
HETATM   21  C22 UNL     1      33.085   3.202  46.515  1.00  0.00     0.146 C 
HETATM   22  C21 UNL     1      32.300   3.759  47.681  1.00  0.00     0.291 C 
ENDBRANCH  15  16
ENDBRANCH  14  15
ENDBRANCH  13  14
ENDBRANCH  12  13
ENDBRANCH   9  12
ENDBRANCH   1   8
BRANCH   5  23
HETATM   23  C13 UNL     1      22.519   1.335  51.348  1.00  0.00     0.270 C 
BRANCH  23  24
HETATM   24  N5  UNL     1      21.739   0.969  52.521  1.00  0.00    -0.372 N 
HETATM   25  H18 UNL     1      22.130   1.200  53.479  1.00  0.00     0.161 HD
BRANCH  24  26
HETATM   26  C14 UNL     1      20.494   0.326  52.520  1.00  0.00     0.029 A 
HETATM   27  C15 UNL     1      20.069  -0.565  53.508  1.00  0.00     0.032 A 
HETATM   28  C16 UNL     1      18.844  -1.152  53.433  1.00  0.00     0.044 A 
HETATM   29  C17 UNL     1      17.949  -0.926  52.416  1.00  0.00     0.116 A 
HETATM   30  F1  UNL     1      16.734  -1.519  52.361  1.00  0.00    -0.206 F 
HETATM   31  C18 UNL     1      18.335  -0.053  51.426  1.00  0.00     0.044 A 
HETATM   32  C19 UNL     1      19.588   0.558  51.485  1.00  0.00     0.032 A 
ENDBRANCH  24  26
ENDBRANCH  23  24
ENDBRANCH   5  23
TORSDOF 9
ENDMDL
MODEL 9
REMARK VINA RESULT:      -7.2      2.775      3.894
REMARK  9 active torsions:
REMARK  status: ('A' for Active; 'I' for Inactive)
REMARK    1  A    between atoms: N2_5  and  C4_6 
REMARK    2  A    between atoms: C4_6  and  C5_7 
REMARK    3  A    between atoms: C5_7  and  C6_8 
REMARK    4  A    between atoms: C6_8  and  C7_9 
REMARK    5  A    between atoms: C7_9  and  C8_10 
REMARK       I    between atoms: C8_10  and  N3_12 
REMARK    6  A    between atoms: N3_12  and  C9_13 
REMARK    7  A    between atoms: N4_17  and  C13_18 
REMARK    8  A    between atoms: C13_18  and  N5_19 
REMARK    9  A    between atoms: N5_19  and  C14_20 
ROOT
HETATM    1  C9  UNL     1      24.173   4.308  50.237  1.00  0.00     0.127 A 
HETATM    2  C10 UNL     1      23.252   3.653  49.550  1.00  0.00     0.030 A 
HETATM    3  C11 UNL     1      21.970   3.192  50.090  1.00  0.00     0.091 A 
HETATM    4  C12 UNL     1      21.801   3.522  51.521  1.00  0.00     0.051 A 
HETATM    5  N4  UNL     1      20.757   3.197  52.194  1.00  0.00    -0.273 NA
HETATM    6  C20 UNL     1      22.857   4.253  52.231  1.00  0.00     0.145 A 
HETATM    7  N6  UNL     1      23.929   4.594  51.607  1.00  0.00    -0.242 NA
ENDROOT
BRANCH   1   8
HETATM    8  N3  UNL     1      25.426   4.746  49.671  1.00  0.00    -0.301 N 
HETATM    9  C8  UNL     1      26.649   4.106  49.312  1.00  0.00     0.302 C 
HETATM   10  O1  UNL     1      26.847   2.874  49.461  1.00  0.00    -0.258 OA
HETATM   11  H12 UNL     1      25.268   5.790  49.547  1.00  0.00     0.171 HD
BRANCH   9  12
HETATM   12  C7  UNL     1      27.648   4.992  48.760  1.00  0.00    -0.005 C 
BRANCH  12  13
HETATM   13  C6  UNL     1      28.504   5.739  48.277  1.00  0.00    -0.095 C 
BRANCH  13  14
HETATM   14  C5  UNL     1      29.487   6.614  47.692  1.00  0.00     0.124 C 
BRANCH  14  15
HETATM   15  C4  UNL     1      30.840   6.450  48.253  1.00  0.00     0.284 C 
BRANCH  15  16
HETATM   16  N2  UNL     1      31.264   7.464  49.132  1.00  0.00     0.092 N 
HETATM   17  C3  UNL     1      30.362   8.647  49.020  1.00  0.00     0.291 C 
HETATM   18  C2  UNL     1      31.016   9.834  48.422  1.00  0.00     0.146 C 
HETATM   19  N1  UNL     1      31.979   9.609  47.399  1.00  0.00    -0.413 N 
HETATM   20  C1  UNL     1      31.513   9.674  46.058  1.00  0.00     0.143 C 
HETATM   21  C22 UNL     1      32.866   8.493  47.686  1.00  0.00     0.146 C 
HETATM   22  C21 UNL     1      32.599   7.946  49.071  1.00  0.00     0.291 C 
ENDBRANCH  15  16
ENDBRANCH  14  15
ENDBRANCH  13  14
ENDBRANCH  12  13
ENDBRANCH   9  12
ENDBRANCH   1   8
BRANCH   5  23
HETATM   23  C13 UNL     1      19.679   2.472  51.546  1.00  0.00     0.270 C 
BRANCH  23  24
HETATM   24  N5  UNL     1      19.655   1.087  51.994  1.00  0.00    -0.372 N 
HETATM   25  H18 UNL     1      18.854   0.469  51.678  1.00  0.00     0.161 HD
BRANCH  24  26
HETATM   26  C14 UNL     1      20.602   0.467  52.819  1.00  0.00     0.029 A 
HETATM   27  C15 UNL     1      20.482   0.355  54.206  1.00  0.00     0.032 A 
HETATM   28  C16 UNL     1      21.449  -0.260  54.939  1.00  0.00     0.044 A 
HETATM   29  C17 UNL     1      22.587  -0.807  54.398  1.00  0.00     0.116 A 
HETATM   30  F1  UNL     1      23.536  -1.416  55.145  1.00  0.00    -0.206 F 
HETATM   31  C18 UNL     1      22.738  -0.714  53.035  1.00  0.00     0.044 A 
HETATM   32  C19 UNL     1      21.757  -0.086  52.266  1.00  0.00     0.032 A 
ENDBRANCH  24  26
ENDBRANCH  23  24
ENDBRANCH   5  23
TORSDOF 9
ENDMDL
