MODEL 1
REMARK VINA RESULT:      -8.7      0.000      0.000
REMARK  4 active torsions:
REMARK  status: ('A' for Active; 'I' for Inactive)
REMARK    1  A    between atoms: C2_2  and  O1_3 
REMARK    2  A    between atoms: O1_3  and  C3_4 
REMARK    3  A    between atoms: C7_10  and  N3_11 
REMARK    4  A    between atoms: N3_11  and  C8_12 
ROOT
HETATM    1  C3  UNL     1      19.716  -0.147  52.753  1.00  0.00     0.107 A 
HETATM    2  C4  UNL     1      20.151  -0.877  53.840  1.00  0.00     0.072 A 
HETATM    3  C5  UNL     1      21.487  -0.860  54.100  1.00  0.00     0.077 A 
HETATM    4  N1  UNL     1      21.957  -1.550  55.138  1.00  0.00    -0.241 NA
HETATM    5  C6  UNL     1      23.269  -1.545  55.406  1.00  0.00     0.236 A 
HETATM    6  N2  UNL     1      24.148  -0.862  54.660  1.00  0.00    -0.223 NA
HETATM    7  C7  UNL     1      23.743  -0.147  53.601  1.00  0.00     0.144 A 
HETATM    8  C14 UNL     1      22.402  -0.164  53.344  1.00  0.00     0.075 A 
HETATM    9  C15 UNL     1      21.950   0.557  52.266  1.00  0.00     0.121 A 
HETATM   10  C16 UNL     1      20.608   0.562  51.974  1.00  0.00     0.136 A 
HETATM   11  O2  UNL     1      20.112   1.282  50.888  1.00  0.00    -0.344 OA
HETATM   12  C17 UNL     1      20.956   1.938  49.963  1.00  0.00     0.202 C 
HETATM   13  C18 UNL     1      22.385   1.434  50.077  1.00  0.00     0.202 C 
HETATM   14  O3  UNL     1      22.764   1.295  51.433  1.00  0.00    -0.345 OA
ENDROOT
BRANCH   7  15
HETATM   15  N3  UNL     1      24.738   0.542  52.864  1.00  0.00    -0.340 N 
HETATM   16  H8  UNL     1      24.823   1.279  52.144  1.00  0.00     0.167 HD
BRANCH  15  17
HETATM   17  C8  UNL     1      26.113   0.228  53.082  1.00  0.00     0.035 A 
HETATM   18  C9  UNL     1      26.757  -0.986  52.796  1.00  0.00     0.032 A 
HETATM   19  C10 UNL     1      28.083  -1.246  53.002  1.00  0.00     0.046 A 
HETATM   20  C11 UNL     1      28.883  -0.254  53.531  1.00  0.00     0.138 A 
HETATM   21  F1  UNL     1      30.175  -0.582  53.705  1.00  0.00    -0.204 F 
HETATM   22  C12 UNL     1      28.315   0.965  53.835  1.00  0.00     0.074 A 
HETATM   23 CL1  UNL     1      29.426   2.135  54.498  1.00  0.00    -0.081 Cl
HETATM   24  C13 UNL     1      26.970   1.178  53.608  1.00  0.00     0.056 A 
ENDBRANCH  15  17
ENDBRANCH   7  15
BRANCH   1  25
HETATM   25  O1  UNL     1      18.372  -0.107  52.415  1.00  0.00    -0.348 OA
BRANCH  25  26
HETATM   26  C2  UNL     1      17.433  -1.105  52.659  1.00  0.00     0.171 C 
HETATM   27  C1  UNL     1      16.004  -0.667  52.639  1.00  0.00     0.034 C 
ENDBRANCH  25  26
ENDBRANCH   1  25
TORSDOF 4
ENDMDL
MODEL 2
REMARK VINA RESULT:      -8.4      1.940      3.468
REMARK  4 active torsions:
REMARK  status: ('A' for Active; 'I' for Inactive)
REMARK    1  A    between atoms: C2_2  and  O1_3 
REMARK    2  A    between atoms: O1_3  and  C3_4 
REMARK    3  A    between atoms: C7_10  and  N3_11 
REMARK    4  A    between atoms: N3_11  and  C8_12 
ROOT
HETATM    1  C3  UNL     1      21.077   0.445  51.396  1.00  0.00     0.107 A 
HETATM    2  C4  UNL     1      21.735   1.432  50.694  1.00  0.00     0.072 A 
HETATM    3  C5  UNL     1      22.954   1.815  51.164  1.00  0.00     0.077 A 
HETATM    4  N1  UNL     1      23.629   2.766  50.520  1.00  0.00    -0.241 NA
HETATM    5  C6  UNL     1      24.829   3.155  50.971  1.00  0.00     0.236 A 
HETATM    6  N2  UNL     1      25.391   2.618  52.062  1.00  0.00    -0.223 NA
HETATM    7  C7  UNL     1      24.766   1.657  52.756  1.00  0.00     0.144 A 
HETATM    8  C14 UNL     1      23.544   1.274  52.282  1.00  0.00     0.075 A 
HETATM    9  C15 UNL     1      22.874   0.292  52.968  1.00  0.00     0.121 A 
HETATM   10  C16 UNL     1      21.641  -0.119  52.522  1.00  0.00     0.136 A 
HETATM   11  O2  UNL     1      20.930  -1.114  53.192  1.00  0.00    -0.344 OA
HETATM   12  C17 UNL     1      21.367  -1.664  54.419  1.00  0.00     0.202 C 
HETATM   13  C18 UNL     1      22.428  -0.786  55.063  1.00  0.00     0.202 C 
HETATM   14  O3  UNL     1      23.358  -0.329  54.100  1.00  0.00    -0.345 OA
ENDROOT
BRANCH   7  15
HETATM   15  N3  UNL     1      25.429   1.147  53.900  1.00  0.00    -0.340 N 
HETATM   16  H8  UNL     1      25.256   0.970  54.903  1.00  0.00     0.167 HD
BRANCH  15  17
HETATM   17  C8  UNL     1      26.775   0.686  53.782  1.00  0.00     0.035 A 
HETATM   18  C9  UNL     1      27.945   1.438  53.973  1.00  0.00     0.032 A 
HETATM   19  C10 UNL     1      29.220   0.957  53.868  1.00  0.00     0.046 A 
HETATM   20  C11 UNL     1      29.407  -0.372  53.551  1.00  0.00     0.138 A 
HETATM   21  F1  UNL     1      30.688  -0.773  53.466  1.00  0.00    -0.204 F 
HETATM   22  C12 UNL     1      28.301  -1.170  53.351  1.00  0.00     0.074 A 
HETATM   23 CL1  UNL     1      28.667  -2.829  52.956  1.00  0.00    -0.081 Cl
HETATM   24  C13 UNL     1      27.033  -0.637  53.468  1.00  0.00     0.056 A 
ENDBRANCH  15  17
ENDBRANCH   7  15
BRANCH   1  25
HETATM   25  O1  UNL     1      19.831  -0.007  50.990  1.00  0.00    -0.348 OA
BRANCH  25  26
HETATM   26  C2  UNL     1      18.604   0.567  51.309  1.00  0.00     0.171 C 
HETATM   27  C1  UNL     1      17.544  -0.383  51.765  1.00  0.00     0.034 C 
ENDBRANCH  25  26
ENDBRANCH   1  25
TORSDOF 4
ENDMDL
MODEL 3
REMARK VINA RESULT:      -8.3      2.061      2.483
REMARK  4 active torsions:
REMARK  status: ('A' for Active; 'I' for Inactive)
REMARK    1  A    between atoms: C2_2  and  O1_3 
REMARK    2  A    between atoms: O1_3  and  C3_4 
REMARK    3  A    between atoms: C7_10  and  N3_11 
REMARK    4  A    between atoms: N3_11  and  C8_12 
ROOT
HETATM    1  C3  UNL     1      20.468   2.533  52.402  1.00  0.00     0.107 A 
HETATM    2  C4  UNL     1      20.508   1.518  53.334  1.00  0.00     0.072 A 
HETATM    3  C5  UNL     1      21.667   0.810  53.425  1.00  0.00     0.077 A 
HETATM    4  N1  UNL     1      21.756  -0.182  54.310  1.00  0.00    -0.241 NA
HETATM    5  C6  UNL     1      22.889  -0.889  54.410  1.00  0.00     0.236 A 
HETATM    6  N2  UNL     1      23.958  -0.638  53.643  1.00  0.00    -0.223 NA
HETATM    7  C7  UNL     1      23.937   0.345  52.733  1.00  0.00     0.144 A 
HETATM    8  C14 UNL     1      22.773   1.055  52.645  1.00  0.00     0.075 A 
HETATM    9  C15 UNL     1      22.714   2.070  51.723  1.00  0.00     0.121 A 
HETATM   10  C16 UNL     1      21.560   2.806  51.604  1.00  0.00     0.136 A 
HETATM   11  O2  UNL     1      21.462   3.844  50.678  1.00  0.00    -0.344 OA
HETATM   12  C17 UNL     1      22.479   4.119  49.736  1.00  0.00     0.202 C 
HETATM   13  C18 UNL     1      23.439   2.947  49.612  1.00  0.00     0.202 C 
HETATM   14  O3  UNL     1      23.753   2.415  50.884  1.00  0.00    -0.345 OA
ENDROOT
BRANCH   7  15
HETATM   15  N3  UNL     1      25.109   0.541  51.961  1.00  0.00    -0.340 N 
HETATM   16  H8  UNL     1      25.416   0.547  50.975  1.00  0.00     0.167 HD
BRANCH  15  17
HETATM   17  C8  UNL     1      26.340   0.838  52.620  1.00  0.00     0.035 A 
HETATM   18  C9  UNL     1      26.721   2.067  53.181  1.00  0.00     0.032 A 
HETATM   19  C10 UNL     1      27.904   2.310  53.822  1.00  0.00     0.046 A 
HETATM   20  C11 UNL     1      28.819   1.285  53.946  1.00  0.00     0.138 A 
HETATM   21  F1  UNL     1      29.957   1.599  54.588  1.00  0.00    -0.204 F 
HETATM   22  C12 UNL     1      28.508   0.050  53.418  1.00  0.00     0.074 A 
HETATM   23 CL1  UNL     1      29.744  -1.161  53.637  1.00  0.00    -0.081 Cl
HETATM   24  C13 UNL     1      27.300  -0.145  52.779  1.00  0.00     0.056 A 
ENDBRANCH  15  17
ENDBRANCH   7  15
BRANCH   1  25
HETATM   25  O1  UNL     1      19.328   3.306  52.241  1.00  0.00    -0.348 OA
BRANCH  25  26
HETATM   26  C2  UNL     1      18.172   2.935  51.561  1.00  0.00     0.171 C 
HETATM   27  C1  UNL     1      17.174   4.025  51.338  1.00  0.00     0.034 C 
ENDBRANCH  25  26
ENDBRANCH   1  25
TORSDOF 4
ENDMDL
MODEL 4
REMARK VINA RESULT:      -8.2      4.276      7.413
REMARK  4 active torsions:
REMARK  status: ('A' for Active; 'I' for Inactive)
REMARK    1  A    between atoms: C2_2  and  O1_3 
REMARK    2  A    between atoms: O1_3  and  C3_4 
REMARK    3  A    between atoms: C7_10  and  N3_11 
REMARK    4  A    between atoms: N3_11  and  C8_12 
ROOT
HETATM    1  C3  UNL     1      26.591   0.638  54.222  1.00  0.00     0.107 A 
HETATM    2  C4  UNL     1      25.771  -0.159  54.994  1.00  0.00     0.072 A 
HETATM    3  C5  UNL     1      24.518  -0.396  54.520  1.00  0.00     0.077 A 
HETATM    4  N1  UNL     1      23.688  -1.161  55.229  1.00  0.00    -0.241 NA
HETATM    5  C6  UNL     1      22.451  -1.402  54.777  1.00  0.00     0.236 A 
HETATM    6  N2  UNL     1      22.002  -0.898  53.620  1.00  0.00    -0.223 NA
HETATM    7  C7  UNL     1      22.784  -0.121  52.857  1.00  0.00     0.144 A 
HETATM    8  C14 UNL     1      24.042   0.113  53.334  1.00  0.00     0.075 A 
HETATM    9  C15 UNL     1      24.872   0.905  52.580  1.00  0.00     0.121 A 
HETATM   10  C16 UNL     1      26.144   1.166  53.028  1.00  0.00     0.136 A 
HETATM   11  O2  UNL     1      27.016   1.966  52.290  1.00  0.00    -0.344 OA
HETATM   12  C17 UNL     1      26.613   2.648  51.119  1.00  0.00     0.202 C 
HETATM   13  C18 UNL     1      25.097   2.713  51.021  1.00  0.00     0.202 C 
HETATM   14  O3  UNL     1      24.515   1.474  51.376  1.00  0.00    -0.345 OA
ENDROOT
BRANCH   7  15
HETATM   15  N3  UNL     1      22.229   0.374  51.651  1.00  0.00    -0.340 N 
HETATM   16  H8  UNL     1      22.346   0.280  50.629  1.00  0.00     0.167 HD
BRANCH  15  17
HETATM   17  C8  UNL     1      21.150   1.306  51.707  1.00  0.00     0.035 A 
HETATM   18  C9  UNL     1      21.214   2.647  52.118  1.00  0.00     0.032 A 
HETATM   19  C10 UNL     1      20.161   3.518  52.142  1.00  0.00     0.046 A 
HETATM   20  C11 UNL     1      18.920   3.075  51.735  1.00  0.00     0.138 A 
HETATM   21  F1  UNL     1      17.933   3.987  51.786  1.00  0.00    -0.204 F 
HETATM   22  C12 UNL     1      18.785   1.768  51.318  1.00  0.00     0.074 A 
HETATM   23 CL1  UNL     1      17.170   1.328  50.829  1.00  0.00    -0.081 Cl
HETATM   24  C13 UNL     1      19.880   0.927  51.312  1.00  0.00     0.056 A 
ENDBRANCH  15  17
ENDBRANCH   7  15
BRANCH   1  25
HETATM   25  O1  UNL     1      27.884   0.932  54.628  1.00  0.00    -0.348 OA
BRANCH  25  26
HETATM   26  C2  UNL     1      28.927   0.022  54.774  1.00  0.00     0.171 C 
HETATM   27  C1  UNL     1      29.301  -0.735  53.540  1.00  0.00     0.034 C 
ENDBRANCH  25  26
ENDBRANCH   1  25
TORSDOF 4
ENDMDL
MODEL 5
REMARK VINA RESULT:      -8.2      4.590      7.882
REMARK  4 active torsions:
REMARK  status: ('A' for Active; 'I' for Inactive)
REMARK    1  A    between atoms: C2_2  and  O1_3 
REMARK    2  A    between atoms: O1_3  and  C3_4 
REMARK    3  A    between atoms: C7_10  and  N3_11 
REMARK    4  A    between atoms: N3_11  and  C8_12 
ROOT
HETATM    1  C3  UNL     1      27.355   0.332  53.736  1.00  0.00     0.107 A 
HETATM    2  C4  UNL     1      27.751   1.237  52.773  1.00  0.00     0.072 A 
HETATM    3  C5  UNL     1      26.766   1.896  52.105  1.00  0.00     0.077 A 
HETATM    4  N1  UNL     1      27.098   2.781  51.165  1.00  0.00    -0.241 NA
HETATM    5  C6  UNL     1      26.140   3.437  50.497  1.00  0.00     0.236 A 
HETATM    6  N2  UNL     1      24.837   3.239  50.737  1.00  0.00    -0.223 NA
HETATM    7  C7  UNL     1      24.434   2.363  51.670  1.00  0.00     0.144 A 
HETATM    8  C14 UNL     1      25.425   1.704  52.340  1.00  0.00     0.075 A 
HETATM    9  C15 UNL     1      25.050   0.799  53.302  1.00  0.00     0.121 A 
HETATM   10  C16 UNL     1      26.018   0.115  53.996  1.00  0.00     0.136 A 
HETATM   11  O2  UNL     1      25.676  -0.812  54.980  1.00  0.00    -0.344 OA
HETATM   12  C17 UNL     1      24.338  -1.191  55.234  1.00  0.00     0.202 C 
HETATM   13  C18 UNL     1      23.429  -0.785  54.085  1.00  0.00     0.202 C 
HETATM   14  O3  UNL     1      23.741   0.518  53.632  1.00  0.00    -0.345 OA
ENDROOT
BRANCH   7  15
HETATM   15  N3  UNL     1      23.038   2.212  51.857  1.00  0.00    -0.340 N 
HETATM   16  H8  UNL     1      22.353   2.052  52.614  1.00  0.00     0.167 HD
BRANCH  15  17
HETATM   17  C8  UNL     1      22.168   2.284  50.728  1.00  0.00     0.035 A 
HETATM   18  C9  UNL     1      22.045   1.341  49.696  1.00  0.00     0.032 A 
HETATM   19  C10 UNL     1      21.185   1.436  48.637  1.00  0.00     0.046 A 
HETATM   20  C11 UNL     1      20.357   2.535  48.546  1.00  0.00     0.138 A 
HETATM   21  F1  UNL     1      19.540   2.559  47.479  1.00  0.00    -0.204 F 
HETATM   22  C12 UNL     1      20.425   3.501  49.528  1.00  0.00     0.074 A 
HETATM   23 CL1  UNL     1      19.330   4.839  49.302  1.00  0.00    -0.081 Cl
HETATM   24  C13 UNL     1      21.310   3.359  50.578  1.00  0.00     0.056 A 
ENDBRANCH  15  17
ENDBRANCH   7  15
BRANCH   1  25
HETATM   25  O1  UNL     1      28.291  -0.385  54.466  1.00  0.00    -0.348 OA
BRANCH  25  26
HETATM   26  C2  UNL     1      29.427  -1.009  53.959  1.00  0.00     0.171 C 
HETATM   27  C1  UNL     1      29.182  -2.254  53.168  1.00  0.00     0.034 C 
ENDBRANCH  25  26
ENDBRANCH   1  25
TORSDOF 4
ENDMDL
MODEL 6
REMARK VINA RESULT:      -7.9      2.710      3.705
REMARK  4 active torsions:
REMARK  status: ('A' for Active; 'I' for Inactive)
REMARK    1  A    between atoms: C2_2  and  O1_3 
REMARK    2  A    between atoms: O1_3  and  C3_4 
REMARK    3  A    between atoms: C7_10  and  N3_11 
REMARK    4  A    between atoms: N3_11  and  C8_12 
ROOT
HETATM    1  C3  UNL     1      22.118   2.015  49.550  1.00  0.00     0.107 A 
HETATM    2  C4  UNL     1      21.645   0.989  50.341  1.00  0.00     0.072 A 
HETATM    3  C5  UNL     1      22.340   0.716  51.478  1.00  0.00     0.077 A 
HETATM    4  N1  UNL     1      21.922  -0.266  52.276  1.00  0.00    -0.241 NA
HETATM    5  C6  UNL     1      22.596  -0.548  53.398  1.00  0.00     0.236 A 
HETATM    6  N2  UNL     1      23.694   0.128  53.761  1.00  0.00    -0.223 NA
HETATM    7  C7  UNL     1      24.169   1.128  53.005  1.00  0.00     0.144 A 
HETATM    8  C14 UNL     1      23.468   1.401  51.865  1.00  0.00     0.075 A 
HETATM    9  C15 UNL     1      23.925   2.418  51.065  1.00  0.00     0.121 A 
HETATM   10  C16 UNL     1      23.248   2.722  49.908  1.00  0.00     0.136 A 
HETATM   11  O2  UNL     1      23.682   3.748  49.070  1.00  0.00    -0.344 OA
HETATM   12  C17 UNL     1      24.892   4.446  49.288  1.00  0.00     0.202 C 
HETATM   13  C18 UNL     1      25.789   3.691  50.256  1.00  0.00     0.202 C 
HETATM   14  O3  UNL     1      25.042   3.179  51.342  1.00  0.00    -0.345 OA
ENDROOT
BRANCH   7  15
HETATM   15  N3  UNL     1      25.338   1.788  53.460  1.00  0.00    -0.340 N 
HETATM   16  H8  UNL     1      25.634   2.700  53.843  1.00  0.00     0.167 HD
BRANCH  15  17
HETATM   17  C8  UNL     1      26.583   1.091  53.449  1.00  0.00     0.035 A 
HETATM   18  C9  UNL     1      27.847   1.617  53.765  1.00  0.00     0.032 A 
HETATM   19  C10 UNL     1      29.019   0.914  53.761  1.00  0.00     0.046 A 
HETATM   20  C11 UNL     1      28.993  -0.424  53.425  1.00  0.00     0.138 A 
HETATM   21  F1  UNL     1      30.183  -1.049  53.444  1.00  0.00    -0.204 F 
HETATM   22  C12 UNL     1      27.785  -1.005  53.105  1.00  0.00     0.074 A 
HETATM   23 CL1  UNL     1      27.883  -2.699  52.698  1.00  0.00    -0.081 Cl
HETATM   24  C13 UNL     1      26.628  -0.252  53.124  1.00  0.00     0.056 A 
ENDBRANCH  15  17
ENDBRANCH   7  15
BRANCH   1  25
HETATM   25  O1  UNL     1      21.473   2.362  48.373  1.00  0.00    -0.348 OA
BRANCH  25  26
HETATM   26  C2  UNL     1      20.150   2.778  48.252  1.00  0.00     0.171 C 
HETATM   27  C1  UNL     1      19.941   4.256  48.184  1.00  0.00     0.034 C 
ENDBRANCH  25  26
ENDBRANCH   1  25
TORSDOF 4
ENDMDL
MODEL 7
REMARK VINA RESULT:      -7.9      2.312      4.184
REMARK  4 active torsions:
REMARK  status: ('A' for Active; 'I' for Inactive)
REMARK    1  A    between atoms: C2_2  and  O1_3 
REMARK    2  A    between atoms: O1_3  and  C3_4 
REMARK    3  A    between atoms: C7_10  and  N3_11 
REMARK    4  A    between atoms: N3_11  and  C8_12 
ROOT
HETATM    1  C3  UNL     1      22.024   2.122  49.529  1.00  0.00     0.107 A 
HETATM    2  C4  UNL     1      23.082   2.856  49.034  1.00  0.00     0.072 A 
HETATM    3  C5  UNL     1      24.225   2.865  49.772  1.00  0.00     0.077 A 
HETATM    4  N1  UNL     1      25.275   3.561  49.337  1.00  0.00    -0.241 NA
HETATM    5  C6  UNL     1      26.407   3.581  50.053  1.00  0.00     0.236 A 
HETATM    6  N2  UNL     1      26.532   2.918  51.211  1.00  0.00    -0.223 NA
HETATM    7  C7  UNL     1      25.515   2.199  51.706  1.00  0.00     0.144 A 
HETATM    8  C14 UNL     1      24.369   2.190  50.962  1.00  0.00     0.075 A 
HETATM    9  C15 UNL     1      23.306   1.464  51.438  1.00  0.00     0.121 A 
HETATM   10  C16 UNL     1      22.136   1.433  50.719  1.00  0.00     0.136 A 
HETATM   11  O2  UNL     1      21.034   0.708  51.171  1.00  0.00    -0.344 OA
HETATM   12  C17 UNL     1      21.010   0.072  52.433  1.00  0.00     0.202 C 
HETATM   13  C18 UNL     1      22.114   0.603  53.333  1.00  0.00     0.202 C 
HETATM   14  O3  UNL     1      23.325   0.746  52.615  1.00  0.00    -0.345 OA
ENDROOT
BRANCH   7  15
HETATM   15  N3  UNL     1      25.730   1.532  52.938  1.00  0.00    -0.340 N 
HETATM   16  H8  UNL     1      25.458   1.598  53.932  1.00  0.00     0.167 HD
BRANCH  15  17
HETATM   17  C8  UNL     1      26.568   0.377  52.972  1.00  0.00     0.035 A 
HETATM   18  C9  UNL     1      26.203  -0.940  52.653  1.00  0.00     0.032 A 
HETATM   19  C10 UNL     1      27.039  -2.021  52.680  1.00  0.00     0.046 A 
HETATM   20  C11 UNL     1      28.357  -1.836  53.045  1.00  0.00     0.138 A 
HETATM   21  F1  UNL     1      29.118  -2.944  53.048  1.00  0.00    -0.204 F 
HETATM   22  C12 UNL     1      28.784  -0.566  53.371  1.00  0.00     0.074 A 
HETATM   23 CL1  UNL     1      30.467  -0.462  53.816  1.00  0.00    -0.081 Cl
HETATM   24  C13 UNL     1      27.900   0.493  53.328  1.00  0.00     0.056 A 
ENDBRANCH  15  17
ENDBRANCH   7  15
BRANCH   1  25
HETATM   25  O1  UNL     1      20.821   2.056  48.842  1.00  0.00    -0.348 OA
BRANCH  25  26
HETATM   26  C2  UNL     1      19.910   3.096  48.679  1.00  0.00     0.171 C 
HETATM   27  C1  UNL     1      18.479   2.747  48.933  1.00  0.00     0.034 C 
ENDBRANCH  25  26
ENDBRANCH   1  25
TORSDOF 4
ENDMDL
MODEL 8
REMARK VINA RESULT:      -7.9      4.580      7.367
REMARK  4 active torsions:
REMARK  status: ('A' for Active; 'I' for Inactive)
REMARK    1  A    between atoms: C2_2  and  O1_3 
REMARK    2  A    between atoms: O1_3  and  C3_4 
REMARK    3  A    between atoms: C7_10  and  N3_11 
REMARK    4  A    between atoms: N3_11  and  C8_12 
ROOT
HETATM    1  C3  UNL     1      25.925   3.969  49.846  1.00  0.00     0.107 A 
HETATM    2  C4  UNL     1      26.589   2.818  50.216  1.00  0.00     0.072 A 
HETATM    3  C5  UNL     1      25.996   2.041  51.163  1.00  0.00     0.077 A 
HETATM    4  N1  UNL     1      26.598   0.919  51.554  1.00  0.00    -0.241 NA
HETATM    5  C6  UNL     1      26.028   0.144  52.485  1.00  0.00     0.236 A 
HETATM    6  N2  UNL     1      24.855   0.455  53.053  1.00  0.00    -0.223 NA
HETATM    7  C7  UNL     1      24.196   1.569  52.706  1.00  0.00     0.144 A 
HETATM    8  C14 UNL     1      24.792   2.346  51.755  1.00  0.00     0.075 A 
HETATM    9  C15 UNL     1      24.146   3.496  51.374  1.00  0.00     0.121 A 
HETATM   10  C16 UNL     1      24.716   4.304  50.421  1.00  0.00     0.136 A 
HETATM   11  O2  UNL     1      24.090   5.480  50.009  1.00  0.00    -0.344 OA
HETATM   12  C17 UNL     1      22.914   5.969  50.623  1.00  0.00     0.202 C 
HETATM   13  C18 UNL     1      22.683   5.300  51.968  1.00  0.00     0.202 C 
HETATM   14  O3  UNL     1      22.937   3.911  51.891  1.00  0.00    -0.345 OA
ENDROOT
BRANCH   7  15
HETATM   15  N3  UNL     1      22.963   1.824  53.358  1.00  0.00    -0.340 N 
HETATM   16  H8  UNL     1      22.462   2.593  53.832  1.00  0.00     0.167 HD
BRANCH  15  17
HETATM   17  C8  UNL     1      22.001   0.776  53.470  1.00  0.00     0.035 A 
HETATM   18  C9  UNL     1      22.013  -0.287  54.388  1.00  0.00     0.032 A 
HETATM   19  C10 UNL     1      21.062  -1.264  54.477  1.00  0.00     0.046 A 
HETATM   20  C11 UNL     1      19.989  -1.233  53.611  1.00  0.00     0.138 A 
HETATM   21  F1  UNL     1      19.095  -2.226  53.759  1.00  0.00    -0.204 F 
HETATM   22  C12 UNL     1      19.913  -0.215  52.684  1.00  0.00     0.074 A 
HETATM   23 CL1  UNL     1      18.513  -0.285  51.646  1.00  0.00    -0.081 Cl
HETATM   24  C13 UNL     1      20.900   0.749  52.633  1.00  0.00     0.056 A 
ENDBRANCH  15  17
ENDBRANCH   7  15
BRANCH   1  25
HETATM   25  O1  UNL     1      26.455   4.821  48.889  1.00  0.00    -0.348 OA
BRANCH  25  26
HETATM   26  C2  UNL     1      27.806   4.989  48.596  1.00  0.00     0.171 C 
HETATM   27  C1  UNL     1      28.212   6.369  48.191  1.00  0.00     0.034 C 
ENDBRANCH  25  26
ENDBRANCH   1  25
TORSDOF 4
ENDMDL
MODEL 9
REMARK VINA RESULT:      -7.6      4.661      8.078
REMARK  4 active torsions:
REMARK  status: ('A' for Active; 'I' for Inactive)
REMARK    1  A    between atoms: C2_2  and  O1_3 
REMARK    2  A    between atoms: O1_3  and  C3_4 
REMARK    3  A    between atoms: C7_10  and  N3_11 
REMARK    4  A    between atoms: N3_11  and  C8_12 
ROOT
HETATM    1  C3  UNL     1      25.386   0.065  53.061  1.00  0.00     0.107 A 
HETATM    2  C4  UNL     1      25.466   0.973  52.026  1.00  0.00     0.072 A 
HETATM    3  C5  UNL     1      24.330   1.655  51.714  1.00  0.00     0.077 A 
HETATM    4  N1  UNL     1      24.357   2.543  50.722  1.00  0.00    -0.241 NA
HETATM    5  C6  UNL     1      23.247   3.221  50.402  1.00  0.00     0.236 A 
HETATM    6  N2  UNL     1      22.088   3.040  51.049  1.00  0.00    -0.223 NA
HETATM    7  C7  UNL     1      21.992   2.162  52.057  1.00  0.00     0.144 A 
HETATM    8  C14 UNL     1      23.133   1.481  52.369  1.00  0.00     0.075 A 
HETATM    9  C15 UNL     1      23.073   0.573  53.397  1.00  0.00     0.121 A 
HETATM   10  C16 UNL     1      24.200  -0.133  53.739  1.00  0.00     0.136 A 
HETATM   11  O2  UNL     1      24.178  -1.065  54.776  1.00  0.00    -0.344 OA
HETATM   12  C17 UNL     1      22.986  -1.425  55.446  1.00  0.00     0.202 C 
HETATM   13  C18 UNL     1      21.763  -0.994  54.654  1.00  0.00     0.202 C 
HETATM   14  O3  UNL     1      21.935   0.308  54.130  1.00  0.00    -0.345 OA
ENDROOT
BRANCH   7  15
HETATM   15  N3  UNL     1      20.728   2.030  52.685  1.00  0.00    -0.340 N 
HETATM   16  H8  UNL     1      20.300   2.085  53.624  1.00  0.00     0.167 HD
BRANCH  15  17
HETATM   17  C8  UNL     1      19.580   1.732  51.891  1.00  0.00     0.035 A 
HETATM   18  C9  UNL     1      19.247   0.494  51.320  1.00  0.00     0.032 A 
HETATM   19  C10 UNL     1      18.127   0.241  50.578  1.00  0.00     0.046 A 
HETATM   20  C11 UNL     1      17.229   1.263  50.356  1.00  0.00     0.138 A 
HETATM   21  F1  UNL     1      16.152   0.940  49.619  1.00  0.00    -0.204 F 
HETATM   22  C12 UNL     1      17.493   2.507  50.890  1.00  0.00     0.074 A 
HETATM   23 CL1  UNL     1      16.285   3.715  50.539  1.00  0.00    -0.081 Cl
HETATM   24  C13 UNL     1      18.639   2.713  51.632  1.00  0.00     0.056 A 
ENDBRANCH  15  17
ENDBRANCH   7  15
BRANCH   1  25
HETATM   25  O1  UNL     1      26.494  -0.674  53.447  1.00  0.00    -0.348 OA
BRANCH  25  26
HETATM   26  C2  UNL     1      27.692  -0.163  53.938  1.00  0.00     0.171 C 
HETATM   27  C1  UNL     1      28.934  -0.793  53.395  1.00  0.00     0.034 C 
ENDBRANCH  25  26
ENDBRANCH   1  25
TORSDOF 4
ENDMDL
