MODEL 1
REMARK VINA RESULT:      -7.5      0.000      0.000
REMARK  5 active torsions:
REMARK  status: ('A' for Active; 'I' for Inactive)
REMARK    1  A    between atoms: C3_3  and  C4_4 
REMARK    2  A    between atoms: C4_4  and  C5_5 
REMARK    3  A    between atoms: C5_5  and  N1_6 
REMARK    4  A    between atoms: C8_10  and  C9_11 
REMARK    5  A    between atoms: C9_11  and  C10_12 
ROOT
HETATM    1  C5  UNL     1      26.233   1.400  53.122  1.00  0.00     0.417 A 
HETATM    2  N2  UNL     1      24.793   1.804  53.135  1.00  0.00     0.205 N 
HETATM    3  C6  UNL     1      24.722   2.689  52.022  1.00  0.00     0.383 A 
HETATM    4  C7  UNL     1      24.622   3.557  50.943  1.00  0.00     0.097 A 
HETATM    5  C8  UNL     1      25.821   3.739  50.266  1.00  0.00     0.040 A 
HETATM    6  N3  UNL     1      26.844   3.026  50.804  1.00  0.00    -0.242 NA
HETATM    7  C16 UNL     1      26.696   2.214  51.904  1.00  0.00     0.402 A 
HETATM    8  N4  UNL     1      25.689   1.956  52.607  1.00  0.00     0.243 N 
HETATM    9  H10 UNL     1      23.682   1.898  53.424  1.00  0.00     0.331 HD
ENDROOT
BRANCH   1  10
HETATM   10  C4  UNL     1      26.415  -0.074  52.905  1.00  0.00     0.120 C 
BRANCH  10  11
HETATM   11  C3  UNL     1      27.724  -0.433  53.495  1.00  0.00    -0.025 C 
HETATM   12  C2  UNL     1      28.888  -0.932  53.098  1.00  0.00    -0.035 C 
HETATM   13  C1  UNL     1      30.096  -1.202  53.957  1.00  0.00     0.036 C 
ENDBRANCH  10  11
ENDBRANCH   1  10
BRANCH   1  14
HETATM   14  N1  UNL     1      26.909   1.890  54.295  1.00  0.00    -0.274 NA
HETATM   15  H8  UNL     1      26.941   1.159  55.010  1.00  0.00     0.122 HD
HETATM   16  H9  UNL     1      26.476   2.768  54.615  1.00  0.00     0.122 HD
ENDBRANCH   1  14
BRANCH   5  17
HETATM   17  C9  UNL     1      25.587   4.656  49.169  1.00  0.00     0.097 C 
BRANCH  17  18
HETATM   18  C10 UNL     1      26.753   5.513  48.848  1.00  0.00    -0.052 A 
HETATM   19  C11 UNL     1      26.649   6.886  48.894  1.00  0.00     0.007 A 
HETATM   20  C12 UNL     1      27.755   7.658  48.589  1.00  0.00     0.001 A 
HETATM   21  C13 UNL     1      28.975   7.099  48.236  1.00  0.00     0.000 A 
HETATM   22  C14 UNL     1      29.027   5.713  48.204  1.00  0.00     0.001 A 
HETATM   23  C15 UNL     1      27.951   4.899  48.500  1.00  0.00     0.007 A 
ENDBRANCH  17  18
ENDBRANCH   5  17
TORSDOF 5
ENDMDL
MODEL 2
REMARK VINA RESULT:      -7.5      5.358      6.580
REMARK  5 active torsions:
REMARK  status: ('A' for Active; 'I' for Inactive)
REMARK    1  A    between atoms: C3_3  and  C4_4 
REMARK    2  A    between atoms: C4_4  and  C5_5 
REMARK    3  A    between atoms: C5_5  and  N1_6 
REMARK    4  A    between atoms: C8_10  and  C9_11 
REMARK    5  A    between atoms: C9_11  and  C10_12 
ROOT
HETATM    1  C5  UNL     1      25.652  -0.376  54.153  1.00  0.00     0.417 A 
HETATM    2  N2  UNL     1      25.074  -1.269  55.204  1.00  0.00     0.205 N 
HETATM    3  C6  UNL     1      23.676  -1.067  55.031  1.00  0.00     0.383 A 
HETATM    4  C7  UNL     1      22.306  -0.890  54.885  1.00  0.00     0.097 A 
HETATM    5  C8  UNL     1      21.968   0.002  53.875  1.00  0.00     0.040 A 
HETATM    6  N3  UNL     1      23.052   0.515  53.239  1.00  0.00    -0.242 NA
HETATM    7  C16 UNL     1      24.344   0.180  53.569  1.00  0.00     0.402 A 
HETATM    8  N4  UNL     1      24.795  -0.599  54.445  1.00  0.00     0.243 N 
HETATM    9  H10 UNL     1      24.972  -2.021  56.071  1.00  0.00     0.331 HD
ENDROOT
BRANCH   1  10
HETATM   10  C4  UNL     1      26.440  -1.133  53.125  1.00  0.00     0.120 C 
BRANCH  10  11
HETATM   11  C3  UNL     1      27.843  -0.675  53.240  1.00  0.00    -0.025 C 
HETATM   12  C2  UNL     1      29.048  -1.202  53.415  1.00  0.00    -0.035 C 
HETATM   13  C1  UNL     1      30.357  -0.460  53.498  1.00  0.00     0.036 C 
ENDBRANCH  10  11
ENDBRANCH   1  10
BRANCH   1  14
HETATM   14  N1  UNL     1      26.392   0.704  54.753  1.00  0.00    -0.274 NA
HETATM   15  H8  UNL     1      26.688   0.442  55.697  1.00  0.00     0.122 HD
HETATM   16  H9  UNL     1      25.843   1.575  54.715  1.00  0.00     0.122 HD
ENDBRANCH   1  14
BRANCH   5  17
HETATM   17  C9  UNL     1      20.523   0.097  53.822  1.00  0.00     0.097 C 
BRANCH  17  18
HETATM   18  C10 UNL     1      20.017   0.841  52.642  1.00  0.00    -0.052 A 
HETATM   19  C11 UNL     1      20.110   2.214  52.586  1.00  0.00     0.007 A 
HETATM   20  C12 UNL     1      19.630   2.878  51.472  1.00  0.00     0.001 A 
HETATM   21  C13 UNL     1      19.052   2.210  50.402  1.00  0.00     0.000 A 
HETATM   22  C14 UNL     1      18.982   0.829  50.509  1.00  0.00     0.001 A 
HETATM   23  C15 UNL     1      19.448   0.120  51.599  1.00  0.00     0.007 A 
ENDBRANCH  17  18
ENDBRANCH   5  17
TORSDOF 5
ENDMDL
MODEL 3
REMARK VINA RESULT:      -7.3      3.098      7.283
REMARK  5 active torsions:
REMARK  status: ('A' for Active; 'I' for Inactive)
REMARK    1  A    between atoms: C3_3  and  C4_4 
REMARK    2  A    between atoms: C4_4  and  C5_5 
REMARK    3  A    between atoms: C5_5  and  N1_6 
REMARK    4  A    between atoms: C8_10  and  C9_11 
REMARK    5  A    between atoms: C9_11  and  C10_12 
ROOT
HETATM    1  C5  UNL     1      25.052   4.524  49.693  1.00  0.00     0.417 A 
HETATM    2  N2  UNL     1      24.852   5.049  51.079  1.00  0.00     0.205 N 
HETATM    3  C6  UNL     1      23.821   4.201  51.574  1.00  0.00     0.383 A 
HETATM    4  C7  UNL     1      22.817   3.388  52.084  1.00  0.00     0.097 A 
HETATM    5  C8  UNL     1      22.373   2.428  51.184  1.00  0.00     0.040 A 
HETATM    6  N3  UNL     1      23.017   2.484  49.990  1.00  0.00    -0.242 NA
HETATM    7  C16 UNL     1      24.003   3.401  49.713  1.00  0.00     0.402 A 
HETATM    8  N4  UNL     1      24.501   4.314  50.416  1.00  0.00     0.243 N 
HETATM    9  H10 UNL     1      24.954   5.674  52.042  1.00  0.00     0.331 HD
ENDROOT
BRANCH   1  10
HETATM   10  C4  UNL     1      26.436   3.986  49.478  1.00  0.00     0.120 C 
BRANCH  10  11
HETATM   11  C3  UNL     1      27.201   5.044  48.780  1.00  0.00    -0.025 C 
HETATM   12  C2  UNL     1      28.451   5.282  48.406  1.00  0.00    -0.035 C 
HETATM   13  C1  UNL     1      28.962   6.499  47.679  1.00  0.00     0.036 C 
ENDBRANCH  10  11
ENDBRANCH   1  10
BRANCH   1  14
HETATM   14  N1  UNL     1      24.666   5.507  48.716  1.00  0.00    -0.274 NA
HETATM   15  H8  UNL     1      25.421   6.184  48.584  1.00  0.00     0.122 HD
HETATM   16  H9  UNL     1      23.764   5.932  48.976  1.00  0.00     0.122 HD
ENDBRANCH   1  14
BRANCH   5  17
HETATM   17  C9  UNL     1      21.336   1.649  51.831  1.00  0.00     0.097 C 
BRANCH  17  18
HETATM   18  C10 UNL     1      21.847   0.713  52.861  1.00  0.00    -0.052 A 
HETATM   19  C11 UNL     1      23.111   0.176  52.757  1.00  0.00     0.007 A 
HETATM   20  C12 UNL     1      23.559  -0.693  53.734  1.00  0.00     0.001 A 
HETATM   21  C13 UNL     1      22.778  -1.049  54.825  1.00  0.00     0.000 A 
HETATM   22  C14 UNL     1      21.513  -0.481  54.883  1.00  0.00     0.001 A 
HETATM   23  C15 UNL     1      21.021   0.392  53.932  1.00  0.00     0.007 A 
ENDBRANCH  17  18
ENDBRANCH   5  17
TORSDOF 5
ENDMDL
MODEL 4
REMARK VINA RESULT:      -7.1      3.135      7.082
REMARK  5 active torsions:
REMARK  status: ('A' for Active; 'I' for Inactive)
REMARK    1  A    between atoms: C3_3  and  C4_4 
REMARK    2  A    between atoms: C4_4  and  C5_5 
REMARK    3  A    between atoms: C5_5  and  N1_6 
REMARK    4  A    between atoms: C8_10  and  C9_11 
REMARK    5  A    between atoms: C9_11  and  C10_12 
ROOT
HETATM    1  C5  UNL     1      23.194   3.832  51.456  1.00  0.00     0.417 A 
HETATM    2  N2  UNL     1      22.023   3.022  51.914  1.00  0.00     0.205 N 
HETATM    3  C6  UNL     1      22.652   1.862  52.447  1.00  0.00     0.383 A 
HETATM    4  C7  UNL     1      23.238   0.718  52.974  1.00  0.00     0.097 A 
HETATM    5  C8  UNL     1      24.625   0.722  52.898  1.00  0.00     0.040 A 
HETATM    6  N3  UNL     1      25.119   1.848  52.322  1.00  0.00    -0.242 NA
HETATM    7  C16 UNL     1      24.320   2.870  51.865  1.00  0.00     0.402 A 
HETATM    8  N4  UNL     1      23.072   3.004  51.867  1.00  0.00     0.243 N 
HETATM    9  H10 UNL     1      20.946   2.678  52.139  1.00  0.00     0.331 HD
ENDROOT
BRANCH   1  10
HETATM   10  C4  UNL     1      23.299   5.146  52.172  1.00  0.00     0.120 C 
BRANCH  10  11
HETATM   11  C3  UNL     1      23.219   6.202  51.139  1.00  0.00    -0.025 C 
HETATM   12  C2  UNL     1      23.740   7.398  50.900  1.00  0.00    -0.035 C 
HETATM   13  C1  UNL     1      23.463   8.286  49.714  1.00  0.00     0.036 C 
ENDBRANCH  10  11
ENDBRANCH   1  10
BRANCH   1  14
HETATM   14  N1  UNL     1      23.192   3.964  50.022  1.00  0.00    -0.274 NA
HETATM   15  H8  UNL     1      23.420   4.926  49.761  1.00  0.00     0.122 HD
HETATM   16  H9  UNL     1      22.298   3.627  49.635  1.00  0.00     0.122 HD
ENDBRANCH   1  14
BRANCH   5  17
HETATM   17  C9  UNL     1      25.113  -0.513  53.478  1.00  0.00     0.097 C 
BRANCH  17  18
HETATM   18  C10 UNL     1      26.582  -0.537  53.682  1.00  0.00    -0.052 A 
HETATM   19  C11 UNL     1      27.388  -1.324  52.889  1.00  0.00     0.007 A 
HETATM   20  C12 UNL     1      28.753  -1.324  53.104  1.00  0.00     0.001 A 
HETATM   21  C13 UNL     1      29.348  -0.558  54.096  1.00  0.00     0.000 A 
HETATM   22  C14 UNL     1      28.493   0.216  54.867  1.00  0.00     0.001 A 
HETATM   23  C15 UNL     1      27.123   0.250  54.691  1.00  0.00     0.007 A 
ENDBRANCH  17  18
ENDBRANCH   5  17
TORSDOF 5
ENDMDL
MODEL 5
REMARK VINA RESULT:      -7.0      3.961      6.606
REMARK  5 active torsions:
REMARK  status: ('A' for Active; 'I' for Inactive)
REMARK    1  A    between atoms: C3_3  and  C4_4 
REMARK    2  A    between atoms: C4_4  and  C5_5 
REMARK    3  A    between atoms: C5_5  and  N1_6 
REMARK    4  A    between atoms: C8_10  and  C9_11 
REMARK    5  A    between atoms: C9_11  and  C10_12 
ROOT
HETATM    1  C5  UNL     1      25.892   1.999  53.038  1.00  0.00     0.417 A 
HETATM    2  N2  UNL     1      25.192   3.225  53.531  1.00  0.00     0.205 N 
HETATM    3  C6  UNL     1      23.908   3.097  52.930  1.00  0.00     0.383 A 
HETATM    4  C7  UNL     1      22.647   2.998  52.356  1.00  0.00     0.097 A 
HETATM    5  C8  UNL     1      22.483   1.864  51.572  1.00  0.00     0.040 A 
HETATM    6  N3  UNL     1      23.595   1.086  51.530  1.00  0.00    -0.242 NA
HETATM    7  C16 UNL     1      24.755   1.398  52.198  1.00  0.00     0.402 A 
HETATM    8  N4  UNL     1      25.045   2.374  52.933  1.00  0.00     0.243 N 
HETATM    9  H10 UNL     1      24.965   4.218  54.069  1.00  0.00     0.331 HD
ENDROOT
BRANCH   1  10
HETATM   10  C4  UNL     1      26.300   1.082  54.155  1.00  0.00     0.120 C 
BRANCH  10  11
HETATM   11  C3  UNL     1      27.584   0.466  53.753  1.00  0.00    -0.025 C 
HETATM   12  C2  UNL     1      28.666  -0.039  54.332  1.00  0.00    -0.035 C 
HETATM   13  C1  UNL     1      29.872  -0.622  53.642  1.00  0.00     0.036 C 
ENDBRANCH  10  11
ENDBRANCH   1  10
BRANCH   1  14
HETATM   14  N1  UNL     1      26.982   2.351  52.166  1.00  0.00    -0.274 NA
HETATM   15  H8  UNL     1      26.759   3.210  51.659  1.00  0.00     0.122 HD
HETATM   16  H9  UNL     1      27.221   1.556  51.556  1.00  0.00     0.122 HD
ENDBRANCH   1  14
BRANCH   5  17
HETATM   17  C9  UNL     1      21.136   1.876  51.037  1.00  0.00     0.097 C 
BRANCH  17  18
HETATM   18  C10 UNL     1      20.227   0.902  51.688  1.00  0.00    -0.052 A 
HETATM   19  C11 UNL     1      19.032   0.554  51.097  1.00  0.00     0.007 A 
HETATM   20  C12 UNL     1      18.207  -0.357  51.729  1.00  0.00     0.001 A 
HETATM   21  C13 UNL     1      18.536  -0.938  52.946  1.00  0.00     0.000 A 
HETATM   22  C14 UNL     1      19.749  -0.554  53.499  1.00  0.00     0.001 A 
HETATM   23  C15 UNL     1      20.608   0.352  52.906  1.00  0.00     0.007 A 
ENDBRANCH  17  18
ENDBRANCH   5  17
TORSDOF 5
ENDMDL
MODEL 6
REMARK VINA RESULT:      -7.0      2.151      2.974
REMARK  5 active torsions:
REMARK  status: ('A' for Active; 'I' for Inactive)
REMARK    1  A    between atoms: C3_3  and  C4_4 
REMARK    2  A    between atoms: C4_4  and  C5_5 
REMARK    3  A    between atoms: C5_5  and  N1_6 
REMARK    4  A    between atoms: C8_10  and  C9_11 
REMARK    5  A    between atoms: C9_11  and  C10_12 
ROOT
HETATM    1  C5  UNL     1      25.438  -0.322  53.514  1.00  0.00     0.417 A 
HETATM    2  N2  UNL     1      23.981  -0.618  53.346  1.00  0.00     0.205 N 
HETATM    3  C6  UNL     1      23.450   0.667  53.039  1.00  0.00     0.383 A 
HETATM    4  C7  UNL     1      22.903   1.907  52.736  1.00  0.00     0.097 A 
HETATM    5  C8  UNL     1      23.841   2.931  52.698  1.00  0.00     0.040 A 
HETATM    6  N3  UNL     1      25.102   2.502  52.964  1.00  0.00    -0.242 NA
HETATM    7  C16 UNL     1      25.405   1.190  53.242  1.00  0.00     0.402 A 
HETATM    8  N4  UNL     1      24.673   0.172  53.310  1.00  0.00     0.243 N 
HETATM    9  H10 UNL     1      22.972  -1.172  53.291  1.00  0.00     0.331 HD
ENDROOT
BRANCH   1  10
HETATM   10  C4  UNL     1      26.290  -1.047  52.514  1.00  0.00     0.120 C 
BRANCH  10  11
HETATM   11  C3  UNL     1      27.623  -1.218  53.136  1.00  0.00    -0.025 C 
HETATM   12  C2  UNL     1      28.802  -0.609  53.137  1.00  0.00    -0.035 C 
HETATM   13  C1  UNL     1      30.034  -1.026  53.898  1.00  0.00     0.036 C 
ENDBRANCH  10  11
ENDBRANCH   1  10
BRANCH   1  14
HETATM   14  N1  UNL     1      25.847  -0.542  54.876  1.00  0.00    -0.274 NA
HETATM   15  H8  UNL     1      26.589  -1.246  54.908  1.00  0.00     0.122 HD
HETATM   16  H9  UNL     1      25.031  -0.771  55.461  1.00  0.00     0.122 HD
ENDBRANCH   1  14
BRANCH   5  17
HETATM   17  C9  UNL     1      23.152   4.163  52.373  1.00  0.00     0.097 C 
BRANCH  17  18
HETATM   18  C10 UNL     1      23.784   4.928  51.271  1.00  0.00    -0.052 A 
HETATM   19  C11 UNL     1      24.086   6.263  51.425  1.00  0.00     0.007 A 
HETATM   20  C12 UNL     1      24.675   6.948  50.379  1.00  0.00     0.001 A 
HETATM   21  C13 UNL     1      24.977   6.339  49.169  1.00  0.00     0.000 A 
HETATM   22  C14 UNL     1      24.653   4.993  49.064  1.00  0.00     0.001 A 
HETATM   23  C15 UNL     1      24.064   4.266  50.081  1.00  0.00     0.007 A 
ENDBRANCH  17  18
ENDBRANCH   5  17
TORSDOF 5
ENDMDL
MODEL 7
REMARK VINA RESULT:      -7.0      2.381      7.076
REMARK  5 active torsions:
REMARK  status: ('A' for Active; 'I' for Inactive)
REMARK    1  A    between atoms: C3_3  and  C4_4 
REMARK    2  A    between atoms: C4_4  and  C5_5 
REMARK    3  A    between atoms: C5_5  and  N1_6 
REMARK    4  A    between atoms: C8_10  and  C9_11 
REMARK    5  A    between atoms: C9_11  and  C10_12 
ROOT
HETATM    1  C5  UNL     1      24.987   4.421  50.396  1.00  0.00     0.417 A 
HETATM    2  N2  UNL     1      26.433   4.051  50.293  1.00  0.00     0.205 N 
HETATM    3  C6  UNL     1      26.472   2.805  50.981  1.00  0.00     0.383 A 
HETATM    4  C7  UNL     1      26.540   1.589  51.648  1.00  0.00     0.097 A 
HETATM    5  C8  UNL     1      25.317   1.163  52.148  1.00  0.00     0.040 A 
HETATM    6  N3  UNL     1      24.306   2.029  51.880  1.00  0.00    -0.242 NA
HETATM    7  C16 UNL     1      24.487   3.201  51.186  1.00  0.00     0.402 A 
HETATM    8  N4  UNL     1      25.518   3.708  50.680  1.00  0.00     0.243 N 
HETATM    9  H10 UNL     1      27.556   4.073  50.039  1.00  0.00     0.331 HD
ENDROOT
BRANCH   1  10
HETATM   10  C4  UNL     1      24.323   4.523  49.054  1.00  0.00     0.120 C 
BRANCH  10  11
HETATM   11  C3  UNL     1      24.016   5.955  48.838  1.00  0.00    -0.025 C 
HETATM   12  C2  UNL     1      24.167   6.870  47.890  1.00  0.00    -0.035 C 
HETATM   13  C1  UNL     1      23.739   8.313  47.949  1.00  0.00     0.036 C 
ENDBRANCH  10  11
ENDBRANCH   1  10
BRANCH   1  14
HETATM   14  N1  UNL     1      24.820   5.601  51.204  1.00  0.00    -0.274 NA
HETATM   15  H8  UNL     1      23.828   5.839  51.272  1.00  0.00     0.122 HD
HETATM   16  H9  UNL     1      25.409   6.365  50.843  1.00  0.00     0.122 HD
ENDBRANCH   1  14
BRANCH   5  17
HETATM   17  C9  UNL     1      25.519  -0.109  52.814  1.00  0.00     0.097 C 
BRANCH  17  18
HETATM   18  C10 UNL     1      26.904  -0.313  53.302  1.00  0.00    -0.052 A 
HETATM   19  C11 UNL     1      27.709  -1.282  52.745  1.00  0.00     0.007 A 
HETATM   20  C12 UNL     1      28.996  -1.447  53.222  1.00  0.00     0.001 A 
HETATM   21  C13 UNL     1      29.513  -0.669  54.249  1.00  0.00     0.000 A 
HETATM   22  C14 UNL     1      28.662   0.292  54.776  1.00  0.00     0.001 A 
HETATM   23  C15 UNL     1      27.369   0.495  54.333  1.00  0.00     0.007 A 
ENDBRANCH  17  18
ENDBRANCH   5  17
TORSDOF 5
ENDMDL
MODEL 8
REMARK VINA RESULT:      -7.0      4.135      7.573
REMARK  5 active torsions:
REMARK  status: ('A' for Active; 'I' for Inactive)
REMARK    1  A    between atoms: C3_3  and  C4_4 
REMARK    2  A    between atoms: C4_4  and  C5_5 
REMARK    3  A    between atoms: C5_5  and  N1_6 
REMARK    4  A    between atoms: C8_10  and  C9_11 
REMARK    5  A    between atoms: C9_11  and  C10_12 
ROOT
HETATM    1  C5  UNL     1      25.716   1.273  52.981  1.00  0.00     0.417 A 
HETATM    2  N2  UNL     1      25.954   0.167  53.959  1.00  0.00     0.205 N 
HETATM    3  C6  UNL     1      24.632  -0.303  54.204  1.00  0.00     0.383 A 
HETATM    4  C7  UNL     1      23.355  -0.782  54.463  1.00  0.00     0.097 A 
HETATM    5  C8  UNL     1      22.360  -0.109  53.766  1.00  0.00     0.040 A 
HETATM    6  N3  UNL     1      22.847   0.881  52.974  1.00  0.00    -0.242 NA
HETATM    7  C16 UNL     1      24.186   1.177  52.881  1.00  0.00     0.402 A 
HETATM    8  N4  UNL     1      25.185   0.661  53.442  1.00  0.00     0.243 N 
HETATM    9  H10 UNL     1      26.471  -0.583  54.665  1.00  0.00     0.331 HD
ENDROOT
BRANCH   1  10
HETATM   10  C4  UNL     1      26.376   1.020  51.657  1.00  0.00     0.120 C 
BRANCH  10  11
HETATM   11  C3  UNL     1      26.582   2.343  51.024  1.00  0.00    -0.025 C 
HETATM   12  C2  UNL     1      26.303   2.947  49.877  1.00  0.00    -0.035 C 
HETATM   13  C1  UNL     1      26.651   4.362  49.492  1.00  0.00     0.036 C 
ENDBRANCH  10  11
ENDBRANCH   1  10
BRANCH   1  14
HETATM   14  N1  UNL     1      26.067   2.545  53.557  1.00  0.00    -0.274 NA
HETATM   15  H8  UNL     1      25.222   3.036  53.859  1.00  0.00     0.122 HD
HETATM   16  H9  UNL     1      26.651   3.084  52.901  1.00  0.00     0.122 HD
ENDBRANCH   1  14
BRANCH   5  17
HETATM   17  C9  UNL     1      21.084  -0.700  54.117  1.00  0.00     0.097 C 
BRANCH  17  18
HETATM   18  C10 UNL     1      20.023  -0.472  53.106  1.00  0.00    -0.052 A 
HETATM   19  C11 UNL     1      20.279   0.271  51.975  1.00  0.00     0.007 A 
HETATM   20  C12 UNL     1      19.269   0.465  51.051  1.00  0.00     0.001 A 
HETATM   21  C13 UNL     1      17.997  -0.062  51.221  1.00  0.00     0.000 A 
HETATM   22  C14 UNL     1      17.790  -0.802  52.376  1.00  0.00     0.001 A 
HETATM   23  C15 UNL     1      18.767  -1.024  53.328  1.00  0.00     0.007 A 
ENDBRANCH  17  18
ENDBRANCH   5  17
TORSDOF 5
ENDMDL
MODEL 9
REMARK VINA RESULT:      -6.8      2.851      7.815
REMARK  5 active torsions:
REMARK  status: ('A' for Active; 'I' for Inactive)
REMARK    1  A    between atoms: C3_3  and  C4_4 
REMARK    2  A    between atoms: C4_4  and  C5_5 
REMARK    3  A    between atoms: C5_5  and  N1_6 
REMARK    4  A    between atoms: C8_10  and  C9_11 
REMARK    5  A    between atoms: C9_11  and  C10_12 
ROOT
HETATM    1  C5  UNL     1      25.048   4.567  50.251  1.00  0.00     0.417 A 
HETATM    2  N2  UNL     1      26.476   4.126  50.176  1.00  0.00     0.205 N 
HETATM    3  C6  UNL     1      26.444   2.892  50.885  1.00  0.00     0.383 A 
HETATM    4  C7  UNL     1      26.443   1.684  51.570  1.00  0.00     0.097 A 
HETATM    5  C8  UNL     1      25.193   1.325  52.058  1.00  0.00     0.040 A 
HETATM    6  N3  UNL     1      24.230   2.234  51.760  1.00  0.00    -0.242 NA
HETATM    7  C16 UNL     1      24.478   3.386  51.051  1.00  0.00     0.402 A 
HETATM    8  N4  UNL     1      25.540   3.835  50.554  1.00  0.00     0.243 N 
HETATM    9  H10 UNL     1      27.603   4.091  49.940  1.00  0.00     0.331 HD
ENDROOT
BRANCH   1  10
HETATM   10  C4  UNL     1      24.411   4.679  48.897  1.00  0.00     0.120 C 
BRANCH  10  11
HETATM   11  C3  UNL     1      24.042   6.101  48.716  1.00  0.00    -0.025 C 
HETATM   12  C2  UNL     1      23.942   6.983  47.730  1.00  0.00    -0.035 C 
HETATM   13  C1  UNL     1      23.525   8.426  47.845  1.00  0.00     0.036 C 
ENDBRANCH  10  11
ENDBRANCH   1  10
BRANCH   1  14
HETATM   14  N1  UNL     1      24.926   5.766  51.038  1.00  0.00    -0.274 NA
HETATM   15  H8  UNL     1      23.973   6.132  50.971  1.00  0.00     0.122 HD
HETATM   16  H9  UNL     1      25.653   6.444  50.768  1.00  0.00     0.122 HD
ENDBRANCH   1  14
BRANCH   5  17
HETATM   17  C9  UNL     1      25.324   0.056  52.745  1.00  0.00     0.097 C 
BRANCH  17  18
HETATM   18  C10 UNL     1      24.086  -0.377  53.438  1.00  0.00    -0.052 A 
HETATM   19  C11 UNL     1      24.134  -0.845  54.733  1.00  0.00     0.007 A 
HETATM   20  C12 UNL     1      22.963  -1.241  55.351  1.00  0.00     0.001 A 
HETATM   21  C13 UNL     1      21.731  -1.187  54.713  1.00  0.00     0.000 A 
HETATM   22  C14 UNL     1      21.738  -0.709  53.411  1.00  0.00     0.001 A 
HETATM   23  C15 UNL     1      22.881  -0.301  52.750  1.00  0.00     0.007 A 
ENDBRANCH  17  18
ENDBRANCH   5  17
TORSDOF 5
ENDMDL
