MODEL 1
REMARK VINA RESULT:      -9.5      0.000      0.000
REMARK  5 active torsions:
REMARK  status: ('A' for Active; 'I' for Inactive)
REMARK    1  A    between atoms: O1_2  and  C2_3 
REMARK    2  A    between atoms: C7_8  and  C8_9 
REMARK       I    between atoms: C8_9  and  N1_11 
REMARK    3  A    between atoms: N1_11  and  C9_12 
REMARK    4  A    between atoms: C14_17  and  N2_18 
REMARK    5  A    between atoms: C17_21  and  C18_22 
ROOT
HETATM    1  C9  UNL     1      24.246   1.756  52.310  1.00  0.00     0.037 A 
HETATM    2  C10 UNL     1      24.048   3.116  52.221  1.00  0.00     0.030 A 
HETATM    3  C11 UNL     1      22.831   3.755  52.152  1.00  0.00     0.011 A 
HETATM    4  C12 UNL     1      21.701   2.967  52.171  1.00  0.00    -0.035 A 
HETATM    5  C13 UNL     1      20.370   3.642  52.092  1.00  0.00     0.050 C 
HETATM    6  C14 UNL     1      21.808   1.601  52.258  1.00  0.00     0.043 A 
HETATM    7  C23 UNL     1      23.066   1.046  52.324  1.00  0.00     0.059 A 
ENDROOT
BRANCH   6   8
HETATM    8  N2  UNL     1      20.665   0.759  52.286  1.00  0.00    -0.338 N 
HETATM    9  C15 UNL     1      20.541   0.060  53.526  1.00  0.00     0.095 A 
HETATM   10  C16 UNL     1      19.521  -0.787  53.746  1.00  0.00     0.049 A 
HETATM   11  C17 UNL     1      18.549  -0.963  52.675  1.00  0.00     0.065 A 
HETATM   12  N5  UNL     1      18.660  -0.335  51.559  1.00  0.00    -0.269 NA
HETATM   13  C22 UNL     1      19.705   0.591  51.214  1.00  0.00     0.279 A 
BRANCH  11  14
HETATM   14  C18 UNL     1      17.413  -1.863  52.831  1.00  0.00     0.009 A 
HETATM   15  C19 UNL     1      17.511  -3.030  53.439  1.00  0.00     0.009 A 
HETATM   16  C20 UNL     1      16.446  -4.023  53.660  1.00  0.00     0.169 A 
HETATM   17  N3  UNL     1      15.218  -3.547  53.106  1.00  0.00    -0.311 N 
HETATM   18  N4  UNL     1      15.070  -2.323  52.456  1.00  0.00    -0.191 NA
HETATM   19  H19 UNL     1      14.466  -4.260  53.268  1.00  0.00     0.182 HD
HETATM   20  C21 UNL     1      16.099  -1.553  52.338  1.00  0.00     0.151 A 
ENDBRANCH  11  14
ENDBRANCH   6   8
BRANCH   1  21
HETATM   21  N1  UNL     1      25.487   1.088  52.382  1.00  0.00    -0.323 N 
HETATM   22  C8  UNL     1      26.030   0.257  53.375  1.00  0.00     0.259 C 
HETATM   23  O2  UNL     1      25.283   0.077  54.371  1.00  0.00    -0.267 OA
HETATM   24  H8  UNL     1      26.103   1.236  51.559  1.00  0.00     0.169 HD
BRANCH  22  25
HETATM   25  C7  UNL     1      27.316  -0.412  53.408  1.00  0.00     0.065 A 
HETATM   26  C2  UNL     1      28.518   0.047  53.897  1.00  0.00     0.084 A 
HETATM   27  C3  UNL     1      29.700  -0.649  53.892  1.00  0.00     0.038 A 
HETATM   28  C4  UNL     1      29.707  -1.911  53.361  1.00  0.00     0.003 A 
HETATM   29  C5  UNL     1      28.553  -2.454  52.849  1.00  0.00     0.001 A 
HETATM   30  C6  UNL     1      27.412  -1.701  52.886  1.00  0.00     0.020 A 
BRANCH  26  31
HETATM   31  O1  UNL     1      28.531   1.312  54.434  1.00  0.00    -0.355 OA
HETATM   32  C1  UNL     1      28.723   2.457  53.639  1.00  0.00     0.210 C 
ENDBRANCH  26  31
ENDBRANCH  22  25
ENDBRANCH   1  21
TORSDOF 5
ENDMDL
MODEL 2
REMARK VINA RESULT:      -9.0      6.291     10.865
REMARK  5 active torsions:
REMARK  status: ('A' for Active; 'I' for Inactive)
REMARK    1  A    between atoms: O1_2  and  C2_3 
REMARK    2  A    between atoms: C7_8  and  C8_9 
REMARK       I    between atoms: C8_9  and  N1_11 
REMARK    3  A    between atoms: N1_11  and  C9_12 
REMARK    4  A    between atoms: C14_17  and  N2_18 
REMARK    5  A    between atoms: C17_21  and  C18_22 
ROOT
HETATM    1  C9  UNL     1      25.723   3.393  49.909  1.00  0.00     0.037 A 
HETATM    2  C10 UNL     1      24.442   3.431  49.405  1.00  0.00     0.030 A 
HETATM    3  C11 UNL     1      23.820   4.529  48.854  1.00  0.00     0.011 A 
HETATM    4  C12 UNL     1      24.539   5.702  48.800  1.00  0.00    -0.035 A 
HETATM    5  C13 UNL     1      23.880   6.906  48.211  1.00  0.00     0.050 C 
HETATM    6  C14 UNL     1      25.825   5.752  49.281  1.00  0.00     0.043 A 
HETATM    7  C23 UNL     1      26.369   4.606  49.815  1.00  0.00     0.059 A 
ENDROOT
BRANCH   6   8
HETATM    8  N2  UNL     1      26.597   6.943  49.237  1.00  0.00    -0.338 N 
HETATM    9  C15 UNL     1      27.614   6.888  48.236  1.00  0.00     0.095 A 
HETATM   10  C16 UNL     1      28.450   7.922  48.039  1.00  0.00     0.049 A 
HETATM   11  C17 UNL     1      28.279   9.097  48.882  1.00  0.00     0.065 A 
HETATM   12  N5  UNL     1      27.364   9.147  49.784  1.00  0.00    -0.269 NA
HETATM   13  C22 UNL     1      26.418   8.106  50.083  1.00  0.00     0.279 A 
BRANCH  11  14
HETATM   14  C18 UNL     1      29.143  10.262  48.735  1.00  0.00     0.009 A 
HETATM   15  C19 UNL     1      30.412  10.163  48.384  1.00  0.00     0.009 A 
HETATM   16  C20 UNL     1      31.383  11.255  48.202  1.00  0.00     0.169 A 
HETATM   17  N3  UNL     1      30.754  12.511  48.465  1.00  0.00    -0.311 N 
HETATM   18  N4  UNL     1      29.419  12.660  48.837  1.00  0.00    -0.191 NA
HETATM   19  H19 UNL     1      31.453  13.282  48.333  1.00  0.00     0.182 HD
HETATM   20  C21 UNL     1      28.686  11.605  48.958  1.00  0.00     0.151 A 
ENDBRANCH  11  14
ENDBRANCH   6   8
BRANCH   1  21
HETATM   21  N1  UNL     1      26.373   2.276  50.475  1.00  0.00    -0.323 N 
HETATM   22  C8  UNL     1      26.339   1.752  51.777  1.00  0.00     0.259 C 
HETATM   23  O2  UNL     1      25.603   2.386  52.576  1.00  0.00    -0.267 OA
HETATM   24  H8  UNL     1      26.981   1.752  49.815  1.00  0.00     0.169 HD
BRANCH  22  25
HETATM   25  C7  UNL     1      27.026   0.595  52.318  1.00  0.00     0.065 A 
HETATM   26  C2  UNL     1      28.236   0.535  52.970  1.00  0.00     0.084 A 
HETATM   27  C3  UNL     1      28.825  -0.605  53.457  1.00  0.00     0.038 A 
HETATM   28  C4  UNL     1      28.170  -1.796  53.289  1.00  0.00     0.003 A 
HETATM   29  C5  UNL     1      26.954  -1.834  52.650  1.00  0.00     0.001 A 
HETATM   30  C6  UNL     1      26.428  -0.658  52.191  1.00  0.00     0.020 A 
BRANCH  26  31
HETATM   31  O1  UNL     1      28.910   1.720  53.148  1.00  0.00    -0.355 OA
HETATM   32  C1  UNL     1      29.416   2.108  54.403  1.00  0.00     0.210 C 
ENDBRANCH  26  31
ENDBRANCH  22  25
ENDBRANCH   1  21
TORSDOF 5
ENDMDL
MODEL 3
REMARK VINA RESULT:      -9.0      3.850      5.839
REMARK  5 active torsions:
REMARK  status: ('A' for Active; 'I' for Inactive)
REMARK    1  A    between atoms: O1_2  and  C2_3 
REMARK    2  A    between atoms: C7_8  and  C8_9 
REMARK       I    between atoms: C8_9  and  N1_11 
REMARK    3  A    between atoms: N1_11  and  C9_12 
REMARK    4  A    between atoms: C14_17  and  N2_18 
REMARK    5  A    between atoms: C17_21  and  C18_22 
ROOT
HETATM    1  C9  UNL     1      25.881   2.776  51.462  1.00  0.00     0.037 A 
HETATM    2  C10 UNL     1      26.867   1.978  51.997  1.00  0.00     0.030 A 
HETATM    3  C11 UNL     1      26.673   0.809  52.697  1.00  0.00     0.011 A 
HETATM    4  C12 UNL     1      25.374   0.393  52.885  1.00  0.00    -0.035 A 
HETATM    5  C13 UNL     1      25.142  -0.872  53.646  1.00  0.00     0.050 C 
HETATM    6  C14 UNL     1      24.329   1.130  52.384  1.00  0.00     0.043 A 
HETATM    7  C23 UNL     1      24.615   2.287  51.696  1.00  0.00     0.059 A 
ENDROOT
BRANCH   6   8
HETATM    8  N2  UNL     1      22.978   0.728  52.554  1.00  0.00    -0.338 N 
HETATM    9  C15 UNL     1      22.245   0.769  51.329  1.00  0.00     0.095 A 
HETATM   10  C16 UNL     1      20.947   0.424  51.285  1.00  0.00     0.049 A 
HETATM   11  C17 UNL     1      20.319   0.006  52.531  1.00  0.00     0.065 A 
HETATM   12  N5  UNL     1      20.977  -0.031  53.635  1.00  0.00    -0.269 NA
HETATM   13  C22 UNL     1      22.363   0.315  53.800  1.00  0.00     0.279 A 
BRANCH  11  14
HETATM   14  C18 UNL     1      18.915  -0.385  52.572  1.00  0.00     0.009 A 
HETATM   15  C19 UNL     1      17.992   0.208  51.837  1.00  0.00     0.009 A 
HETATM   16  C20 UNL     1      16.551  -0.090  51.787  1.00  0.00     0.169 A 
HETATM   17  N3  UNL     1      16.248  -1.163  52.682  1.00  0.00    -0.311 N 
HETATM   18  N4  UNL     1      17.190  -1.816  53.474  1.00  0.00    -0.191 NA
HETATM   19  H19 UNL     1      15.221  -1.369  52.639  1.00  0.00     0.182 HD
HETATM   20  C21 UNL     1      18.423  -1.442  53.411  1.00  0.00     0.151 A 
ENDBRANCH  11  14
ENDBRANCH   6   8
BRANCH   1  21
HETATM   21  N1  UNL     1      26.065   3.976  50.743  1.00  0.00    -0.323 N 
HETATM   22  C8  UNL     1      26.707   4.228  49.520  1.00  0.00     0.259 C 
HETATM   23  O2  UNL     1      27.202   3.210  48.971  1.00  0.00    -0.267 OA
HETATM   24  H8  UNL     1      25.656   4.817  51.196  1.00  0.00     0.169 HD
BRANCH  22  25
HETATM   25  C7  UNL     1      26.874   5.484  48.814  1.00  0.00     0.065 A 
HETATM   26  C2  UNL     1      25.941   6.463  48.558  1.00  0.00     0.084 A 
HETATM   27  C3  UNL     1      26.177   7.631  47.878  1.00  0.00     0.038 A 
HETATM   28  C4  UNL     1      27.441   7.863  47.405  1.00  0.00     0.003 A 
HETATM   29  C5  UNL     1      28.439   6.941  47.614  1.00  0.00     0.001 A 
HETATM   30  C6  UNL     1      28.131   5.799  48.299  1.00  0.00     0.020 A 
BRANCH  26  31
HETATM   31  O1  UNL     1      24.667   6.248  49.024  1.00  0.00    -0.355 OA
HETATM   32  C1  UNL     1      23.601   5.935  48.161  1.00  0.00     0.210 C 
ENDBRANCH  26  31
ENDBRANCH  22  25
ENDBRANCH   1  21
TORSDOF 5
ENDMDL
MODEL 4
REMARK VINA RESULT:      -9.0      6.213     10.831
REMARK  5 active torsions:
REMARK  status: ('A' for Active; 'I' for Inactive)
REMARK    1  A    between atoms: O1_2  and  C2_3 
REMARK    2  A    between atoms: C7_8  and  C8_9 
REMARK       I    between atoms: C8_9  and  N1_11 
REMARK    3  A    between atoms: N1_11  and  C9_12 
REMARK    4  A    between atoms: C14_17  and  N2_18 
REMARK    5  A    between atoms: C17_21  and  C18_22 
ROOT
HETATM    1  C9  UNL     1      24.692   3.737  50.113  1.00  0.00     0.037 A 
HETATM    2  C10 UNL     1      23.556   3.796  49.335  1.00  0.00     0.030 A 
HETATM    3  C11 UNL     1      23.228   4.803  48.455  1.00  0.00     0.011 A 
HETATM    4  C12 UNL     1      24.113   5.851  48.336  1.00  0.00    -0.035 A 
HETATM    5  C13 UNL     1      23.773   6.956  47.389  1.00  0.00     0.050 C 
HETATM    6  C14 UNL     1      25.270   5.872  49.076  1.00  0.00     0.043 A 
HETATM    7  C23 UNL     1      25.518   4.823  49.932  1.00  0.00     0.059 A 
ENDROOT
BRANCH   6   8
HETATM    8  N2  UNL     1      26.207   6.935  48.974  1.00  0.00    -0.338 N 
HETATM    9  C15 UNL     1      25.996   7.935  49.971  1.00  0.00     0.095 A 
HETATM   10  C16 UNL     1      26.782   9.023  50.039  1.00  0.00     0.049 A 
HETATM   11  C17 UNL     1      27.854   9.141  49.060  1.00  0.00     0.065 A 
HETATM   12  N5  UNL     1      28.045   8.241  48.161  1.00  0.00    -0.269 NA
HETATM   13  C22 UNL     1      27.270   7.042  47.994  1.00  0.00     0.279 A 
BRANCH  11  14
HETATM   14  C18 UNL     1      28.753  10.289  49.063  1.00  0.00     0.009 A 
HETATM   15  C19 UNL     1      28.318  11.530  48.944  1.00  0.00     0.009 A 
HETATM   16  C20 UNL     1      29.116  12.767  48.933  1.00  0.00     0.169 A 
HETATM   17  N3  UNL     1      30.503  12.450  49.074  1.00  0.00    -0.311 N 
HETATM   18  N4  UNL     1      31.004  11.155  49.202  1.00  0.00    -0.191 NA
HETATM   19  H19 UNL     1      31.063  13.336  49.064  1.00  0.00     0.182 HD
HETATM   20  C21 UNL     1      30.178  10.165  49.195  1.00  0.00     0.151 A 
ENDBRANCH  11  14
ENDBRANCH   6   8
BRANCH   1  21
HETATM   21  N1  UNL     1      25.040   2.712  51.019  1.00  0.00    -0.323 N 
HETATM   22  C8  UNL     1      24.771   2.562  52.388  1.00  0.00     0.259 C 
HETATM   23  O2  UNL     1      24.106   3.501  52.895  1.00  0.00    -0.267 OA
HETATM   24  H8  UNL     1      25.590   1.937  50.599  1.00  0.00     0.169 HD
BRANCH  22  25
HETATM   25  C7  UNL     1      25.151   1.487  53.284  1.00  0.00     0.065 A 
HETATM   26  C2  UNL     1      26.259   1.386  54.093  1.00  0.00     0.084 A 
HETATM   27  C3  UNL     1      26.551   0.330  54.919  1.00  0.00     0.038 A 
HETATM   28  C4  UNL     1      25.678  -0.725  54.957  1.00  0.00     0.003 A 
HETATM   29  C5  UNL     1      24.543  -0.712  54.183  1.00  0.00     0.001 A 
HETATM   30  C6  UNL     1      24.317   0.374  53.383  1.00  0.00     0.020 A 
BRANCH  26  31
HETATM   31  O1  UNL     1      27.147   2.434  54.070  1.00  0.00    -0.355 OA
HETATM   32  C1  UNL     1      28.414   2.323  53.468  1.00  0.00     0.210 C 
ENDBRANCH  26  31
ENDBRANCH  22  25
ENDBRANCH   1  21
TORSDOF 5
ENDMDL
MODEL 5
REMARK VINA RESULT:      -8.8      2.650      4.968
REMARK  5 active torsions:
REMARK  status: ('A' for Active; 'I' for Inactive)
REMARK    1  A    between atoms: O1_2  and  C2_3 
REMARK    2  A    between atoms: C7_8  and  C8_9 
REMARK       I    between atoms: C8_9  and  N1_11 
REMARK    3  A    between atoms: N1_11  and  C9_12 
REMARK    4  A    between atoms: C14_17  and  N2_18 
REMARK    5  A    between atoms: C17_21  and  C18_22 
ROOT
HETATM    1  C9  UNL     1      23.473  -0.437  53.927  1.00  0.00     0.037 A 
HETATM    2  C10 UNL     1      22.658  -1.365  54.537  1.00  0.00     0.030 A 
HETATM    3  C11 UNL     1      21.297  -1.483  54.368  1.00  0.00     0.011 A 
HETATM    4  C12 UNL     1      20.687  -0.595  53.511  1.00  0.00    -0.035 A 
HETATM    5  C13 UNL     1      19.209  -0.704  53.318  1.00  0.00     0.050 C 
HETATM    6  C14 UNL     1      21.426   0.363  52.861  1.00  0.00     0.043 A 
HETATM    7  C23 UNL     1      22.782   0.410  53.089  1.00  0.00     0.059 A 
ENDROOT
BRANCH   6   8
HETATM    8  N2  UNL     1      20.830   1.292  51.967  1.00  0.00    -0.338 N 
HETATM    9  C15 UNL     1      20.446   2.501  52.624  1.00  0.00     0.095 A 
HETATM   10  C16 UNL     1      19.864   3.505  51.945  1.00  0.00     0.049 A 
HETATM   11  C17 UNL     1      19.641   3.312  50.519  1.00  0.00     0.065 A 
HETATM   12  N5  UNL     1      19.986   2.224  49.926  1.00  0.00    -0.269 NA
HETATM   13  C22 UNL     1      20.613   1.089  50.549  1.00  0.00     0.279 A 
BRANCH  11  14
HETATM   14  C18 UNL     1      19.016   4.350  49.708  1.00  0.00     0.009 A 
HETATM   15  C19 UNL     1      19.632   5.476  49.400  1.00  0.00     0.009 A 
HETATM   16  C20 UNL     1      19.114   6.595  48.595  1.00  0.00     0.169 A 
HETATM   17  N3  UNL     1      17.784   6.302  48.158  1.00  0.00    -0.311 N 
HETATM   18  N4  UNL     1      17.098   5.127  48.460  1.00  0.00    -0.191 NA
HETATM   19  H19 UNL     1      17.424   7.104  47.586  1.00  0.00     0.182 HD
HETATM   20  C21 UNL     1      17.685   4.231  49.180  1.00  0.00     0.151 A 
ENDBRANCH  11  14
ENDBRANCH   6   8
BRANCH   1  21
HETATM   21  N1  UNL     1      24.868  -0.305  54.091  1.00  0.00    -0.323 N 
HETATM   22  C8  UNL     1      25.937  -0.766  53.306  1.00  0.00     0.259 C 
HETATM   23  O2  UNL     1      25.591  -1.407  52.280  1.00  0.00    -0.267 OA
HETATM   24  H8  UNL     1      25.153   0.226  54.939  1.00  0.00     0.169 HD
BRANCH  22  25
HETATM   25  C7  UNL     1      27.363  -0.606  53.513  1.00  0.00     0.065 A 
HETATM   26  C2  UNL     1      28.043   0.458  54.060  1.00  0.00     0.084 A 
HETATM   27  C3  UNL     1      29.404   0.535  54.224  1.00  0.00     0.038 A 
HETATM   28  C4  UNL     1      30.168  -0.524  53.815  1.00  0.00     0.003 A 
HETATM   29  C5  UNL     1      29.576  -1.632  53.258  1.00  0.00     0.001 A 
HETATM   30  C6  UNL     1      28.215  -1.639  53.125  1.00  0.00     0.020 A 
BRANCH  26  31
HETATM   31  O1  UNL     1      27.294   1.532  54.477  1.00  0.00    -0.355 OA
HETATM   32  C1  UNL     1      26.859   2.528  53.583  1.00  0.00     0.210 C 
ENDBRANCH  26  31
ENDBRANCH  22  25
ENDBRANCH   1  21
TORSDOF 5
ENDMDL
MODEL 6
REMARK VINA RESULT:      -8.8      4.137      9.993
REMARK  5 active torsions:
REMARK  status: ('A' for Active; 'I' for Inactive)
REMARK    1  A    between atoms: O1_2  and  C2_3 
REMARK    2  A    between atoms: C7_8  and  C8_9 
REMARK       I    between atoms: C8_9  and  N1_11 
REMARK    3  A    between atoms: N1_11  and  C9_12 
REMARK    4  A    between atoms: C14_17  and  N2_18 
REMARK    5  A    between atoms: C17_21  and  C18_22 
ROOT
HETATM    1  C9  UNL     1      23.050   0.590  52.456  1.00  0.00     0.037 A 
HETATM    2  C10 UNL     1      23.968   0.064  53.338  1.00  0.00     0.030 A 
HETATM    3  C11 UNL     1      25.258   0.506  53.525  1.00  0.00     0.011 A 
HETATM    4  C12 UNL     1      25.676   1.575  52.764  1.00  0.00    -0.035 A 
HETATM    5  C13 UNL     1      27.074   2.068  52.950  1.00  0.00     0.050 C 
HETATM    6  C14 UNL     1      24.824   2.160  51.860  1.00  0.00     0.043 A 
HETATM    7  C23 UNL     1      23.550   1.652  51.737  1.00  0.00     0.059 A 
ENDROOT
BRANCH   6   8
HETATM    8  N2  UNL     1      25.220   3.267  51.063  1.00  0.00    -0.338 N 
HETATM    9  C15 UNL     1      26.291   2.936  50.177  1.00  0.00     0.095 A 
HETATM   10  C16 UNL     1      26.807   3.852  49.340  1.00  0.00     0.049 A 
HETATM   11  C17 UNL     1      26.233   5.190  49.370  1.00  0.00     0.065 A 
HETATM   12  N5  UNL     1      25.270   5.490  50.168  1.00  0.00    -0.269 NA
HETATM   13  C22 UNL     1      24.643   4.596  51.103  1.00  0.00     0.279 A 
BRANCH  11  14
HETATM   14  C18 UNL     1      26.734   6.244  48.495  1.00  0.00     0.009 A 
HETATM   15  C19 UNL     1      28.006   6.337  48.153  1.00  0.00     0.009 A 
HETATM   16  C20 UNL     1      28.633   7.345  47.283  1.00  0.00     0.169 A 
HETATM   17  N3  UNL     1      27.645   8.269  46.823  1.00  0.00    -0.311 N 
HETATM   18  N4  UNL     1      26.293   8.208  47.159  1.00  0.00    -0.191 NA
HETATM   19  H19 UNL     1      28.101   8.983  46.205  1.00  0.00     0.182 HD
HETATM   20  C21 UNL     1      25.888   7.261  47.936  1.00  0.00     0.151 A 
ENDBRANCH  11  14
ENDBRANCH   6   8
BRANCH   1  21
HETATM   21  N1  UNL     1      21.726   0.146  52.254  1.00  0.00    -0.323 N 
HETATM   22  C8  UNL     1      20.656  -0.001  53.150  1.00  0.00     0.259 C 
HETATM   23  O2  UNL     1      20.923   0.316  54.338  1.00  0.00    -0.267 OA
HETATM   24  H8  UNL     1      21.505  -0.116  51.272  1.00  0.00     0.169 HD
BRANCH  22  25
HETATM   25  C7  UNL     1      19.305  -0.463  52.897  1.00  0.00     0.065 A 
HETATM   26  C2  UNL     1      18.356   0.060  52.049  1.00  0.00     0.084 A 
HETATM   27  C3  UNL     1      17.091  -0.437  51.863  1.00  0.00     0.038 A 
HETATM   28  C4  UNL     1      16.719  -1.548  52.572  1.00  0.00     0.003 A 
HETATM   29  C5  UNL     1      17.601  -2.141  53.443  1.00  0.00     0.001 A 
HETATM   30  C6  UNL     1      18.846  -1.590  53.578  1.00  0.00     0.020 A 
BRANCH  26  31
HETATM   31  O1  UNL     1      18.710   1.176  51.329  1.00  0.00    -0.355 OA
HETATM   32  C1  UNL     1      18.992   1.115  49.952  1.00  0.00     0.210 C 
ENDBRANCH  26  31
ENDBRANCH  22  25
ENDBRANCH   1  21
TORSDOF 5
ENDMDL
MODEL 7
REMARK VINA RESULT:      -8.7      3.883     10.160
REMARK  5 active torsions:
REMARK  status: ('A' for Active; 'I' for Inactive)
REMARK    1  A    between atoms: O1_2  and  C2_3 
REMARK    2  A    between atoms: C7_8  and  C8_9 
REMARK       I    between atoms: C8_9  and  N1_11 
REMARK    3  A    between atoms: N1_11  and  C9_12 
REMARK    4  A    between atoms: C14_17  and  N2_18 
REMARK    5  A    between atoms: C17_21  and  C18_22 
ROOT
HETATM    1  C9  UNL     1      22.564   0.282  52.391  1.00  0.00     0.037 A 
HETATM    2  C10 UNL     1      23.212  -0.161  53.523  1.00  0.00     0.030 A 
HETATM    3  C11 UNL     1      24.470   0.215  53.936  1.00  0.00     0.011 A 
HETATM    4  C12 UNL     1      25.150   1.118  53.149  1.00  0.00    -0.035 A 
HETATM    5  C13 UNL     1      26.519   1.535  53.579  1.00  0.00     0.050 C 
HETATM    6  C14 UNL     1      24.577   1.610  52.002  1.00  0.00     0.043 A 
HETATM    7  C23 UNL     1      23.315   1.179  51.664  1.00  0.00     0.059 A 
ENDROOT
BRANCH   6   8
HETATM    8  N2  UNL     1      25.248   2.546  51.171  1.00  0.00    -0.338 N 
HETATM    9  C15 UNL     1      24.550   3.789  51.086  1.00  0.00     0.095 A 
HETATM   10  C16 UNL     1      25.026   4.803  50.344  1.00  0.00     0.049 A 
HETATM   11  C17 UNL     1      26.279   4.587  49.634  1.00  0.00     0.065 A 
HETATM   12  N5  UNL     1      26.909   3.468  49.709  1.00  0.00    -0.269 NA
HETATM   13  C22 UNL     1      26.495   2.319  50.467  1.00  0.00     0.279 A 
BRANCH  11  14
HETATM   14  C18 UNL     1      26.866   5.635  48.807  1.00  0.00     0.009 A 
HETATM   15  C19 UNL     1      26.180   6.688  48.405  1.00  0.00     0.009 A 
HETATM   16  C20 UNL     1      26.653   7.808  47.574  1.00  0.00     0.169 A 
HETATM   17  N3  UNL     1      28.026   7.610  47.232  1.00  0.00    -0.311 N 
HETATM   18  N4  UNL     1      28.787   6.514  47.635  1.00  0.00    -0.191 NA
HETATM   19  H19 UNL     1      28.354   8.412  46.641  1.00  0.00     0.182 HD
HETATM   20  C21 UNL     1      28.233   5.607  48.366  1.00  0.00     0.151 A 
ENDBRANCH  11  14
ENDBRANCH   6   8
BRANCH   1  21
HETATM   21  N1  UNL     1      21.276  -0.095  51.955  1.00  0.00    -0.323 N 
HETATM   22  C8  UNL     1      20.037   0.555  52.071  1.00  0.00     0.259 C 
HETATM   23  O2  UNL     1      20.083   1.664  52.664  1.00  0.00    -0.267 OA
HETATM   24  H8  UNL     1      21.238  -1.011  51.465  1.00  0.00     0.169 HD
BRANCH  22  25
HETATM   25  C7  UNL     1      18.731   0.129  51.606  1.00  0.00     0.065 A 
HETATM   26  C2  UNL     1      17.860  -0.769  52.179  1.00  0.00     0.084 A 
HETATM   27  C3  UNL     1      16.633  -1.122  51.676  1.00  0.00     0.038 A 
HETATM   28  C4  UNL     1      16.221  -0.545  50.505  1.00  0.00     0.003 A 
HETATM   29  C5  UNL     1      17.025   0.364  49.861  1.00  0.00     0.001 A 
HETATM   30  C6  UNL     1      18.235   0.668  50.420  1.00  0.00     0.020 A 
BRANCH  26  31
HETATM   31  O1  UNL     1      18.255  -1.359  53.355  1.00  0.00    -0.355 OA
HETATM   32  C1  UNL     1      17.807  -2.638  53.734  1.00  0.00     0.210 C 
ENDBRANCH  26  31
ENDBRANCH  22  25
ENDBRANCH   1  21
TORSDOF 5
ENDMDL
MODEL 8
REMARK VINA RESULT:      -8.7      6.433     12.088
REMARK  5 active torsions:
REMARK  status: ('A' for Active; 'I' for Inactive)
REMARK    1  A    between atoms: O1_2  and  C2_3 
REMARK    2  A    between atoms: C7_8  and  C8_9 
REMARK       I    between atoms: C8_9  and  N1_11 
REMARK    3  A    between atoms: N1_11  and  C9_12 
REMARK    4  A    between atoms: C14_17  and  N2_18 
REMARK    5  A    between atoms: C17_21  and  C18_22 
ROOT
HETATM    1  C9  UNL     1      25.120   5.427  49.303  1.00  0.00     0.037 A 
HETATM    2  C10 UNL     1      24.376   6.247  48.484  1.00  0.00     0.030 A 
HETATM    3  C11 UNL     1      24.871   7.226  47.652  1.00  0.00     0.011 A 
HETATM    4  C12 UNL     1      26.236   7.408  47.632  1.00  0.00    -0.035 A 
HETATM    5  C13 UNL     1      26.792   8.469  46.739  1.00  0.00     0.050 C 
HETATM    6  C14 UNL     1      27.052   6.632  48.418  1.00  0.00     0.043 A 
HETATM    7  C23 UNL     1      26.472   5.676  49.220  1.00  0.00     0.059 A 
ENDROOT
BRANCH   6   8
HETATM    8  N2  UNL     1      28.464   6.788  48.418  1.00  0.00    -0.338 N 
HETATM    9  C15 UNL     1      29.139   5.581  48.064  1.00  0.00     0.095 A 
HETATM   10  C16 UNL     1      30.481   5.527  48.008  1.00  0.00     0.049 A 
HETATM   11  C17 UNL     1      31.217   6.745  48.320  1.00  0.00     0.065 A 
HETATM   12  N5  UNL     1      30.610   7.833  48.640  1.00  0.00    -0.269 NA
HETATM   13  C22 UNL     1      29.185   8.006  48.732  1.00  0.00     0.279 A 
BRANCH  11  14
HETATM   14  C18 UNL     1      32.674   6.774  48.284  1.00  0.00     0.009 A 
HETATM   15  C19 UNL     1      33.362   7.900  48.321  1.00  0.00     0.009 A 
HETATM   16  C20 UNL     1      34.825   8.064  48.291  1.00  0.00     0.169 A 
HETATM   17  N3  UNL     1      35.453   6.782  48.211  1.00  0.00    -0.311 N 
HETATM   18  N4  UNL     1      34.766   5.570  48.169  1.00  0.00    -0.191 NA
HETATM   19  H19 UNL     1      36.494   6.909  48.190  1.00  0.00     0.182 HD
HETATM   20  C21 UNL     1      33.476   5.585  48.204  1.00  0.00     0.151 A 
ENDBRANCH  11  14
ENDBRANCH   6   8
BRANCH   1  21
HETATM   21  N1  UNL     1      24.626   4.420  50.159  1.00  0.00    -0.323 N 
HETATM   22  C8  UNL     1      23.941   3.227  49.881  1.00  0.00     0.259 C 
HETATM   23  O2  UNL     1      23.731   3.019  48.658  1.00  0.00    -0.267 OA
HETATM   24  H8  UNL     1      24.800   4.591  51.169  1.00  0.00     0.169 HD
BRANCH  22  25
HETATM   25  C7  UNL     1      23.450   2.216  50.797  1.00  0.00     0.065 A 
HETATM   26  C2  UNL     1      23.993   1.791  51.988  1.00  0.00     0.084 A 
HETATM   27  C3  UNL     1      23.465   0.823  52.805  1.00  0.00     0.038 A 
HETATM   28  C4  UNL     1      22.301   0.214  52.421  1.00  0.00     0.003 A 
HETATM   29  C5  UNL     1      21.685   0.574  51.247  1.00  0.00     0.001 A 
HETATM   30  C6  UNL     1      22.268   1.546  50.482  1.00  0.00     0.020 A 
BRANCH  26  31
HETATM   31  O1  UNL     1      25.163   2.390  52.390  1.00  0.00    -0.355 OA
HETATM   32  C1  UNL     1      25.719   2.158  53.662  1.00  0.00     0.210 C 
ENDBRANCH  26  31
ENDBRANCH  22  25
ENDBRANCH   1  21
TORSDOF 5
ENDMDL
MODEL 9
REMARK VINA RESULT:      -8.6      3.368      6.533
REMARK  5 active torsions:
REMARK  status: ('A' for Active; 'I' for Inactive)
REMARK    1  A    between atoms: O1_2  and  C2_3 
REMARK    2  A    between atoms: C7_8  and  C8_9 
REMARK       I    between atoms: C8_9  and  N1_11 
REMARK    3  A    between atoms: N1_11  and  C9_12 
REMARK    4  A    between atoms: C14_17  and  N2_18 
REMARK    5  A    between atoms: C17_21  and  C18_22 
ROOT
HETATM    1  C9  UNL     1      23.408   0.103  53.024  1.00  0.00     0.037 A 
HETATM    2  C10 UNL     1      22.227  -0.560  53.277  1.00  0.00     0.030 A 
HETATM    3  C11 UNL     1      20.964  -0.114  52.962  1.00  0.00     0.011 A 
HETATM    4  C12 UNL     1      20.863   1.108  52.336  1.00  0.00    -0.035 A 
HETATM    5  C13 UNL     1      19.499   1.612  51.990  1.00  0.00     0.050 C 
HETATM    6  C14 UNL     1      21.991   1.836  52.046  1.00  0.00     0.043 A 
HETATM    7  C23 UNL     1      23.215   1.314  52.397  1.00  0.00     0.059 A 
ENDROOT
BRANCH   6   8
HETATM    8  N2  UNL     1      21.924   3.097  51.397  1.00  0.00    -0.338 N 
HETATM    9  C15 UNL     1      22.065   4.183  52.313  1.00  0.00     0.095 A 
HETATM   10  C16 UNL     1      22.029   5.458  51.890  1.00  0.00     0.049 A 
HETATM   11  C17 UNL     1      21.840   5.688  50.464  1.00  0.00     0.065 A 
HETATM   12  N5  UNL     1      21.712   4.712  49.637  1.00  0.00    -0.269 NA
HETATM   13  C22 UNL     1      21.735   3.315  49.976  1.00  0.00     0.279 A 
BRANCH  11  14
HETATM   14  C18 UNL     1      21.789   7.040  49.920  1.00  0.00     0.009 A 
HETATM   15  C19 UNL     1      20.698   7.783  49.969  1.00  0.00     0.009 A 
HETATM   16  C20 UNL     1      20.518   9.153  49.460  1.00  0.00     0.169 A 
HETATM   17  N3  UNL     1      21.736   9.614  48.871  1.00  0.00    -0.311 N 
HETATM   18  N4  UNL     1      22.909   8.864  48.799  1.00  0.00    -0.191 NA
HETATM   19  H19 UNL     1      21.598  10.590  48.512  1.00  0.00     0.182 HD
HETATM   20  C21 UNL     1      22.915   7.672  49.291  1.00  0.00     0.151 A 
ENDBRANCH  11  14
ENDBRANCH   6   8
BRANCH   1  21
HETATM   21  N1  UNL     1      24.709  -0.342  53.341  1.00  0.00    -0.323 N 
HETATM   22  C8  UNL     1      25.946  -0.085  52.729  1.00  0.00     0.259 C 
HETATM   23  O2  UNL     1      25.884   0.673  51.727  1.00  0.00    -0.267 OA
HETATM   24  H8  UNL     1      24.759  -0.968  54.169  1.00  0.00     0.169 HD
BRANCH  22  25
HETATM   25  C7  UNL     1      27.265  -0.566  53.091  1.00  0.00     0.065 A 
HETATM   26  C2  UNL     1      28.262   0.081  53.784  1.00  0.00     0.084 A 
HETATM   27  C3  UNL     1      29.492  -0.444  54.089  1.00  0.00     0.038 A 
HETATM   28  C4  UNL     1      29.773  -1.720  53.678  1.00  0.00     0.003 A 
HETATM   29  C5  UNL     1      28.837  -2.445  52.980  1.00  0.00     0.001 A 
HETATM   30  C6  UNL     1      27.633  -1.856  52.711  1.00  0.00     0.020 A 
BRANCH  26  31
HETATM   31  O1  UNL     1      27.999   1.363  54.205  1.00  0.00    -0.355 OA
HETATM   32  C1  UNL     1      28.661   2.477  53.656  1.00  0.00     0.210 C 
ENDBRANCH  26  31
ENDBRANCH  22  25
ENDBRANCH   1  21
TORSDOF 5
ENDMDL
