MODEL 1
REMARK VINA RESULT:      -8.5      0.000      0.000
REMARK  4 active torsions:
REMARK  status: ('A' for Active; 'I' for Inactive)
REMARK    1  A    between atoms: C1_2  and  C2_4 
REMARK    2  A    between atoms: C2_4  and  O1_7 
REMARK    3  A    between atoms: O1_7  and  C3_8 
REMARK    4  A    between atoms: C7_12  and  N1_13 
ROOT
HETATM    1  N1  UNL     1      22.986   3.201  52.289  1.00  0.00    -0.283 N 
HETATM    2  C8  UNL     1      22.078   1.983  52.091  1.00  0.00     0.020 C 
HETATM    3  C9  UNL     1      22.800   1.517  50.948  1.00  0.00     0.025 C 
HETATM    4  C10 UNL     1      21.844   1.777  49.651  1.00  0.00     0.003 C 
HETATM    5  C11 UNL     1      21.075   3.033  49.581  1.00  0.00     0.011 C 
HETATM    6  C12 UNL     1      20.521   3.279  51.019  1.00  0.00     0.008 C 
HETATM    7  C13 UNL     1      19.783   2.715  52.033  1.00  0.00    -0.009 C 
HETATM    8  C14 UNL     1      20.756   1.749  52.836  1.00  0.00     0.085 C 
HETATM    9  C15 UNL     1      21.446   4.547  50.786  1.00  0.00     0.396 A 
HETATM   10  C16 UNL     1      21.225   5.183  49.649  1.00  0.00     0.139 A 
HETATM   11  C17 UNL     1      22.326   5.914  50.332  1.00  0.00     0.495 A 
HETATM   12  N2  UNL     1      22.635   5.333  51.490  1.00  0.00     0.237 N 
HETATM   13  C18 UNL     1      22.906   4.748  52.600  1.00  0.00     0.533 A 
HETATM   14  N3  UNL     1      22.555   5.278  51.442  1.00  0.00     0.237 N 
ENDROOT
BRANCH   1  15
HETATM   15  C7  UNL     1      24.356   2.901  51.893  1.00  0.00     0.041 A 
HETATM   16  C6  UNL     1      25.229   2.968  50.770  1.00  0.00     0.030 A 
HETATM   17  C5  UNL     1      26.542   2.618  50.896  1.00  0.00     0.005 A 
HETATM   18  C4  UNL     1      26.984   2.203  52.126  1.00  0.00     0.037 A 
HETATM   19  C3  UNL     1      26.186   2.123  53.220  1.00  0.00     0.077 A 
HETATM   20  C19 UNL     1      24.825   2.475  53.138  1.00  0.00     0.066 A 
BRANCH  19  21
HETATM   21  O1  UNL     1      26.846   1.676  54.384  1.00  0.00    -0.279 OA
BRANCH  21  22
HETATM   22  C2  UNL     1      26.977   0.279  54.537  1.00  0.00     0.418 C 
HETATM   23  F3  UNL     1      26.338  -0.077  55.703  1.00  0.00    -0.169 F 
HETATM   24  F4  UNL     1      26.434  -0.420  53.505  1.00  0.00    -0.169 F 
BRANCH  22  25
HETATM   25  C1  UNL     1      28.453  -0.089  54.645  1.00  0.00     0.455 C 
HETATM   26  F1  UNL     1      29.169   1.017  55.073  1.00  0.00    -0.205 F 
HETATM   27  F2  UNL     1      28.963  -0.452  53.415  1.00  0.00    -0.205 F 
ENDBRANCH  22  25
ENDBRANCH  21  22
ENDBRANCH  19  21
ENDBRANCH   1  15
TORSDOF 4
ENDMDL
MODEL 2
REMARK VINA RESULT:      -8.1      1.694      3.013
REMARK  4 active torsions:
REMARK  status: ('A' for Active; 'I' for Inactive)
REMARK    1  A    between atoms: C1_2  and  C2_4 
REMARK    2  A    between atoms: C2_4  and  O1_7 
REMARK    3  A    between atoms: O1_7  and  C3_8 
REMARK    4  A    between atoms: C7_12  and  N1_13 
ROOT
HETATM    1  N1  UNL     1      24.077   3.726  50.897  1.00  0.00    -0.283 N 
HETATM    2  C8  UNL     1      23.412   4.893  51.634  1.00  0.00     0.020 C 
HETATM    3  C9  UNL     1      22.520   4.045  52.362  1.00  0.00     0.025 C 
HETATM    4  C10 UNL     1      21.031   4.283  51.738  1.00  0.00     0.003 C 
HETATM    5  C11 UNL     1      20.893   4.426  50.277  1.00  0.00     0.011 C 
HETATM    6  C12 UNL     1      22.084   5.324  49.818  1.00  0.00     0.008 C 
HETATM    7  C13 UNL     1      22.700   6.537  50.022  1.00  0.00    -0.009 C 
HETATM    8  C14 UNL     1      23.631   6.375  51.300  1.00  0.00     0.085 C 
HETATM    9  C15 UNL     1      22.359   3.967  49.044  1.00  0.00     0.396 A 
HETATM   10  C16 UNL     1      21.319   3.496  48.379  1.00  0.00     0.139 A 
HETATM   11  C17 UNL     1      22.429   2.529  48.163  1.00  0.00     0.495 A 
HETATM   12  N2  UNL     1      23.526   2.911  48.814  1.00  0.00     0.237 N 
HETATM   13  C18 UNL     1      24.565   3.311  49.454  1.00  0.00     0.533 A 
HETATM   14  N3  UNL     1      23.446   2.983  48.831  1.00  0.00     0.237 N 
ENDROOT
BRANCH   1  15
HETATM   15  C7  UNL     1      24.120   2.535  51.737  1.00  0.00     0.041 A 
HETATM   16  C6  UNL     1      23.453   1.294  51.942  1.00  0.00     0.030 A 
HETATM   17  C5  UNL     1      23.925   0.401  52.861  1.00  0.00     0.005 A 
HETATM   18  C4  UNL     1      25.047   0.740  53.572  1.00  0.00     0.037 A 
HETATM   19  C3  UNL     1      25.711   1.913  53.409  1.00  0.00     0.077 A 
HETATM   20  C19 UNL     1      25.262   2.862  52.472  1.00  0.00     0.066 A 
BRANCH  19  21
HETATM   21  O1  UNL     1      26.842   2.054  54.240  1.00  0.00    -0.279 OA
BRANCH  21  22
HETATM   22  C2  UNL     1      28.098   1.819  53.641  1.00  0.00     0.418 C 
HETATM   23  F3  UNL     1      27.874   1.337  52.371  1.00  0.00    -0.169 F 
HETATM   24  F4  UNL     1      28.864   2.939  53.561  1.00  0.00    -0.169 F 
BRANCH  22  25
HETATM   25  C1  UNL     1      28.861   0.771  54.445  1.00  0.00     0.455 C 
HETATM   26  F1  UNL     1      29.985   0.380  53.735  1.00  0.00    -0.205 F 
HETATM   27  F2  UNL     1      28.091  -0.358  54.641  1.00  0.00    -0.205 F 
ENDBRANCH  22  25
ENDBRANCH  21  22
ENDBRANCH  19  21
ENDBRANCH   1  15
TORSDOF 4
ENDMDL
MODEL 3
REMARK VINA RESULT:      -8.1      1.785      3.273
REMARK  4 active torsions:
REMARK  status: ('A' for Active; 'I' for Inactive)
REMARK    1  A    between atoms: C1_2  and  C2_4 
REMARK    2  A    between atoms: C2_4  and  O1_7 
REMARK    3  A    between atoms: O1_7  and  C3_8 
REMARK    4  A    between atoms: C7_12  and  N1_13 
ROOT
HETATM    1  N1  UNL     1      23.760   2.228  51.001  1.00  0.00    -0.283 N 
HETATM    2  C8  UNL     1      24.604   3.467  51.313  1.00  0.00     0.020 C 
HETATM    3  C9  UNL     1      24.340   3.405  52.717  1.00  0.00     0.025 C 
HETATM    4  C10 UNL     1      23.343   4.649  53.064  1.00  0.00     0.003 C 
HETATM    5  C11 UNL     1      22.257   4.968  52.118  1.00  0.00     0.011 C 
HETATM    6  C12 UNL     1      22.878   4.840  50.692  1.00  0.00     0.008 C 
HETATM    7  C13 UNL     1      23.903   5.277  49.886  1.00  0.00    -0.009 C 
HETATM    8  C14 UNL     1      25.186   4.417  50.258  1.00  0.00     0.085 C 
HETATM    9  C15 UNL     1      21.742   3.732  50.673  1.00  0.00     0.396 A 
HETATM   10  C16 UNL     1      20.556   4.159  51.070  1.00  0.00     0.139 A 
HETATM   11  C17 UNL     1      20.395   2.717  50.743  1.00  0.00     0.495 A 
HETATM   12  N2  UNL     1      21.552   2.188  50.346  1.00  0.00     0.237 N 
HETATM   13  C18 UNL     1      22.682   1.712  49.967  1.00  0.00     0.533 A 
HETATM   14  N3  UNL     1      21.565   2.293  50.369  1.00  0.00     0.237 N 
ENDROOT
BRANCH   1  15
HETATM   15  C7  UNL     1      23.817   1.267  52.095  1.00  0.00     0.041 A 
HETATM   16  C6  UNL     1      22.989   0.647  53.074  1.00  0.00     0.030 A 
HETATM   17  C5  UNL     1      23.500  -0.314  53.900  1.00  0.00     0.005 A 
HETATM   18  C4  UNL     1      24.820  -0.653  53.754  1.00  0.00     0.037 A 
HETATM   19  C3  UNL     1      25.643  -0.085  52.836  1.00  0.00     0.077 A 
HETATM   20  C19 UNL     1      25.160   0.909  51.964  1.00  0.00     0.066 A 
BRANCH  19  21
HETATM   21  O1  UNL     1      26.962  -0.585  52.857  1.00  0.00    -0.279 OA
BRANCH  21  22
HETATM   22  C2  UNL     1      27.923   0.199  53.531  1.00  0.00     0.418 C 
HETATM   23  F3  UNL     1      28.265   1.246  52.705  1.00  0.00    -0.169 F 
HETATM   24  F4  UNL     1      27.466   0.698  54.711  1.00  0.00    -0.169 F 
BRANCH  22  25
HETATM   25  C1  UNL     1      29.164  -0.642  53.812  1.00  0.00     0.455 C 
HETATM   26  F1  UNL     1      30.291   0.063  53.419  1.00  0.00    -0.205 F 
HETATM   27  F2  UNL     1      29.143  -1.813  53.083  1.00  0.00    -0.205 F 
ENDBRANCH  22  25
ENDBRANCH  21  22
ENDBRANCH  19  21
ENDBRANCH   1  15
TORSDOF 4
ENDMDL
MODEL 4
REMARK VINA RESULT:      -7.8      3.219      4.795
REMARK  4 active torsions:
REMARK  status: ('A' for Active; 'I' for Inactive)
REMARK    1  A    between atoms: C1_2  and  C2_4 
REMARK    2  A    between atoms: C2_4  and  O1_7 
REMARK    3  A    between atoms: O1_7  and  C3_8 
REMARK    4  A    between atoms: C7_12  and  N1_13 
ROOT
HETATM    1  N1  UNL     1      23.019   3.236  50.855  1.00  0.00    -0.283 N 
HETATM    2  C8  UNL     1      23.490   2.994  49.418  1.00  0.00     0.020 C 
HETATM    3  C9  UNL     1      24.820   2.649  49.815  1.00  0.00     0.025 C 
HETATM    4  C10 UNL     1      25.782   3.887  49.360  1.00  0.00     0.003 C 
HETATM    5  C11 UNL     1      25.289   5.266  49.535  1.00  0.00     0.011 C 
HETATM    6  C12 UNL     1      23.789   5.244  49.104  1.00  0.00     0.008 C 
HETATM    7  C13 UNL     1      22.937   4.917  48.075  1.00  0.00    -0.009 C 
HETATM    8  C14 UNL     1      22.683   3.350  48.162  1.00  0.00     0.085 C 
HETATM    9  C15 UNL     1      23.701   5.670  50.629  1.00  0.00     0.396 A 
HETATM   10  C16 UNL     1      24.495   6.672  50.964  1.00  0.00     0.139 A 
HETATM   11  C17 UNL     1      23.776   6.274  52.204  1.00  0.00     0.495 A 
HETATM   12  N2  UNL     1      22.957   5.250  51.970  1.00  0.00     0.237 N 
HETATM   13  C18 UNL     1      22.178   4.264  51.709  1.00  0.00     0.533 A 
HETATM   14  N3  UNL     1      23.009   5.278  51.879  1.00  0.00     0.237 N 
ENDROOT
BRANCH   1  15
HETATM   15  C7  UNL     1      23.700   2.343  51.785  1.00  0.00     0.041 A 
HETATM   16  C6  UNL     1      24.885   2.247  52.569  1.00  0.00     0.030 A 
HETATM   17  C5  UNL     1      25.077   1.182  53.402  1.00  0.00     0.005 A 
HETATM   18  C4  UNL     1      24.100   0.221  53.454  1.00  0.00     0.037 A 
HETATM   19  C3  UNL     1      22.958   0.273  52.723  1.00  0.00     0.077 A 
HETATM   20  C19 UNL     1      22.717   1.353  51.852  1.00  0.00     0.066 A 
BRANCH  19  21
HETATM   21  O1  UNL     1      22.089  -0.818  52.933  1.00  0.00    -0.279 OA
BRANCH  21  22
HETATM   22  C2  UNL     1      21.112  -0.662  53.939  1.00  0.00     0.418 C 
HETATM   23  F3  UNL     1      21.047  -1.840  54.648  1.00  0.00    -0.169 F 
HETATM   24  F4  UNL     1      21.393   0.355  54.796  1.00  0.00    -0.169 F 
BRANCH  22  25
HETATM   25  C1  UNL     1      19.755  -0.390  53.298  1.00  0.00     0.455 C 
HETATM   26  F1  UNL     1      18.900  -1.445  53.573  1.00  0.00    -0.205 F 
HETATM   27  F2  UNL     1      19.866  -0.305  51.925  1.00  0.00    -0.205 F 
ENDBRANCH  22  25
ENDBRANCH  21  22
ENDBRANCH  19  21
ENDBRANCH   1  15
TORSDOF 4
ENDMDL
MODEL 5
REMARK VINA RESULT:      -7.7      1.950      2.878
REMARK  4 active torsions:
REMARK  status: ('A' for Active; 'I' for Inactive)
REMARK    1  A    between atoms: C1_2  and  C2_4 
REMARK    2  A    between atoms: C2_4  and  O1_7 
REMARK    3  A    between atoms: O1_7  and  C3_8 
REMARK    4  A    between atoms: C7_12  and  N1_13 
ROOT
HETATM    1  N1  UNL     1      22.323   1.886  50.695  1.00  0.00    -0.283 N 
HETATM    2  C8  UNL     1      22.801   2.333  49.310  1.00  0.00     0.020 C 
HETATM    3  C9  UNL     1      23.517   3.461  49.821  1.00  0.00     0.025 C 
HETATM    4  C10 UNL     1      22.680   4.790  49.378  1.00  0.00     0.003 C 
HETATM    5  C11 UNL     1      21.207   4.752  49.447  1.00  0.00     0.011 C 
HETATM    6  C12 UNL     1      20.787   3.349  48.907  1.00  0.00     0.008 C 
HETATM    7  C13 UNL     1      20.902   2.494  47.836  1.00  0.00    -0.009 C 
HETATM    8  C14 UNL     1      22.299   1.751  47.982  1.00  0.00     0.085 C 
HETATM    9  C15 UNL     1      20.249   3.318  50.399  1.00  0.00     0.396 A 
HETATM   10  C16 UNL     1      19.525   4.371  50.741  1.00  0.00     0.139 A 
HETATM   11  C17 UNL     1      19.589   3.496  51.942  1.00  0.00     0.495 A 
HETATM   12  N2  UNL     1      20.317   2.407  51.700  1.00  0.00     0.237 N 
HETATM   13  C18 UNL     1      21.024   1.370  51.431  1.00  0.00     0.533 A 
HETATM   14  N3  UNL     1      20.314   2.470  51.612  1.00  0.00     0.237 N 
ENDROOT
BRANCH   1  15
HETATM   15  C7  UNL     1      23.316   2.195  51.716  1.00  0.00     0.041 A 
HETATM   16  C6  UNL     1      23.782   3.271  52.524  1.00  0.00     0.030 A 
HETATM   17  C5  UNL     1      24.756   3.061  53.457  1.00  0.00     0.005 A 
HETATM   18  C4  UNL     1      25.264   1.793  53.585  1.00  0.00     0.037 A 
HETATM   19  C3  UNL     1      24.849   0.741  52.833  1.00  0.00     0.077 A 
HETATM   20  C19 UNL     1      23.846   0.912  51.860  1.00  0.00     0.066 A 
BRANCH  19  21
HETATM   21  O1  UNL     1      25.503  -0.472  53.132  1.00  0.00    -0.279 OA
BRANCH  21  22
HETATM   22  C2  UNL     1      26.682  -0.749  52.407  1.00  0.00     0.418 C 
HETATM   23  F3  UNL     1      26.616  -2.056  51.981  1.00  0.00    -0.169 F 
HETATM   24  F4  UNL     1      26.841   0.061  51.327  1.00  0.00    -0.169 F 
BRANCH  22  25
HETATM   25  C1  UNL     1      27.894  -0.581  53.317  1.00  0.00     0.455 C 
HETATM   26  F1  UNL     1      28.472   0.656  53.085  1.00  0.00    -0.205 F 
HETATM   27  F2  UNL     1      28.853  -1.535  53.043  1.00  0.00    -0.205 F 
ENDBRANCH  22  25
ENDBRANCH  21  22
ENDBRANCH  19  21
ENDBRANCH   1  15
TORSDOF 4
ENDMDL
MODEL 6
REMARK VINA RESULT:      -7.6      3.200      5.328
REMARK  4 active torsions:
REMARK  status: ('A' for Active; 'I' for Inactive)
REMARK    1  A    between atoms: C1_2  and  C2_4 
REMARK    2  A    between atoms: C2_4  and  O1_7 
REMARK    3  A    between atoms: O1_7  and  C3_8 
REMARK    4  A    between atoms: C7_12  and  N1_13 
ROOT
HETATM    1  N1  UNL     1      23.438   3.916  51.221  1.00  0.00    -0.283 N 
HETATM    2  C8  UNL     1      22.870   5.251  50.731  1.00  0.00     0.020 C 
HETATM    3  C9  UNL     1      22.410   4.704  49.492  1.00  0.00     0.025 C 
HETATM    4  C10 UNL     1      23.387   5.296  48.326  1.00  0.00     0.003 C 
HETATM    5  C11 UNL     1      24.832   5.399  48.601  1.00  0.00     0.011 C 
HETATM    6  C12 UNL     1      24.955   5.928  50.063  1.00  0.00     0.008 C 
HETATM    7  C13 UNL     1      24.576   6.944  50.910  1.00  0.00    -0.009 C 
HETATM    8  C14 UNL     1      23.107   6.605  51.414  1.00  0.00     0.085 C 
HETATM    9  C15 UNL     1      25.661   4.511  50.151  1.00  0.00     0.396 A 
HETATM   10  C16 UNL     1      26.578   4.299  49.224  1.00  0.00     0.139 A 
HETATM   11  C17 UNL     1      26.525   3.064  50.052  1.00  0.00     0.495 A 
HETATM   12  N2  UNL     1      25.609   3.175  51.012  1.00  0.00     0.237 N 
HETATM   13  C18 UNL     1      24.718   3.317  51.926  1.00  0.00     0.533 A 
HETATM   14  N3  UNL     1      25.611   3.266  50.953  1.00  0.00     0.237 N 
ENDROOT
BRANCH   1  15
HETATM   15  C7  UNL     1      22.640   2.798  50.734  1.00  0.00     0.041 A 
HETATM   16  C6  UNL     1      22.442   1.994  49.575  1.00  0.00     0.030 A 
HETATM   17  C5  UNL     1      21.575   0.940  49.607  1.00  0.00     0.005 A 
HETATM   18  C4  UNL     1      20.910   0.687  50.779  1.00  0.00     0.037 A 
HETATM   19  C3  UNL     1      21.068   1.429  51.905  1.00  0.00     0.077 A 
HETATM   20  C19 UNL     1      21.952   2.525  51.918  1.00  0.00     0.066 A 
BRANCH  19  21
HETATM   21  O1  UNL     1      20.289   0.992  52.997  1.00  0.00    -0.279 OA
BRANCH  21  22
HETATM   22  C2  UNL     1      20.966   0.276  54.007  1.00  0.00     0.418 C 
HETATM   23  F3  UNL     1      22.313   0.524  53.867  1.00  0.00    -0.169 F 
HETATM   24  F4  UNL     1      20.578   0.635  55.260  1.00  0.00    -0.169 F 
BRANCH  22  25
HETATM   25  C1  UNL     1      20.713  -1.218  53.835  1.00  0.00     0.455 C 
HETATM   26  F1  UNL     1      19.349  -1.442  53.742  1.00  0.00    -0.205 F 
HETATM   27  F2  UNL     1      21.167  -1.926  54.929  1.00  0.00    -0.205 F 
ENDBRANCH  22  25
ENDBRANCH  21  22
ENDBRANCH  19  21
ENDBRANCH   1  15
TORSDOF 4
ENDMDL
MODEL 7
REMARK VINA RESULT:      -7.2      2.048      3.616
REMARK  4 active torsions:
REMARK  status: ('A' for Active; 'I' for Inactive)
REMARK    1  A    between atoms: C1_2  and  C2_4 
REMARK    2  A    between atoms: C2_4  and  O1_7 
REMARK    3  A    between atoms: O1_7  and  C3_8 
REMARK    4  A    between atoms: C7_12  and  N1_13 
ROOT
HETATM    1  N1  UNL     1      23.881   3.415  49.904  1.00  0.00    -0.283 N 
HETATM    2  C8  UNL     1      24.618   4.674  50.373  1.00  0.00     0.020 C 
HETATM    3  C9  UNL     1      23.751   4.874  51.493  1.00  0.00     0.025 C 
HETATM    4  C10 UNL     1      22.835   6.180  51.150  1.00  0.00     0.003 C 
HETATM    5  C11 UNL     1      22.322   6.342  49.776  1.00  0.00     0.011 C 
HETATM    6  C12 UNL     1      23.497   5.943  48.830  1.00  0.00     0.008 C 
HETATM    7  C13 UNL     1      24.812   6.206  48.523  1.00  0.00    -0.009 C 
HETATM    8  C14 UNL     1      25.701   5.403  49.567  1.00  0.00     0.085 C 
HETATM    9  C15 UNL     1      22.384   4.873  48.465  1.00  0.00     0.396 A 
HETATM   10  C16 UNL     1      21.195   5.389  48.205  1.00  0.00     0.139 A 
HETATM   11  C17 UNL     1      21.053   3.914  48.067  1.00  0.00     0.495 A 
HETATM   12  N2  UNL     1      22.205   3.299  48.328  1.00  0.00     0.237 N 
HETATM   13  C18 UNL     1      23.331   2.740  48.586  1.00  0.00     0.533 A 
HETATM   14  N3  UNL     1      22.217   3.407  48.339  1.00  0.00     0.237 N 
ENDROOT
BRANCH   1  15
HETATM   15  C7  UNL     1      23.347   2.669  51.037  1.00  0.00     0.041 A 
HETATM   16  C6  UNL     1      22.119   2.372  51.693  1.00  0.00     0.030 A 
HETATM   17  C5  UNL     1      22.093   1.508  52.750  1.00  0.00     0.005 A 
HETATM   18  C4  UNL     1      23.277   0.945  53.151  1.00  0.00     0.037 A 
HETATM   19  C3  UNL     1      24.469   1.203  52.555  1.00  0.00     0.077 A 
HETATM   20  C19 UNL     1      24.543   2.087  51.462  1.00  0.00     0.066 A 
BRANCH  19  21
HETATM   21  O1  UNL     1      25.560   0.514  53.126  1.00  0.00    -0.279 OA
BRANCH  21  22
HETATM   22  C2  UNL     1      26.341   1.232  54.057  1.00  0.00     0.418 C 
HETATM   23  F3  UNL     1      25.743   2.457  54.251  1.00  0.00    -0.169 F 
HETATM   24  F4  UNL     1      26.450   0.599  55.255  1.00  0.00    -0.169 F 
BRANCH  22  25
HETATM   25  C1  UNL     1      27.743   1.444  53.494  1.00  0.00     0.455 C 
HETATM   26  F1  UNL     1      28.177   2.719  53.819  1.00  0.00    -0.205 F 
HETATM   27  F2  UNL     1      27.741   1.354  52.118  1.00  0.00    -0.205 F 
ENDBRANCH  22  25
ENDBRANCH  21  22
ENDBRANCH  19  21
ENDBRANCH   1  15
TORSDOF 4
ENDMDL
MODEL 8
REMARK VINA RESULT:      -7.2      2.133      3.165
REMARK  4 active torsions:
REMARK  status: ('A' for Active; 'I' for Inactive)
REMARK    1  A    between atoms: C1_2  and  C2_4 
REMARK    2  A    between atoms: C2_4  and  O1_7 
REMARK    3  A    between atoms: O1_7  and  C3_8 
REMARK    4  A    between atoms: C7_12  and  N1_13 
ROOT
HETATM    1  N1  UNL     1      23.184   4.895  50.561  1.00  0.00    -0.283 N 
HETATM    2  C8  UNL     1      22.120   4.459  49.549  1.00  0.00     0.020 C 
HETATM    3  C9  UNL     1      23.060   4.333  48.478  1.00  0.00     0.025 C 
HETATM    4  C10 UNL     1      22.770   5.569  47.452  1.00  0.00     0.003 C 
HETATM    5  C11 UNL     1      22.458   6.896  48.014  1.00  0.00     0.011 C 
HETATM    6  C12 UNL     1      21.497   6.638  49.216  1.00  0.00     0.008 C 
HETATM    7  C13 UNL     1      20.309   6.047  49.578  1.00  0.00    -0.009 C 
HETATM    8  C14 UNL     1      20.606   4.502  49.799  1.00  0.00     0.085 C 
HETATM    9  C15 UNL     1      22.750   7.312  49.918  1.00  0.00     0.396 A 
HETATM   10  C16 UNL     1      23.153   8.437  49.353  1.00  0.00     0.139 A 
HETATM   11  C17 UNL     1      24.074   8.186  50.494  1.00  0.00     0.495 A 
HETATM   12  N2  UNL     1      23.756   7.055  51.122  1.00  0.00     0.237 N 
HETATM   13  C18 UNL     1      23.420   5.960  51.703  1.00  0.00     0.533 A 
HETATM   14  N3  UNL     1      23.688   7.071  51.039  1.00  0.00     0.237 N 
ENDROOT
BRANCH   1  15
HETATM   15  C7  UNL     1      24.464   4.257  50.282  1.00  0.00     0.041 A 
HETATM   16  C6  UNL     1      25.681   4.468  49.572  1.00  0.00     0.030 A 
HETATM   17  C5  UNL     1      26.699   3.563  49.665  1.00  0.00     0.005 A 
HETATM   18  C4  UNL     1      26.510   2.458  50.454  1.00  0.00     0.037 A 
HETATM   19  C3  UNL     1      25.366   2.218  51.145  1.00  0.00     0.077 A 
HETATM   20  C19 UNL     1      24.290   3.124  51.079  1.00  0.00     0.066 A 
BRANCH  19  21
HETATM   21  O1  UNL     1      25.386   1.024  51.895  1.00  0.00    -0.279 OA
BRANCH  21  22
HETATM   22  C2  UNL     1      25.128   1.144  53.278  1.00  0.00     0.418 C 
HETATM   23  F3  UNL     1      25.807   2.249  53.738  1.00  0.00    -0.169 F 
HETATM   24  F4  UNL     1      23.806   1.289  53.558  1.00  0.00    -0.169 F 
BRANCH  22  25
HETATM   25  C1  UNL     1      25.642  -0.095  54.004  1.00  0.00     0.455 C 
HETATM   26  F1  UNL     1      26.043  -1.038  53.072  1.00  0.00    -0.205 F 
HETATM   27  F2  UNL     1      24.644  -0.672  54.762  1.00  0.00    -0.205 F 
ENDBRANCH  22  25
ENDBRANCH  21  22
ENDBRANCH  19  21
ENDBRANCH   1  15
TORSDOF 4
ENDMDL
MODEL 9
REMARK VINA RESULT:      -7.1      3.143      4.329
REMARK  4 active torsions:
REMARK  status: ('A' for Active; 'I' for Inactive)
REMARK    1  A    between atoms: C1_2  and  C2_4 
REMARK    2  A    between atoms: C2_4  and  O1_7 
REMARK    3  A    between atoms: O1_7  and  C3_8 
REMARK    4  A    between atoms: C7_12  and  N1_13 
ROOT
HETATM    1  N1  UNL     1      22.269   3.270  50.103  1.00  0.00    -0.283 N 
HETATM    2  C8  UNL     1      23.052   3.130  48.794  1.00  0.00     0.020 C 
HETATM    3  C9  UNL     1      24.282   3.572  49.377  1.00  0.00     0.025 C 
HETATM    4  C10 UNL     1      24.578   5.060  48.777  1.00  0.00     0.003 C 
HETATM    5  C11 UNL     1      23.449   5.998  48.626  1.00  0.00     0.011 C 
HETATM    6  C12 UNL     1      22.261   5.154  48.067  1.00  0.00     0.008 C 
HETATM    7  C13 UNL     1      21.884   4.310  47.048  1.00  0.00    -0.009 C 
HETATM    8  C14 UNL     1      22.420   2.862  47.422  1.00  0.00     0.085 C 
HETATM    9  C15 UNL     1      21.698   5.658  49.461  1.00  0.00     0.396 A 
HETATM   10  C16 UNL     1      21.821   6.959  49.662  1.00  0.00     0.139 A 
HETATM   11  C17 UNL     1      21.176   6.405  50.883  1.00  0.00     0.495 A 
HETATM   12  N2  UNL     1      21.023   5.085  50.782  1.00  0.00     0.237 N 
HETATM   13  C18 UNL     1      20.891   3.815  50.651  1.00  0.00     0.533 A 
HETATM   14  N3  UNL     1      21.071   5.124  50.692  1.00  0.00     0.237 N 
ENDROOT
BRANCH   1  15
HETATM   15  C7  UNL     1      23.116   2.979  51.253  1.00  0.00     0.041 A 
HETATM   16  C6  UNL     1      24.000   3.612  52.173  1.00  0.00     0.030 A 
HETATM   17  C5  UNL     1      24.547   2.903  53.203  1.00  0.00     0.005 A 
HETATM   18  C4  UNL     1      24.221   1.576  53.318  1.00  0.00     0.037 A 
HETATM   19  C3  UNL     1      23.385   0.934  52.462  1.00  0.00     0.077 A 
HETATM   20  C19 UNL     1      22.797   1.626  51.386  1.00  0.00     0.066 A 
BRANCH  19  21
HETATM   21  O1  UNL     1      23.185  -0.428  52.767  1.00  0.00    -0.279 OA
BRANCH  21  22
HETATM   22  C2  UNL     1      21.896  -0.793  53.210  1.00  0.00     0.418 C 
HETATM   23  F3  UNL     1      21.012  -0.541  52.185  1.00  0.00    -0.169 F 
HETATM   24  F4  UNL     1      21.807  -2.104  53.559  1.00  0.00    -0.169 F 
BRANCH  22  25
HETATM   25  C1  UNL     1      21.511   0.054  54.419  1.00  0.00     0.455 C 
HETATM   26  F1  UNL     1      21.847  -0.625  55.579  1.00  0.00    -0.205 F 
HETATM   27  F2  UNL     1      20.149   0.272  54.456  1.00  0.00    -0.205 F 
ENDBRANCH  22  25
ENDBRANCH  21  22
ENDBRANCH  19  21
ENDBRANCH   1  15
TORSDOF 4
ENDMDL
