MODEL 1
REMARK VINA RESULT:      -8.8      0.000      0.000
REMARK  5 active torsions:
REMARK  status: ('A' for Active; 'I' for Inactive)
REMARK    1  A    between atoms: C1_2  and  C2_3 
REMARK       I    between atoms: C1_2  and  N1_12 
REMARK    2  A    between atoms: C2_3  and  O2_4 
REMARK    3  A    between atoms: O2_4  and  C3_5 
REMARK    4  A    between atoms: C13_19  and  N4_20 
REMARK    5  A    between atoms: N4_20  and  C14_21 
ROOT
HETATM    1  O1  UNL     1      22.065  -0.141  51.719  1.00  0.00    -0.270 OA
HETATM    2  C1  UNL     1      22.596  -0.412  52.827  1.00  0.00     0.252 C 
HETATM    3  N1  UNL     1      23.910  -0.068  53.284  1.00  0.00    -0.300 N 
HETATM    4  C9  UNL     1      24.434  -0.430  54.555  1.00  0.00     0.114 A 
HETATM    5  C10 UNL     1      25.631  -0.037  54.871  1.00  0.00     0.024 A 
HETATM    6  C11 UNL     1      26.351   0.650  54.049  1.00  0.00     0.086 A 
HETATM    7  N2  UNL     1      27.567   0.967  54.526  1.00  0.00    -0.240 NA
HETATM    8  C12 UNL     1      28.421   1.680  53.779  1.00  0.00     0.236 A 
HETATM    9  N3  UNL     1      28.057   2.073  52.559  1.00  0.00    -0.223 NA
HETATM   10  C13 UNL     1      26.877   1.798  52.022  1.00  0.00     0.143 A 
HETATM   11  C20 UNL     1      25.992   1.066  52.781  1.00  0.00     0.056 A 
HETATM   12  C21 UNL     1      24.766   0.692  52.442  1.00  0.00     0.117 A 
ENDROOT
BRANCH   2  13
HETATM   13  C2  UNL     1      21.773  -1.199  53.831  1.00  0.00     0.279 C 
BRANCH  13  14
HETATM   14  O2  UNL     1      20.470  -1.111  53.662  1.00  0.00    -0.342 OA
BRANCH  14  15
HETATM   15  C3  UNL     1      19.236  -1.339  53.383  1.00  0.00     0.069 A 
HETATM   16  C4  UNL     1      18.662  -0.366  52.546  1.00  0.00     0.040 A 
HETATM   17  C5  UNL     1      17.319  -0.485  52.157  1.00  0.00     0.045 A 
HETATM   18  C6  UNL     1      16.613  -1.557  52.614  1.00  0.00     0.116 A 
HETATM   19  F1  UNL     1      15.317  -1.691  52.251  1.00  0.00    -0.206 F 
HETATM   20  C7  UNL     1      17.145  -2.539  53.442  1.00  0.00     0.045 A 
HETATM   21  C8  UNL     1      18.470  -2.396  53.809  1.00  0.00     0.040 A 
ENDBRANCH  14  15
ENDBRANCH  13  14
ENDBRANCH   2  13
BRANCH  10  22
HETATM   22  N4  UNL     1      26.444   2.194  50.736  1.00  0.00    -0.340 N 
HETATM   23  H9  UNL     1      26.224   1.545  49.985  1.00  0.00     0.167 HD
BRANCH  22  24
HETATM   24  C14 UNL     1      26.231   3.501  50.223  1.00  0.00     0.035 A 
HETATM   25  C15 UNL     1      26.977   4.129  49.220  1.00  0.00     0.029 A 
HETATM   26  C16 UNL     1      26.720   5.392  48.774  1.00  0.00     0.004 A 
HETATM   27  C17 UNL     1      25.697   6.139  49.289  1.00  0.00     0.019 A 
HETATM   28  C18 UNL     1      24.897   5.581  50.302  1.00  0.00     0.013 A 
HETATM   29 BR1  UNL     1      23.495   6.660  50.982  1.00  0.00    -0.051 Br
HETATM   30  C19 UNL     1      25.246   4.315  50.668  1.00  0.00     0.048 A 
ENDBRANCH  22  24
ENDBRANCH  10  22
TORSDOF 5
ENDMDL
MODEL 2
REMARK VINA RESULT:      -8.7      4.776      7.154
REMARK  5 active torsions:
REMARK  status: ('A' for Active; 'I' for Inactive)
REMARK    1  A    between atoms: C1_2  and  C2_3 
REMARK       I    between atoms: C1_2  and  N1_12 
REMARK    2  A    between atoms: C2_3  and  O2_4 
REMARK    3  A    between atoms: O2_4  and  C3_5 
REMARK    4  A    between atoms: C13_19  and  N4_20 
REMARK    5  A    between atoms: N4_20  and  C14_21 
ROOT
HETATM    1  O1  UNL     1      25.527   2.767  52.962  1.00  0.00    -0.270 OA
HETATM    2  C1  UNL     1      24.659   2.008  52.458  1.00  0.00     0.252 C 
HETATM    3  N1  UNL     1      23.863   2.231  51.287  1.00  0.00    -0.300 N 
HETATM    4  C9  UNL     1      22.891   1.318  50.795  1.00  0.00     0.114 A 
HETATM    5  C10 UNL     1      22.250   1.616  49.707  1.00  0.00     0.024 A 
HETATM    6  C11 UNL     1      22.463   2.726  49.083  1.00  0.00     0.086 A 
HETATM    7  N2  UNL     1      21.711   2.884  47.981  1.00  0.00    -0.240 NA
HETATM    8  C12 UNL     1      21.829   3.992  47.236  1.00  0.00     0.236 A 
HETATM    9  N3  UNL     1      22.699   4.936  47.594  1.00  0.00    -0.223 NA
HETATM   10  C13 UNL     1      23.473   4.850  48.666  1.00  0.00     0.143 A 
HETATM   11  C20 UNL     1      23.359   3.717  49.439  1.00  0.00     0.056 A 
HETATM   12  C21 UNL     1      24.040   3.427  50.539  1.00  0.00     0.117 A 
ENDROOT
BRANCH   2  13
HETATM   13  C2  UNL     1      24.394   0.681  53.148  1.00  0.00     0.279 C 
BRANCH  13  14
HETATM   14  O2  UNL     1      25.463  -0.066  53.328  1.00  0.00    -0.342 OA
BRANCH  14  15
HETATM   15  C3  UNL     1      26.666  -0.509  53.423  1.00  0.00     0.069 A 
HETATM   16  C4  UNL     1      27.471   0.242  54.298  1.00  0.00     0.040 A 
HETATM   17  C5  UNL     1      28.810  -0.126  54.502  1.00  0.00     0.045 A 
HETATM   18  C6  UNL     1      29.284  -1.215  53.833  1.00  0.00     0.116 A 
HETATM   19  F1  UNL     1      30.571  -1.587  54.015  1.00  0.00    -0.206 F 
HETATM   20  C7  UNL     1      28.519  -1.981  52.962  1.00  0.00     0.045 A 
HETATM   21  C8  UNL     1      27.205  -1.596  52.780  1.00  0.00     0.040 A 
ENDBRANCH  14  15
ENDBRANCH  13  14
ENDBRANCH   2  13
BRANCH  10  22
HETATM   22  N4  UNL     1      24.411   5.821  49.086  1.00  0.00    -0.340 N 
HETATM   23  H9  UNL     1      24.203   6.562  49.750  1.00  0.00     0.167 HD
BRANCH  22  24
HETATM   24  C14 UNL     1      25.768   5.982  48.703  1.00  0.00     0.035 A 
HETATM   25  C15 UNL     1      26.802   5.064  48.913  1.00  0.00     0.029 A 
HETATM   26  C16 UNL     1      28.091   5.284  48.521  1.00  0.00     0.004 A 
HETATM   27  C17 UNL     1      28.460   6.437  47.886  1.00  0.00     0.019 A 
HETATM   28  C18 UNL     1      27.480   7.414  47.637  1.00  0.00     0.013 A 
HETATM   29 BR1  UNL     1      28.045   8.994  46.758  1.00  0.00    -0.051 Br
HETATM   30  C19 UNL     1      26.229   7.087  48.072  1.00  0.00     0.048 A 
ENDBRANCH  22  24
ENDBRANCH  10  22
TORSDOF 5
ENDMDL
MODEL 3
REMARK VINA RESULT:      -8.6      4.999      7.616
REMARK  5 active torsions:
REMARK  status: ('A' for Active; 'I' for Inactive)
REMARK    1  A    between atoms: C1_2  and  C2_3 
REMARK       I    between atoms: C1_2  and  N1_12 
REMARK    2  A    between atoms: C2_3  and  O2_4 
REMARK    3  A    between atoms: O2_4  and  C3_5 
REMARK    4  A    between atoms: C13_19  and  N4_20 
REMARK    5  A    between atoms: N4_20  and  C14_21 
ROOT
HETATM    1  O1  UNL     1      26.764   2.510  50.157  1.00  0.00    -0.270 OA
HETATM    2  C1  UNL     1      26.045   3.511  49.908  1.00  0.00     0.252 C 
HETATM    3  N1  UNL     1      26.424   4.731  49.255  1.00  0.00    -0.300 N 
HETATM    4  C9  UNL     1      25.542   5.822  49.027  1.00  0.00     0.114 A 
HETATM    5  C10 UNL     1      25.992   6.866  48.400  1.00  0.00     0.024 A 
HETATM    6  C11 UNL     1      27.218   6.936  48.004  1.00  0.00     0.086 A 
HETATM    7  N2  UNL     1      27.523   8.086  47.380  1.00  0.00    -0.240 NA
HETATM    8  C12 UNL     1      28.764   8.294  46.915  1.00  0.00     0.236 A 
HETATM    9  N3  UNL     1      29.692   7.352  47.075  1.00  0.00    -0.223 NA
HETATM   10  C13 UNL     1      29.465   6.195  47.679  1.00  0.00     0.143 A 
HETATM   11  C20 UNL     1      28.195   5.971  48.160  1.00  0.00     0.056 A 
HETATM   12  C21 UNL     1      27.756   4.887  48.784  1.00  0.00     0.117 A 
ENDROOT
BRANCH   2  13
HETATM   13  C2  UNL     1      24.589   3.461  50.337  1.00  0.00     0.279 C 
BRANCH  13  14
HETATM   14  O2  UNL     1      24.222   2.325  50.894  1.00  0.00    -0.342 OA
BRANCH  14  15
HETATM   15  C3  UNL     1      23.782   1.420  51.693  1.00  0.00     0.069 A 
HETATM   16  C4  UNL     1      24.757   0.942  52.587  1.00  0.00     0.040 A 
HETATM   17  C5  UNL     1      24.420  -0.049  53.521  1.00  0.00     0.045 A 
HETATM   18  C6  UNL     1      23.140  -0.518  53.525  1.00  0.00     0.116 A 
HETATM   19  F1  UNL     1      22.793  -1.473  54.416  1.00  0.00    -0.206 F 
HETATM   20  C7  UNL     1      22.149  -0.069  52.658  1.00  0.00     0.045 A 
HETATM   21  C8  UNL     1      22.510   0.907  51.749  1.00  0.00     0.040 A 
ENDBRANCH  14  15
ENDBRANCH  13  14
ENDBRANCH   2  13
BRANCH  10  22
HETATM   22  N4  UNL     1      30.415   5.165  47.871  1.00  0.00    -0.340 N 
HETATM   23  H9  UNL     1      30.173   4.186  47.998  1.00  0.00     0.167 HD
BRANCH  22  24
HETATM   24  C14 UNL     1      31.831   5.249  47.929  1.00  0.00     0.035 A 
HETATM   25  C15 UNL     1      32.580   5.965  48.868  1.00  0.00     0.029 A 
HETATM   26  C16 UNL     1      33.944   6.005  48.865  1.00  0.00     0.004 A 
HETATM   27  C17 UNL     1      34.679   5.335  47.927  1.00  0.00     0.019 A 
HETATM   28  C18 UNL     1      34.002   4.590  46.945  1.00  0.00     0.013 A 
HETATM   29 BR1  UNL     1      35.068   3.684  45.667  1.00  0.00    -0.051 Br
HETATM   30  C19 UNL     1      32.642   4.622  47.046  1.00  0.00     0.048 A 
ENDBRANCH  22  24
ENDBRANCH  10  22
TORSDOF 5
ENDMDL
MODEL 4
REMARK VINA RESULT:      -8.6      4.329      7.196
REMARK  5 active torsions:
REMARK  status: ('A' for Active; 'I' for Inactive)
REMARK    1  A    between atoms: C1_2  and  C2_3 
REMARK       I    between atoms: C1_2  and  N1_12 
REMARK    2  A    between atoms: C2_3  and  O2_4 
REMARK    3  A    between atoms: O2_4  and  C3_5 
REMARK    4  A    between atoms: C13_19  and  N4_20 
REMARK    5  A    between atoms: N4_20  and  C14_21 
ROOT
HETATM    1  O1  UNL     1      24.982   1.270  51.675  1.00  0.00    -0.270 OA
HETATM    2  C1  UNL     1      23.958   0.963  52.337  1.00  0.00     0.252 C 
HETATM    3  N1  UNL     1      22.651   1.549  52.266  1.00  0.00    -0.300 N 
HETATM    4  C9  UNL     1      21.549   1.145  53.068  1.00  0.00     0.114 A 
HETATM    5  C10 UNL     1      20.404   1.731  52.895  1.00  0.00     0.024 A 
HETATM    6  C11 UNL     1      20.258   2.680  52.032  1.00  0.00     0.086 A 
HETATM    7  N2  UNL     1      19.014   3.186  51.985  1.00  0.00    -0.240 NA
HETATM    8  C12 UNL     1      18.720   4.177  51.133  1.00  0.00     0.236 A 
HETATM    9  N3  UNL     1      19.669   4.658  50.331  1.00  0.00    -0.223 NA
HETATM   10  C13 UNL     1      20.916   4.210  50.321  1.00  0.00     0.143 A 
HETATM   11  C20 UNL     1      21.229   3.192  51.193  1.00  0.00     0.056 A 
HETATM   12  C21 UNL     1      22.404   2.597  51.338  1.00  0.00     0.117 A 
ENDROOT
BRANCH   2  13
HETATM   13  C2  UNL     1      24.080  -0.164  53.347  1.00  0.00     0.279 C 
BRANCH  13  14
HETATM   14  O2  UNL     1      25.319  -0.484  53.663  1.00  0.00    -0.342 OA
BRANCH  14  15
HETATM   15  C3  UNL     1      26.596  -0.518  53.794  1.00  0.00     0.069 A 
HETATM   16  C4  UNL     1      27.221  -1.447  52.943  1.00  0.00     0.040 A 
HETATM   17  C5  UNL     1      28.617  -1.594  52.975  1.00  0.00     0.045 A 
HETATM   18  C6  UNL     1      29.323  -0.817  53.845  1.00  0.00     0.116 A 
HETATM   19  F1  UNL     1      30.668  -0.942  53.892  1.00  0.00    -0.206 F 
HETATM   20  C7  UNL     1      28.741   0.112  54.700  1.00  0.00     0.045 A 
HETATM   21  C8  UNL     1      27.365   0.235  54.646  1.00  0.00     0.040 A 
ENDBRANCH  14  15
ENDBRANCH  13  14
ENDBRANCH   2  13
BRANCH  10  22
HETATM   22  N4  UNL     1      21.955   4.685  49.489  1.00  0.00    -0.340 N 
HETATM   23  H9  UNL     1      22.046   4.451  48.504  1.00  0.00     0.167 HD
BRANCH  22  24
HETATM   24  C14 UNL     1      23.043   5.539  49.810  1.00  0.00     0.035 A 
HETATM   25  C15 UNL     1      23.015   6.620  50.697  1.00  0.00     0.029 A 
HETATM   26  C16 UNL     1      24.100   7.403  50.959  1.00  0.00     0.004 A 
HETATM   27  C17 UNL     1      25.309   7.178  50.359  1.00  0.00     0.019 A 
HETATM   28  C18 UNL     1      25.423   6.109  49.452  1.00  0.00     0.013 A 
HETATM   29 BR1  UNL     1      27.118   5.843  48.648  1.00  0.00    -0.051 Br
HETATM   30  C19 UNL     1      24.276   5.396  49.269  1.00  0.00     0.048 A 
ENDBRANCH  22  24
ENDBRANCH  10  22
TORSDOF 5
ENDMDL
MODEL 5
REMARK VINA RESULT:      -8.5      5.548      7.689
REMARK  5 active torsions:
REMARK  status: ('A' for Active; 'I' for Inactive)
REMARK    1  A    between atoms: C1_2  and  C2_3 
REMARK       I    between atoms: C1_2  and  N1_12 
REMARK    2  A    between atoms: C2_3  and  O2_4 
REMARK    3  A    between atoms: O2_4  and  C3_5 
REMARK    4  A    between atoms: C13_19  and  N4_20 
REMARK    5  A    between atoms: N4_20  and  C14_21 
ROOT
HETATM    1  O1  UNL     1      26.762   2.122  50.348  1.00  0.00    -0.270 OA
HETATM    2  C1  UNL     1      25.815   2.538  51.065  1.00  0.00     0.252 C 
HETATM    3  N1  UNL     1      25.168   3.817  51.019  1.00  0.00    -0.300 N 
HETATM    4  C9  UNL     1      24.108   4.207  51.883  1.00  0.00     0.114 A 
HETATM    5  C10 UNL     1      23.581   5.383  51.729  1.00  0.00     0.024 A 
HETATM    6  C11 UNL     1      24.013   6.202  50.829  1.00  0.00     0.086 A 
HETATM    7  N2  UNL     1      23.365   7.379  50.809  1.00  0.00    -0.240 NA
HETATM    8  C12 UNL     1      23.710   8.325  49.923  1.00  0.00     0.236 A 
HETATM    9  N3  UNL     1      24.699   8.089  49.062  1.00  0.00    -0.223 NA
HETATM   10  C13 UNL     1      25.382   6.955  49.023  1.00  0.00     0.143 A 
HETATM   11  C20 UNL     1      25.036   5.977  49.928  1.00  0.00     0.056 A 
HETATM   12  C21 UNL     1      25.581   4.775  50.054  1.00  0.00     0.117 A 
ENDROOT
BRANCH   2  13
HETATM   13  C2  UNL     1      25.262   1.598  52.121  1.00  0.00     0.279 C 
BRANCH  13  14
HETATM   14  O2  UNL     1      26.142   0.752  52.616  1.00  0.00    -0.342 OA
BRANCH  14  15
HETATM   15  C3  UNL     1      27.218   0.129  52.940  1.00  0.00     0.069 A 
HETATM   16  C4  UNL     1      28.213   0.970  53.470  1.00  0.00     0.040 A 
HETATM   17  C5  UNL     1      29.444   0.427  53.869  1.00  0.00     0.045 A 
HETATM   18  C6  UNL     1      29.629  -0.916  53.725  1.00  0.00     0.116 A 
HETATM   19  F1  UNL     1      30.808  -1.459  54.104  1.00  0.00    -0.206 F 
HETATM   20  C7  UNL     1      28.670  -1.778  53.207  1.00  0.00     0.045 A 
HETATM   21  C8  UNL     1      27.468  -1.216  52.823  1.00  0.00     0.040 A 
ENDBRANCH  14  15
ENDBRANCH  13  14
ENDBRANCH   2  13
BRANCH  10  22
HETATM   22  N4  UNL     1      26.436   6.658  48.129  1.00  0.00    -0.340 N 
HETATM   23  H9  UNL     1      26.300   6.260  47.203  1.00  0.00     0.167 HD
BRANCH  22  24
HETATM   24  C14 UNL     1      27.835   6.830  48.300  1.00  0.00     0.035 A 
HETATM   25  C15 UNL     1      28.811   5.834  48.195  1.00  0.00     0.029 A 
HETATM   26  C16 UNL     1      30.143   6.068  48.374  1.00  0.00     0.004 A 
HETATM   27  C17 UNL     1      30.618   7.314  48.676  1.00  0.00     0.019 A 
HETATM   28  C18 UNL     1      29.701   8.374  48.800  1.00  0.00     0.013 A 
HETATM   29 BR1  UNL     1      30.411  10.079  49.221  1.00  0.00    -0.051 Br
HETATM   30  C19 UNL     1      28.398   8.023  48.599  1.00  0.00     0.048 A 
ENDBRANCH  22  24
ENDBRANCH  10  22
TORSDOF 5
ENDMDL
MODEL 6
REMARK VINA RESULT:      -8.5      4.330      8.758
REMARK  5 active torsions:
REMARK  status: ('A' for Active; 'I' for Inactive)
REMARK    1  A    between atoms: C1_2  and  C2_3 
REMARK       I    between atoms: C1_2  and  N1_12 
REMARK    2  A    between atoms: C2_3  and  O2_4 
REMARK    3  A    between atoms: O2_4  and  C3_5 
REMARK    4  A    between atoms: C13_19  and  N4_20 
REMARK    5  A    between atoms: N4_20  and  C14_21 
ROOT
HETATM    1  O1  UNL     1      24.028   3.298  50.430  1.00  0.00    -0.270 OA
HETATM    2  C1  UNL     1      24.872   2.534  50.965  1.00  0.00     0.252 C 
HETATM    3  N1  UNL     1      24.652   1.550  51.985  1.00  0.00    -0.300 N 
HETATM    4  C9  UNL     1      25.674   0.735  52.543  1.00  0.00     0.114 A 
HETATM    5  C10 UNL     1      25.350  -0.143  53.442  1.00  0.00     0.024 A 
HETATM    6  C11 UNL     1      24.131  -0.270  53.849  1.00  0.00     0.086 A 
HETATM    7  N2  UNL     1      23.968  -1.216  54.788  1.00  0.00    -0.240 NA
HETATM    8  C12 UNL     1      22.752  -1.457  55.301  1.00  0.00     0.236 A 
HETATM    9  N3  UNL     1      21.706  -0.752  54.871  1.00  0.00    -0.223 NA
HETATM   10  C13 UNL     1      21.791   0.196  53.948  1.00  0.00     0.143 A 
HETATM   11  C20 UNL     1      23.034   0.451  53.416  1.00  0.00     0.056 A 
HETATM   12  C21 UNL     1      23.337   1.343  52.484  1.00  0.00     0.117 A 
ENDROOT
BRANCH   2  13
HETATM   13  C2  UNL     1      26.314   2.636  50.499  1.00  0.00     0.279 C 
BRANCH  13  14
HETATM   14  O2  UNL     1      26.544   3.604  49.637  1.00  0.00    -0.342 OA
BRANCH  14  15
HETATM   15  C3  UNL     1      26.891   4.704  49.069  1.00  0.00     0.069 A 
HETATM   16  C4  UNL     1      25.839   5.629  48.951  1.00  0.00     0.040 A 
HETATM   17  C5  UNL     1      26.071   6.876  48.351  1.00  0.00     0.045 A 
HETATM   18  C6  UNL     1      27.328   7.145  47.899  1.00  0.00     0.116 A 
HETATM   19  F1  UNL     1      27.574   8.341  47.317  1.00  0.00    -0.206 F 
HETATM   20  C7  UNL     1      28.393   6.257  47.998  1.00  0.00     0.045 A 
HETATM   21  C8  UNL     1      28.135   5.037  48.593  1.00  0.00     0.040 A 
ENDBRANCH  14  15
ENDBRANCH  13  14
ENDBRANCH   2  13
BRANCH  10  22
HETATM   22  N4  UNL     1      20.713   0.968  53.459  1.00  0.00    -0.340 N 
HETATM   23  H9  UNL     1      20.480   1.898  53.797  1.00  0.00     0.167 HD
BRANCH  22  24
HETATM   24  C14 UNL     1      19.764   0.649  52.452  1.00  0.00     0.035 A 
HETATM   25  C15 UNL     1      19.811   1.050  51.113  1.00  0.00     0.029 A 
HETATM   26  C16 UNL     1      18.861   0.708  50.195  1.00  0.00     0.004 A 
HETATM   27  C17 UNL     1      17.782  -0.062  50.532  1.00  0.00     0.019 A 
HETATM   28  C18 UNL     1      17.660  -0.508  51.860  1.00  0.00     0.013 A 
HETATM   29 BR1  UNL     1      16.146  -1.570  52.273  1.00  0.00    -0.051 Br
HETATM   30  C19 UNL     1      18.666  -0.106  52.688  1.00  0.00     0.048 A 
ENDBRANCH  22  24
ENDBRANCH  10  22
TORSDOF 5
ENDMDL
MODEL 7
REMARK VINA RESULT:      -8.2      6.006     10.819
REMARK  5 active torsions:
REMARK  status: ('A' for Active; 'I' for Inactive)
REMARK    1  A    between atoms: C1_2  and  C2_3 
REMARK       I    between atoms: C1_2  and  N1_12 
REMARK    2  A    between atoms: C2_3  and  O2_4 
REMARK    3  A    between atoms: O2_4  and  C3_5 
REMARK    4  A    between atoms: C13_19  and  N4_20 
REMARK    5  A    between atoms: N4_20  and  C14_21 
ROOT
HETATM    1  O1  UNL     1      27.914   4.366  48.574  1.00  0.00    -0.270 OA
HETATM    2  C1  UNL     1      27.240   5.401  48.807  1.00  0.00     0.252 C 
HETATM    3  N1  UNL     1      26.002   5.507  49.523  1.00  0.00    -0.300 N 
HETATM    4  C9  UNL     1      25.299   6.726  49.728  1.00  0.00     0.114 A 
HETATM    5  C10 UNL     1      24.200   6.702  50.419  1.00  0.00     0.024 A 
HETATM    6  C11 UNL     1      23.730   5.600  50.898  1.00  0.00     0.086 A 
HETATM    7  N2  UNL     1      22.582   5.749  51.579  1.00  0.00    -0.240 NA
HETATM    8  C12 UNL     1      21.981   4.685  52.132  1.00  0.00     0.236 A 
HETATM    9  N3  UNL     1      22.533   3.479  52.003  1.00  0.00    -0.223 NA
HETATM   10  C13 UNL     1      23.662   3.255  51.347  1.00  0.00     0.143 A 
HETATM   11  C20 UNL     1      24.286   4.340  50.775  1.00  0.00     0.056 A 
HETATM   12  C21 UNL     1      25.420   4.340  50.088  1.00  0.00     0.117 A 
ENDROOT
BRANCH   2  13
HETATM   13  C2  UNL     1      27.769   6.724  48.280  1.00  0.00     0.279 C 
BRANCH  13  14
HETATM   14  O2  UNL     1      29.080   6.785  48.174  1.00  0.00    -0.342 OA
BRANCH  14  15
HETATM   15  C3  UNL     1      30.326   7.063  48.324  1.00  0.00     0.069 A 
HETATM   16  C4  UNL     1      31.099   5.964  48.737  1.00  0.00     0.040 A 
HETATM   17  C5  UNL     1      32.479   6.119  48.941  1.00  0.00     0.045 A 
HETATM   18  C6  UNL     1      33.024   7.350  48.726  1.00  0.00     0.116 A 
HETATM   19  F1  UNL     1      34.352   7.521  48.917  1.00  0.00    -0.206 F 
HETATM   20  C7  UNL     1      32.293   8.459  48.317  1.00  0.00     0.045 A 
HETATM   21  C8  UNL     1      30.937   8.277  48.124  1.00  0.00     0.040 A 
ENDBRANCH  14  15
ENDBRANCH  13  14
ENDBRANCH   2  13
BRANCH  10  22
HETATM   22  N4  UNL     1      24.286   1.997  51.186  1.00  0.00    -0.340 N 
HETATM   23  H9  UNL     1      24.447   1.554  50.285  1.00  0.00     0.167 HD
BRANCH  22  24
HETATM   24  C14 UNL     1      24.796   1.114  52.173  1.00  0.00     0.035 A 
HETATM   25  C15 UNL     1      24.043   0.298  53.023  1.00  0.00     0.029 A 
HETATM   26  C16 UNL     1      24.599  -0.528  53.956  1.00  0.00     0.004 A 
HETATM   27  C17 UNL     1      25.954  -0.612  54.122  1.00  0.00     0.019 A 
HETATM   28  C18 UNL     1      26.785   0.177  53.307  1.00  0.00     0.013 A 
HETATM   29 BR1  UNL     1      28.653   0.025  53.580  1.00  0.00    -0.051 Br
HETATM   30  C19 UNL     1      26.120   0.963  52.412  1.00  0.00     0.048 A 
ENDBRANCH  22  24
ENDBRANCH  10  22
TORSDOF 5
ENDMDL
MODEL 8
REMARK VINA RESULT:      -8.1      3.923      5.967
REMARK  5 active torsions:
REMARK  status: ('A' for Active; 'I' for Inactive)
REMARK    1  A    between atoms: C1_2  and  C2_3 
REMARK       I    between atoms: C1_2  and  N1_12 
REMARK    2  A    between atoms: C2_3  and  O2_4 
REMARK    3  A    between atoms: O2_4  and  C3_5 
REMARK    4  A    between atoms: C13_19  and  N4_20 
REMARK    5  A    between atoms: N4_20  and  C14_21 
ROOT
HETATM    1  O1  UNL     1      18.146   2.518  50.621  1.00  0.00    -0.270 OA
HETATM    2  C1  UNL     1      17.741   1.504  51.247  1.00  0.00     0.252 C 
HETATM    3  N1  UNL     1      18.500   0.618  52.079  1.00  0.00    -0.300 N 
HETATM    4  C9  UNL     1      17.959  -0.518  52.741  1.00  0.00     0.114 A 
HETATM    5  C10 UNL     1      18.740  -1.232  53.493  1.00  0.00     0.024 A 
HETATM    6  C11 UNL     1      19.990  -0.944  53.629  1.00  0.00     0.086 A 
HETATM    7  N2  UNL     1      20.658  -1.788  54.432  1.00  0.00    -0.240 NA
HETATM    8  C12 UNL     1      21.967  -1.607  54.664  1.00  0.00     0.236 A 
HETATM    9  N3  UNL     1      22.600  -0.584  54.093  1.00  0.00    -0.223 NA
HETATM   10  C13 UNL     1      22.008   0.288  53.290  1.00  0.00     0.143 A 
HETATM   11  C20 UNL     1      20.665   0.112  53.045  1.00  0.00     0.056 A 
HETATM   12  C21 UNL     1      19.884   0.867  52.286  1.00  0.00     0.117 A 
ENDROOT
BRANCH   2  13
HETATM   13  C2  UNL     1      16.270   1.143  51.132  1.00  0.00     0.279 C 
BRANCH  13  14
HETATM   14  O2  UNL     1      15.502   1.674  52.061  1.00  0.00    -0.342 OA
BRANCH  14  15
HETATM   15  C3  UNL     1      14.566   2.280  52.700  1.00  0.00     0.069 A 
HETATM   16  C4  UNL     1      14.835   3.641  52.930  1.00  0.00     0.040 A 
HETATM   17  C5  UNL     1      13.900   4.430  53.617  1.00  0.00     0.045 A 
HETATM   18  C6  UNL     1      12.749   3.836  54.043  1.00  0.00     0.116 A 
HETATM   19  F1  UNL     1      11.835   4.578  54.707  1.00  0.00    -0.206 F 
HETATM   20  C7  UNL     1      12.448   2.494  53.834  1.00  0.00     0.045 A 
HETATM   21  C8  UNL     1      13.387   1.742  53.155  1.00  0.00     0.040 A 
ENDBRANCH  14  15
ENDBRANCH  13  14
ENDBRANCH   2  13
BRANCH  10  22
HETATM   22  N4  UNL     1      22.635   1.389  52.663  1.00  0.00    -0.340 N 
HETATM   23  H9  UNL     1      22.162   2.260  52.438  1.00  0.00     0.167 HD
BRANCH  22  24
HETATM   24  C14 UNL     1      23.979   1.529  52.228  1.00  0.00     0.035 A 
HETATM   25  C15 UNL     1      24.463   2.481  51.326  1.00  0.00     0.029 A 
HETATM   26  C16 UNL     1      25.772   2.559  50.948  1.00  0.00     0.004 A 
HETATM   27  C17 UNL     1      26.712   1.693  51.436  1.00  0.00     0.019 A 
HETATM   28  C18 UNL     1      26.308   0.704  52.350  1.00  0.00     0.013 A 
HETATM   29 BR1  UNL     1      27.648  -0.471  52.993  1.00  0.00    -0.051 Br
HETATM   30  C19 UNL     1      24.979   0.721  52.654  1.00  0.00     0.048 A 
ENDBRANCH  22  24
ENDBRANCH  10  22
TORSDOF 5
ENDMDL
MODEL 9
REMARK VINA RESULT:      -8.1      4.856      9.108
REMARK  5 active torsions:
REMARK  status: ('A' for Active; 'I' for Inactive)
REMARK    1  A    between atoms: C1_2  and  C2_3 
REMARK       I    between atoms: C1_2  and  N1_12 
REMARK    2  A    between atoms: C2_3  and  O2_4 
REMARK    3  A    between atoms: O2_4  and  C3_5 
REMARK    4  A    between atoms: C13_19  and  N4_20 
REMARK    5  A    between atoms: N4_20  and  C14_21 
ROOT
HETATM    1  O1  UNL     1      23.743   0.461  52.760  1.00  0.00    -0.270 OA
HETATM    2  C1  UNL     1      23.769   1.718  52.717  1.00  0.00     0.252 C 
HETATM    3  N1  UNL     1      22.798   2.604  52.145  1.00  0.00    -0.300 N 
HETATM    4  C9  UNL     1      22.918   4.020  52.131  1.00  0.00     0.114 A 
HETATM    5  C10 UNL     1      21.960   4.722  51.608  1.00  0.00     0.024 A 
HETATM    6  C11 UNL     1      20.921   4.159  51.087  1.00  0.00     0.086 A 
HETATM    7  N2  UNL     1      20.029   5.026  50.581  1.00  0.00    -0.240 NA
HETATM    8  C12 UNL     1      18.902   4.579  50.009  1.00  0.00     0.236 A 
HETATM    9  N3  UNL     1      18.672   3.269  49.946  1.00  0.00    -0.223 NA
HETATM   10  C13 UNL     1      19.505   2.355  50.422  1.00  0.00     0.143 A 
HETATM   11  C20 UNL     1      20.665   2.803  51.011  1.00  0.00     0.056 A 
HETATM   12  C21 UNL     1      21.623   2.065  51.555  1.00  0.00     0.117 A 
ENDROOT
BRANCH   2  13
HETATM   13  C2  UNL     1      24.963   2.421  53.340  1.00  0.00     0.279 C 
BRANCH  13  14
HETATM   14  O2  UNL     1      26.110   1.794  53.184  1.00  0.00    -0.342 OA
BRANCH  14  15
HETATM   15  C3  UNL     1      27.125   1.015  53.305  1.00  0.00     0.069 A 
HETATM   16  C4  UNL     1      28.281   1.669  53.765  1.00  0.00     0.040 A 
HETATM   17  C5  UNL     1      29.469   0.943  53.946  1.00  0.00     0.045 A 
HETATM   18  C6  UNL     1      29.453  -0.390  53.664  1.00  0.00     0.116 A 
HETATM   19  F1  UNL     1      30.586  -1.109  53.832  1.00  0.00    -0.206 F 
HETATM   20  C7  UNL     1      28.330  -1.072  53.209  1.00  0.00     0.045 A 
HETATM   21  C8  UNL     1      27.176  -0.331  53.040  1.00  0.00     0.040 A 
ENDBRANCH  14  15
ENDBRANCH  13  14
ENDBRANCH   2  13
BRANCH  10  22
HETATM   22  N4  UNL     1      19.304   0.956  50.381  1.00  0.00    -0.340 N 
HETATM   23  H9  UNL     1      19.772   0.334  49.727  1.00  0.00     0.167 HD
BRANCH  22  24
HETATM   24  C14 UNL     1      18.461   0.146  51.186  1.00  0.00     0.035 A 
HETATM   25  C15 UNL     1      18.778  -0.396  52.435  1.00  0.00     0.029 A 
HETATM   26  C16 UNL     1      17.918  -1.171  53.157  1.00  0.00     0.004 A 
HETATM   27  C17 UNL     1      16.667  -1.473  52.696  1.00  0.00     0.019 A 
HETATM   28  C18 UNL     1      16.268  -0.967  51.446  1.00  0.00     0.013 A 
HETATM   29 BR1  UNL     1      14.526  -1.419  50.853  1.00  0.00    -0.051 Br
HETATM   30  C19 UNL     1      17.207  -0.207  50.815  1.00  0.00     0.048 A 
ENDBRANCH  22  24
ENDBRANCH  10  22
TORSDOF 5
ENDMDL
