MODEL 1
REMARK VINA RESULT:      -7.6      0.000      0.000
REMARK  2 active torsions:
REMARK  status: ('A' for Active; 'I' for Inactive)
REMARK    1  A    between atoms: C4_6  and  N2_7 
REMARK    2  A    between atoms: N2_7  and  C5_8 
ROOT
HETATM    1 CL1  UNL     1      27.871  -1.538  52.820  1.00  0.00    -0.121 Cl
HETATM    2  C1  UNL     1      28.020   0.176  53.240  1.00  0.00     0.124 C 
HETATM    3  C2  UNL     1      27.072   1.035  52.465  1.00  0.00     0.142 C 
HETATM    4  N1  UNL     1      25.699   0.920  52.844  1.00  0.00    -0.382 N 
HETATM    5  C3  UNL     1      25.024   0.107  53.786  1.00  0.00     0.128 A 
HETATM    6  C4  UNL     1      23.665  -0.057  53.534  1.00  0.00     0.160 A 
HETATM    7  N3  UNL     1      22.921  -0.803  54.371  1.00  0.00    -0.222 NA
HETATM    8  C11 UNL     1      23.484  -1.386  55.442  1.00  0.00     0.238 A 
HETATM    9  N4  UNL     1      24.785  -1.234  55.691  1.00  0.00    -0.216 NA
HETATM   10  C12 UNL     1      25.571  -0.501  54.890  1.00  0.00     0.196 A 
HETATM   11  O1  UNL     1      26.915  -0.463  55.327  1.00  0.00    -0.331 OA
HETATM   12  C13 UNL     1      27.932   0.299  54.726  1.00  0.00     0.199 C 
HETATM   13  H4  UNL     1      25.085   1.582  52.304  1.00  0.00     0.160 HD
ENDROOT
BRANCH   6  14
HETATM   14  N2  UNL     1      23.155   0.571  52.365  1.00  0.00    -0.339 N 
HETATM   15  H5  UNL     1      23.919   1.136  51.884  1.00  0.00     0.167 HD
BRANCH  14  16
HETATM   16  C5  UNL     1      22.020   0.716  51.543  1.00  0.00     0.035 A 
HETATM   17  C6  UNL     1      22.164   1.286  50.304  1.00  0.00     0.029 A 
HETATM   18  C7  UNL     1      21.054   1.407  49.490  1.00  0.00     0.004 A 
HETATM   19  C8  UNL     1      19.851   0.947  49.964  1.00  0.00     0.019 A 
HETATM   20  C9  UNL     1      19.677   0.374  51.197  1.00  0.00     0.013 A 
HETATM   21 BR1  UNL     1      17.977  -0.230  51.825  1.00  0.00    -0.051 Br
HETATM   22  C10 UNL     1      20.782   0.257  52.000  1.00  0.00     0.048 A 
ENDBRANCH  14  16
ENDBRANCH   6  14
TORSDOF 2
ENDMDL
MODEL 2
REMARK VINA RESULT:      -7.5      4.106      5.228
REMARK  2 active torsions:
REMARK  status: ('A' for Active; 'I' for Inactive)
REMARK    1  A    between atoms: C4_6  and  N2_7 
REMARK    2  A    between atoms: N2_7  and  C5_8 
ROOT
HETATM    1 CL1  UNL     1      27.253  -1.388  52.830  1.00  0.00    -0.121 Cl
HETATM    2  C1  UNL     1      27.701  -0.005  53.842  1.00  0.00     0.124 C 
HETATM    3  C2  UNL     1      28.088   1.191  53.031  1.00  0.00     0.142 C 
HETATM    4  N1  UNL     1      27.007   1.851  52.368  1.00  0.00    -0.382 N 
HETATM    5  C3  UNL     1      25.622   1.575  52.272  1.00  0.00     0.128 A 
HETATM    6  C4  UNL     1      24.994   2.155  51.174  1.00  0.00     0.160 A 
HETATM    7  N3  UNL     1      23.675   1.967  50.989  1.00  0.00    -0.222 NA
HETATM    8  C11 UNL     1      22.967   1.225  51.856  1.00  0.00     0.238 A 
HETATM    9  N4  UNL     1      23.561   0.665  52.911  1.00  0.00    -0.216 NA
HETATM   10  C12 UNL     1      24.871   0.821  53.143  1.00  0.00     0.196 A 
HETATM   11  O1  UNL     1      25.305   0.151  54.309  1.00  0.00    -0.331 OA
HETATM   12  C13 UNL     1      26.607   0.217  54.835  1.00  0.00     0.199 C 
HETATM   13  H4  UNL     1      27.328   2.712  51.856  1.00  0.00     0.160 HD
ENDROOT
BRANCH   6  14
HETATM   14  N2  UNL     1      25.821   2.902  50.292  1.00  0.00    -0.339 N 
HETATM   15  H5  UNL     1      26.453   2.250  49.734  1.00  0.00     0.167 HD
BRANCH  14  16
HETATM   16  C5  UNL     1      26.119   4.194  49.816  1.00  0.00     0.035 A 
HETATM   17  C6  UNL     1      27.199   4.367  48.990  1.00  0.00     0.029 A 
HETATM   18  C7  UNL     1      27.477   5.632  48.507  1.00  0.00     0.004 A 
HETATM   19  C8  UNL     1      26.651   6.663  48.880  1.00  0.00     0.019 A 
HETATM   20  C9  UNL     1      25.565   6.520  49.704  1.00  0.00     0.013 A 
HETATM   21 BR1  UNL     1      24.456   7.988  50.216  1.00  0.00    -0.051 Br
HETATM   22  C10 UNL     1      25.295   5.262  50.180  1.00  0.00     0.048 A 
ENDBRANCH  14  16
ENDBRANCH   6  14
TORSDOF 2
ENDMDL
MODEL 3
REMARK VINA RESULT:      -7.4      3.232      3.687
REMARK  2 active torsions:
REMARK  status: ('A' for Active; 'I' for Inactive)
REMARK    1  A    between atoms: C4_6  and  N2_7 
REMARK    2  A    between atoms: N2_7  and  C5_8 
ROOT
HETATM    1 CL1  UNL     1      28.972  -0.118  52.732  1.00  0.00    -0.121 Cl
HETATM    2  C1  UNL     1      29.096   0.961  54.130  1.00  0.00     0.124 C 
HETATM    3  C2  UNL     1      28.586   2.336  53.834  1.00  0.00     0.142 C 
HETATM    4  N1  UNL     1      27.167   2.442  53.704  1.00  0.00    -0.382 N 
HETATM    5  C3  UNL     1      26.120   1.490  53.746  1.00  0.00     0.128 A 
HETATM    6  C4  UNL     1      24.948   1.895  53.115  1.00  0.00     0.160 A 
HETATM    7  N3  UNL     1      23.883   1.072  53.102  1.00  0.00    -0.222 NA
HETATM    8  C11 UNL     1      23.950  -0.133  53.693  1.00  0.00     0.238 A 
HETATM    9  N4  UNL     1      25.070  -0.529  54.299  1.00  0.00    -0.216 NA
HETATM   10  C12 UNL     1      26.158   0.252  54.342  1.00  0.00     0.196 A 
HETATM   11  O1  UNL     1      27.237  -0.348  55.031  1.00  0.00    -0.331 OA
HETATM   12  C13 UNL     1      28.465   0.279  55.300  1.00  0.00     0.199 C 
HETATM   13  H4  UNL     1      26.860   3.436  53.548  1.00  0.00     0.160 HD
ENDROOT
BRANCH   6  14
HETATM   14  N2  UNL     1      24.971   3.172  52.492  1.00  0.00    -0.339 N 
HETATM   15  H5  UNL     1      25.594   3.841  53.039  1.00  0.00     0.167 HD
BRANCH  14  16
HETATM   16  C5  UNL     1      24.518   3.917  51.385  1.00  0.00     0.035 A 
HETATM   17  C6  UNL     1      25.044   3.658  50.147  1.00  0.00     0.029 A 
HETATM   18  C7  UNL     1      24.583   4.375  49.059  1.00  0.00     0.004 A 
HETATM   19  C8  UNL     1      23.609   5.319  49.273  1.00  0.00     0.019 A 
HETATM   20  C9  UNL     1      23.064   5.600  50.498  1.00  0.00     0.013 A 
HETATM   21 BR1  UNL     1      21.728   6.941  50.753  1.00  0.00    -0.051 Br
HETATM   22  C10 UNL     1      23.528   4.885  51.573  1.00  0.00     0.048 A 
ENDBRANCH  14  16
ENDBRANCH   6  14
TORSDOF 2
ENDMDL
MODEL 4
REMARK VINA RESULT:      -7.3      3.898      6.481
REMARK  2 active torsions:
REMARK  status: ('A' for Active; 'I' for Inactive)
REMARK    1  A    between atoms: C4_6  and  N2_7 
REMARK    2  A    between atoms: N2_7  and  C5_8 
ROOT
HETATM    1 CL1  UNL     1      20.093   2.847  52.353  1.00  0.00    -0.121 Cl
HETATM    2  C1  UNL     1      20.240   1.834  50.908  1.00  0.00     0.124 C 
HETATM    3  C2  UNL     1      21.657   1.702  50.449  1.00  0.00     0.142 C 
HETATM    4  N1  UNL     1      22.490   0.885  51.275  1.00  0.00    -0.382 N 
HETATM    5  C3  UNL     1      22.265   0.200  52.492  1.00  0.00     0.128 A 
HETATM    6  C4  UNL     1      23.420  -0.082  53.216  1.00  0.00     0.160 A 
HETATM    7  N3  UNL     1      23.326  -0.740  54.386  1.00  0.00    -0.222 NA
HETATM    8  C11 UNL     1      22.126  -1.122  54.855  1.00  0.00     0.238 A 
HETATM    9  N4  UNL     1      21.014  -0.856  54.168  1.00  0.00    -0.216 NA
HETATM   10  C12 UNL     1      21.052  -0.205  52.998  1.00  0.00     0.196 A 
HETATM   11  O1  UNL     1      19.770  -0.023  52.430  1.00  0.00    -0.331 OA
HETATM   12  C13 UNL     1      19.525   0.548  51.169  1.00  0.00     0.199 C 
HETATM   13  H4  UNL     1      23.459   0.784  50.878  1.00  0.00     0.160 HD
ENDROOT
BRANCH   6  14
HETATM   14  N2  UNL     1      24.645   0.381  52.663  1.00  0.00    -0.339 N 
HETATM   15  H5  UNL     1      24.519   0.623  51.633  1.00  0.00     0.167 HD
BRANCH  14  16
HETATM   16  C5  UNL     1      25.988   0.695  52.950  1.00  0.00     0.035 A 
HETATM   17  C6  UNL     1      26.338   2.004  53.151  1.00  0.00     0.029 A 
HETATM   18  C7  UNL     1      27.651   2.308  53.455  1.00  0.00     0.004 A 
HETATM   19  C8  UNL     1      28.550   1.274  53.542  1.00  0.00     0.019 A 
HETATM   20  C9  UNL     1      28.230  -0.044  53.346  1.00  0.00     0.013 A 
HETATM   21 BR1  UNL     1      29.520  -1.448  53.454  1.00  0.00    -0.051 Br
HETATM   22  C10 UNL     1      26.925  -0.338  53.045  1.00  0.00     0.048 A 
ENDBRANCH  14  16
ENDBRANCH   6  14
TORSDOF 2
ENDMDL
MODEL 5
REMARK VINA RESULT:      -7.2      2.102      2.370
REMARK  2 active torsions:
REMARK  status: ('A' for Active; 'I' for Inactive)
REMARK    1  A    between atoms: C4_6  and  N2_7 
REMARK    2  A    between atoms: N2_7  and  C5_8 
ROOT
HETATM    1 CL1  UNL     1      26.986  -2.067  52.377  1.00  0.00    -0.121 Cl
HETATM    2  C1  UNL     1      27.340  -0.359  52.685  1.00  0.00     0.124 C 
HETATM    3  C2  UNL     1      26.409   0.555  51.953  1.00  0.00     0.142 C 
HETATM    4  N1  UNL     1      25.073   0.597  52.462  1.00  0.00    -0.382 N 
HETATM    5  C3  UNL     1      24.417  -0.099  53.505  1.00  0.00     0.128 A 
HETATM    6  C4  UNL     1      23.031  -0.137  53.388  1.00  0.00     0.160 A 
HETATM    7  N3  UNL     1      22.302  -0.764  54.330  1.00  0.00    -0.222 NA
HETATM    8  C11 UNL     1      22.907  -1.351  55.376  1.00  0.00     0.238 A 
HETATM    9  N4  UNL     1      24.235  -1.320  55.496  1.00  0.00    -0.216 NA
HETATM   10  C12 UNL     1      25.007  -0.708  54.588  1.00  0.00     0.196 A 
HETATM   11  O1  UNL     1      26.384  -0.786  54.896  1.00  0.00    -0.331 OA
HETATM   12  C13 UNL     1      27.407  -0.159  54.164  1.00  0.00     0.199 C 
HETATM   13  H4  UNL     1      24.477   1.292  51.944  1.00  0.00     0.160 HD
ENDROOT
BRANCH   6  14
HETATM   14  N2  UNL     1      22.473   0.485  52.238  1.00  0.00    -0.339 N 
HETATM   15  H5  UNL     1      22.404  -0.213  51.436  1.00  0.00     0.167 HD
BRANCH  14  16
HETATM   16  C5  UNL     1      21.924   1.679  51.731  1.00  0.00     0.035 A 
HETATM   17  C6  UNL     1      20.967   2.335  52.462  1.00  0.00     0.029 A 
HETATM   18  C7  UNL     1      20.445   3.517  51.975  1.00  0.00     0.004 A 
HETATM   19  C8  UNL     1      20.914   3.984  50.771  1.00  0.00     0.019 A 
HETATM   20  C9  UNL     1      21.868   3.350  50.019  1.00  0.00     0.013 A 
HETATM   21 BR1  UNL     1      22.473   4.024  48.337  1.00  0.00    -0.051 Br
HETATM   22  C10 UNL     1      22.382   2.177  50.509  1.00  0.00     0.048 A 
ENDBRANCH  14  16
ENDBRANCH   6  14
TORSDOF 2
ENDMDL
MODEL 6
REMARK VINA RESULT:      -7.1      4.850      7.264
REMARK  2 active torsions:
REMARK  status: ('A' for Active; 'I' for Inactive)
REMARK    1  A    between atoms: C4_6  and  N2_7 
REMARK    2  A    between atoms: N2_7  and  C5_8 
ROOT
HETATM    1 CL1  UNL     1      25.078   7.462  50.465  1.00  0.00    -0.121 Cl
HETATM    2  C1  UNL     1      25.426   6.513  49.011  1.00  0.00     0.124 C 
HETATM    3  C2  UNL     1      26.524   5.521  49.230  1.00  0.00     0.142 C 
HETATM    4  N1  UNL     1      26.176   4.400  50.045  1.00  0.00    -0.382 N 
HETATM    5  C3  UNL     1      25.000   4.047  50.749  1.00  0.00     0.128 A 
HETATM    6  C4  UNL     1      25.200   3.147  51.791  1.00  0.00     0.160 A 
HETATM    7  N3  UNL     1      24.149   2.734  52.522  1.00  0.00    -0.222 NA
HETATM    8  C11 UNL     1      22.914   3.187  52.251  1.00  0.00     0.238 A 
HETATM    9  N4  UNL     1      22.713   4.051  51.255  1.00  0.00    -0.216 NA
HETATM   10  C12 UNL     1      23.724   4.492  50.495  1.00  0.00     0.196 A 
HETATM   11  O1  UNL     1      23.303   5.398  49.494  1.00  0.00    -0.331 OA
HETATM   12  C13 UNL     1      24.139   5.947  48.506  1.00  0.00     0.199 C 
HETATM   13  H4  UNL     1      26.967   3.710  50.123  1.00  0.00     0.160 HD
ENDROOT
BRANCH   6  14
HETATM   14  N2  UNL     1      26.541   2.739  52.028  1.00  0.00    -0.339 N 
HETATM   15  H5  UNL     1      27.223   3.434  51.595  1.00  0.00     0.167 HD
BRANCH  14  16
HETATM   16  C5  UNL     1      27.353   1.776  52.659  1.00  0.00     0.035 A 
HETATM   17  C6  UNL     1      28.353   2.194  53.498  1.00  0.00     0.029 A 
HETATM   18  C7  UNL     1      29.133   1.247  54.134  1.00  0.00     0.004 A 
HETATM   19  C8  UNL     1      28.868  -0.078  53.893  1.00  0.00     0.019 A 
HETATM   20  C9  UNL     1      27.876  -0.526  53.059  1.00  0.00     0.013 A 
HETATM   21 BR1  UNL     1      27.558  -2.381  52.735  1.00  0.00    -0.051 Br
HETATM   22  C10 UNL     1      27.105   0.419  52.432  1.00  0.00     0.048 A 
ENDBRANCH  14  16
ENDBRANCH   6  14
TORSDOF 2
ENDMDL
MODEL 7
REMARK VINA RESULT:      -7.0      5.144      7.148
REMARK  2 active torsions:
REMARK  status: ('A' for Active; 'I' for Inactive)
REMARK    1  A    between atoms: C4_6  and  N2_7 
REMARK    2  A    between atoms: N2_7  and  C5_8 
ROOT
HETATM    1 CL1  UNL     1      22.576   6.571  48.753  1.00  0.00    -0.121 Cl
HETATM    2  C1  UNL     1      22.854   7.006  50.447  1.00  0.00     0.124 C 
HETATM    3  C2  UNL     1      22.802   5.818  51.355  1.00  0.00     0.142 C 
HETATM    4  N1  UNL     1      23.917   4.929  51.256  1.00  0.00    -0.382 N 
HETATM    5  C3  UNL     1      25.062   4.907  50.425  1.00  0.00     0.128 A 
HETATM    6  C4  UNL     1      25.659   3.656  50.300  1.00  0.00     0.160 A 
HETATM    7  N3  UNL     1      26.762   3.520  49.541  1.00  0.00    -0.222 NA
HETATM    8  C11 UNL     1      27.284   4.583  48.907  1.00  0.00     0.238 A 
HETATM    9  N4  UNL     1      26.719   5.785  49.022  1.00  0.00    -0.216 NA
HETATM   10  C12 UNL     1      25.621   5.976  49.765  1.00  0.00     0.196 A 
HETATM   11  O1  UNL     1      25.180   7.319  49.758  1.00  0.00    -0.331 OA
HETATM   12  C13 UNL     1      24.108   7.816  50.518  1.00  0.00     0.199 C 
HETATM   13  H4  UNL     1      23.854   4.142  51.951  1.00  0.00     0.160 HD
ENDROOT
BRANCH   6  14
HETATM   14  N2  UNL     1      25.027   2.580  50.981  1.00  0.00    -0.339 N 
HETATM   15  H5  UNL     1      23.972   2.614  50.830  1.00  0.00     0.167 HD
BRANCH  14  16
HETATM   16  C5  UNL     1      25.247   1.431  51.765  1.00  0.00     0.035 A 
HETATM   17  C6  UNL     1      26.492   0.857  51.772  1.00  0.00     0.029 A 
HETATM   18  C7  UNL     1      26.712  -0.257  52.559  1.00  0.00     0.004 A 
HETATM   19  C8  UNL     1      25.664  -0.739  53.304  1.00  0.00     0.019 A 
HETATM   20  C9  UNL     1      24.410  -0.187  53.318  1.00  0.00     0.013 A 
HETATM   21 BR1  UNL     1      22.975  -0.907  54.352  1.00  0.00    -0.051 Br
HETATM   22  C10 UNL     1      24.199   0.918  52.534  1.00  0.00     0.048 A 
ENDBRANCH  14  16
ENDBRANCH   6  14
TORSDOF 2
ENDMDL
MODEL 8
REMARK VINA RESULT:      -7.0      5.319      7.516
REMARK  2 active torsions:
REMARK  status: ('A' for Active; 'I' for Inactive)
REMARK    1  A    between atoms: C4_6  and  N2_7 
REMARK    2  A    between atoms: N2_7  and  C5_8 
ROOT
HETATM    1 CL1  UNL     1      22.290   5.854  49.322  1.00  0.00    -0.121 Cl
HETATM    2  C1  UNL     1      22.709   6.342  50.972  1.00  0.00     0.124 C 
HETATM    3  C2  UNL     1      22.909   5.168  51.878  1.00  0.00     0.142 C 
HETATM    4  N1  UNL     1      24.104   4.419  51.648  1.00  0.00    -0.382 N 
HETATM    5  C3  UNL     1      25.139   4.525  50.688  1.00  0.00     0.128 A 
HETATM    6  C4  UNL     1      25.864   3.354  50.492  1.00  0.00     0.160 A 
HETATM    7  N3  UNL     1      26.879   3.342  49.608  1.00  0.00    -0.222 NA
HETATM    8  C11 UNL     1      27.190   4.452  48.919  1.00  0.00     0.238 A 
HETATM    9  N4  UNL     1      26.501   5.579  49.100  1.00  0.00    -0.216 NA
HETATM   10  C12 UNL     1      25.482   5.645  49.968  1.00  0.00     0.196 A 
HETATM   11  O1  UNL     1      24.884   6.925  50.014  1.00  0.00    -0.331 OA
HETATM   12  C13 UNL     1      23.855   7.298  50.897  1.00  0.00     0.199 C 
HETATM   13  H4  UNL     1      24.219   3.639  52.344  1.00  0.00     0.160 HD
ENDROOT
BRANCH   6  14
HETATM   14  N2  UNL     1      25.451   2.219  51.241  1.00  0.00    -0.339 N 
HETATM   15  H5  UNL     1      24.497   1.881  50.908  1.00  0.00     0.167 HD
BRANCH  14  16
HETATM   16  C5  UNL     1      25.828   1.311  52.250  1.00  0.00     0.035 A 
HETATM   17  C6  UNL     1      24.857   0.750  53.038  1.00  0.00     0.029 A 
HETATM   18  C7  UNL     1      25.226  -0.157  54.013  1.00  0.00     0.004 A 
HETATM   19  C8  UNL     1      26.560  -0.457  54.146  1.00  0.00     0.019 A 
HETATM   20  C9  UNL     1      27.552   0.088  53.373  1.00  0.00     0.013 A 
HETATM   21 BR1  UNL     1      29.398  -0.340  53.610  1.00  0.00    -0.051 Br
HETATM   22  C10 UNL     1      27.178   0.987  52.408  1.00  0.00     0.048 A 
ENDBRANCH  14  16
ENDBRANCH   6  14
TORSDOF 2
ENDMDL
MODEL 9
REMARK VINA RESULT:      -7.0      3.819      5.237
REMARK  2 active torsions:
REMARK  status: ('A' for Active; 'I' for Inactive)
REMARK    1  A    between atoms: C4_6  and  N2_7 
REMARK    2  A    between atoms: N2_7  and  C5_8 
ROOT
HETATM    1 CL1  UNL     1      20.802   0.625  55.008  1.00  0.00    -0.121 Cl
HETATM    2  C1  UNL     1      20.728  -0.637  53.767  1.00  0.00     0.124 C 
HETATM    3  C2  UNL     1      21.352  -0.203  52.478  1.00  0.00     0.142 C 
HETATM    4  N1  UNL     1      22.778  -0.109  52.495  1.00  0.00    -0.382 N 
HETATM    5  C3  UNL     1      23.745  -0.295  53.511  1.00  0.00     0.128 A 
HETATM    6  C4  UNL     1      24.961   0.339  53.272  1.00  0.00     0.160 A 
HETATM    7  N3  UNL     1      25.958   0.221  54.168  1.00  0.00    -0.222 NA
HETATM    8  C11 UNL     1      25.782  -0.500  55.288  1.00  0.00     0.238 A 
HETATM    9  N4  UNL     1      24.620  -1.110  55.525  1.00  0.00    -0.216 NA
HETATM   10  C12 UNL     1      23.596  -1.027  54.665  1.00  0.00     0.196 A 
HETATM   11  O1  UNL     1      22.457  -1.743  55.098  1.00  0.00    -0.331 OA
HETATM   12  C13 UNL     1      21.275  -1.897  54.353  1.00  0.00     0.199 C 
HETATM   13  H4  UNL     1      23.166   0.149  51.551  1.00  0.00     0.160 HD
ENDROOT
BRANCH   6  14
HETATM   14  N2  UNL     1      25.054   1.104  52.078  1.00  0.00    -0.339 N 
HETATM   15  H5  UNL     1      25.209   0.466  51.239  1.00  0.00     0.167 HD
BRANCH  14  16
HETATM   16  C5  UNL     1      24.981   2.404  51.540  1.00  0.00     0.035 A 
HETATM   17  C6  UNL     1      23.958   3.230  51.929  1.00  0.00     0.029 A 
HETATM   18  C7  UNL     1      23.901   4.512  51.418  1.00  0.00     0.004 A 
HETATM   19  C8  UNL     1      24.879   4.901  50.536  1.00  0.00     0.019 A 
HETATM   20  C9  UNL     1      25.912   4.098  50.128  1.00  0.00     0.013 A 
HETATM   21 BR1  UNL     1      27.238   4.675  48.880  1.00  0.00    -0.051 Br
HETATM   22  C10 UNL     1      25.963   2.827  50.640  1.00  0.00     0.048 A 
ENDBRANCH  14  16
ENDBRANCH   6  14
TORSDOF 2
ENDMDL
