MODEL 1
REMARK VINA RESULT:      -8.6      0.000      0.000
REMARK  4 active torsions:
REMARK  status: ('A' for Active; 'I' for Inactive)
REMARK    1  A    between atoms: C7_7  and  N1_8 
REMARK    2  A    between atoms: N1_8  and  C8_9 
REMARK    3  A    between atoms: C14_18  and  N4_19 
REMARK    4  A    between atoms: C21_27  and  O3_28 
ROOT
HETATM    1  C1  UNL     1      32.252   2.935  46.623  1.00  0.00     0.018 C 
HETATM    2  C2  UNL     1      32.010   4.005  47.121  1.00  0.00    -0.075 C 
HETATM    3  C3  UNL     1      31.740   5.281  47.728  1.00  0.00     0.057 A 
HETATM    4  C4  UNL     1      32.736   6.176  48.006  1.00  0.00     0.024 A 
HETATM    5  C5  UNL     1      32.573   7.404  48.578  1.00  0.00     0.004 A 
HETATM    6  C6  UNL     1      31.300   7.790  48.910  1.00  0.00     0.033 A 
HETATM    7  C7  UNL     1      30.218   6.944  48.665  1.00  0.00     0.074 A 
HETATM    8  C24 UNL     1      30.471   5.694  48.073  1.00  0.00     0.161 A 
HETATM    9  F1  UNL     1      29.492   4.776  47.782  1.00  0.00    -0.202 F 
ENDROOT
BRANCH   7  10
HETATM   10  N1  UNL     1      28.836   7.135  48.902  1.00  0.00    -0.338 N 
HETATM   11  H5  UNL     1      28.971   6.880  49.925  1.00  0.00     0.167 HD
BRANCH  10  12
HETATM   12  C8  UNL     1      27.545   7.474  48.428  1.00  0.00     0.141 A 
HETATM   13  N2  UNL     1      27.501   8.731  47.970  1.00  0.00    -0.224 NA
HETATM   14  C9  UNL     1      26.448   9.335  47.466  1.00  0.00     0.236 A 
HETATM   15  N3  UNL     1      25.394   8.562  47.450  1.00  0.00    -0.241 NA
HETATM   16  C10 UNL     1      25.264   7.296  47.863  1.00  0.00     0.072 A 
HETATM   17  C11 UNL     1      26.399   6.715  48.383  1.00  0.00     0.037 A 
HETATM   18  C23 UNL     1      24.033   6.856  47.679  1.00  0.00     0.065 C 
HETATM   19  C12 UNL     1      26.598   5.519  48.906  1.00  0.00     0.017 C 
HETATM   20  C13 UNL     1      25.995   4.222  49.226  1.00  0.00     0.198 C 
HETATM   21  O1  UNL     1      25.749   4.154  50.561  1.00  0.00    -0.364 OA
HETATM   22  C14 UNL     1      25.220   3.025  51.103  1.00  0.00     0.214 C 
HETATM   23  C15 UNL     1      23.764   3.249  51.517  1.00  0.00     0.053 C 
HETATM   24  C16 UNL     1      23.645   4.452  52.401  1.00  0.00     0.004 C 
HETATM   25  C17 UNL     1      22.201   4.753  52.722  1.00  0.00     0.000 C 
HETATM   26  C18 UNL     1      21.382   4.869  51.452  1.00  0.00     0.002 C 
HETATM   27  C19 UNL     1      21.997   5.834  50.453  1.00  0.00     0.026 C 
HETATM   28  C20 UNL     1      21.162   5.876  49.219  1.00  0.00     0.171 C 
HETATM   29  O2  UNL     1      21.661   6.571  48.157  1.00  0.00    -0.358 OA
HETATM   30  C21 UNL     1      22.851   6.016  47.652  1.00  0.00     0.285 C 
BRANCH  22  31
HETATM   31  N4  UNL     1      26.028   2.426  52.105  1.00  0.00    -0.406 N 
HETATM   32  H11 UNL     1      25.657   2.433  53.071  1.00  0.00     0.152 HD
HETATM   33  H12 UNL     1      26.519   1.556  51.822  1.00  0.00     0.152 HD
ENDBRANCH  22  31
BRANCH  30  34
HETATM   34  O3  UNL     1      22.606   5.388  46.420  1.00  0.00    -0.363 OA
HETATM   35  C22 UNL     1      22.321   6.240  45.390  1.00  0.00     0.205 C 
ENDBRANCH  30  34
ENDBRANCH  10  12
ENDBRANCH   7  10
TORSDOF 4
ENDMDL
MODEL 2
REMARK VINA RESULT:      -8.6      4.516      6.811
REMARK  4 active torsions:
REMARK  status: ('A' for Active; 'I' for Inactive)
REMARK    1  A    between atoms: C7_7  and  N1_8 
REMARK    2  A    between atoms: N1_8  and  C8_9 
REMARK    3  A    between atoms: C14_18  and  N4_19 
REMARK    4  A    between atoms: C21_27  and  O3_28 
ROOT
HETATM    1  C1  UNL     1      22.759  -1.235  55.184  1.00  0.00     0.018 C 
HETATM    2  C2  UNL     1      23.599  -0.829  54.421  1.00  0.00    -0.075 C 
HETATM    3  C3  UNL     1      24.618  -0.354  53.523  1.00  0.00     0.057 A 
HETATM    4  C4  UNL     1      25.717  -1.105  53.214  1.00  0.00     0.024 A 
HETATM    5  C5  UNL     1      26.729  -0.738  52.375  1.00  0.00     0.004 A 
HETATM    6  C6  UNL     1      26.650   0.496  51.782  1.00  0.00     0.033 A 
HETATM    7  C7  UNL     1      25.565   1.335  52.036  1.00  0.00     0.074 A 
HETATM    8  C24 UNL     1      24.564   0.881  52.913  1.00  0.00     0.161 A 
HETATM    9  F1  UNL     1      23.449   1.612  53.241  1.00  0.00    -0.202 F 
ENDROOT
BRANCH   7  10
HETATM   10  N1  UNL     1      25.265   2.622  51.530  1.00  0.00    -0.338 N 
HETATM   11  H5  UNL     1      25.698   3.067  52.392  1.00  0.00     0.167 HD
BRANCH  10  12
HETATM   12  C8  UNL     1      24.719   3.444  50.514  1.00  0.00     0.141 A 
HETATM   13  N2  UNL     1      25.492   4.510  50.272  1.00  0.00    -0.224 NA
HETATM   14  C9  UNL     1      25.254   5.453  49.387  1.00  0.00     0.236 A 
HETATM   15  N3  UNL     1      24.142   5.250  48.731  1.00  0.00    -0.241 NA
HETATM   16  C10 UNL     1      23.261   4.250  48.847  1.00  0.00     0.072 A 
HETATM   17  C11 UNL     1      23.561   3.291  49.789  1.00  0.00     0.037 A 
HETATM   18  C23 UNL     1      22.256   4.397  48.003  1.00  0.00     0.065 C 
HETATM   19  C12 UNL     1      22.895   2.217  50.175  1.00  0.00     0.017 C 
HETATM   20  C13 UNL     1      21.701   1.393  49.965  1.00  0.00     0.198 C 
HETATM   21  O1  UNL     1      20.810   1.624  50.964  1.00  0.00    -0.364 OA
HETATM   22  C14 UNL     1      19.634   0.943  51.003  1.00  0.00     0.214 C 
HETATM   23  C15 UNL     1      18.462   1.858  50.642  1.00  0.00     0.053 C 
HETATM   24  C16 UNL     1      18.471   3.089  51.494  1.00  0.00     0.004 C 
HETATM   25  C17 UNL     1      17.389   4.054  51.071  1.00  0.00     0.000 C 
HETATM   26  C18 UNL     1      17.493   4.358  49.589  1.00  0.00     0.002 C 
HETATM   27  C19 UNL     1      18.890   4.795  49.184  1.00  0.00     0.026 C 
HETATM   28  C20 UNL     1      18.929   5.046  47.716  1.00  0.00     0.171 C 
HETATM   29  O2  UNL     1      20.151   5.289  47.161  1.00  0.00    -0.358 OA
HETATM   30  C21 UNL     1      21.025   4.192  47.264  1.00  0.00     0.285 C 
BRANCH  22  31
HETATM   31  N4  UNL     1      19.441   0.182  52.186  1.00  0.00    -0.406 N 
HETATM   32  H11 UNL     1      18.662  -0.500  52.183  1.00  0.00     0.152 HD
HETATM   33  H12 UNL     1      20.309  -0.135  52.660  1.00  0.00     0.152 HD
ENDBRANCH  22  31
BRANCH  30  34
HETATM   34  O3  UNL     1      21.189   3.585  46.008  1.00  0.00    -0.363 OA
HETATM   35  C22 UNL     1      21.756   4.385  45.057  1.00  0.00     0.205 C 
ENDBRANCH  30  34
ENDBRANCH  10  12
ENDBRANCH   7  10
TORSDOF 4
ENDMDL
MODEL 3
REMARK VINA RESULT:      -8.5      3.945      7.076
REMARK  4 active torsions:
REMARK  status: ('A' for Active; 'I' for Inactive)
REMARK    1  A    between atoms: C7_7  and  N1_8 
REMARK    2  A    between atoms: N1_8  and  C8_9 
REMARK    3  A    between atoms: C14_18  and  N4_19 
REMARK    4  A    between atoms: C21_27  and  O3_28 
ROOT
HETATM    1  C1  UNL     1      28.852  -0.026  53.581  1.00  0.00     0.018 C 
HETATM    2  C2  UNL     1      27.656   0.051  53.454  1.00  0.00    -0.075 C 
HETATM    3  C3  UNL     1      26.226   0.121  53.306  1.00  0.00     0.057 A 
HETATM    4  C4  UNL     1      25.381  -0.611  54.093  1.00  0.00     0.024 A 
HETATM    5  C5  UNL     1      24.018  -0.607  54.025  1.00  0.00     0.004 A 
HETATM    6  C6  UNL     1      23.429   0.199  53.085  1.00  0.00     0.033 A 
HETATM    7  C7  UNL     1      24.210   0.983  52.235  1.00  0.00     0.074 A 
HETATM    8  C24 UNL     1      25.608   0.921  52.371  1.00  0.00     0.161 A 
HETATM    9  F1  UNL     1      26.481   1.644  51.595  1.00  0.00    -0.202 F 
ENDROOT
BRANCH   7  10
HETATM   10  N1  UNL     1      23.827   1.890  51.219  1.00  0.00    -0.338 N 
HETATM   11  H5  UNL     1      24.723   2.441  51.367  1.00  0.00     0.167 HD
BRANCH  10  12
HETATM   12  C8  UNL     1      22.899   2.309  50.234  1.00  0.00     0.141 A 
HETATM   13  N2  UNL     1      22.320   1.267  49.625  1.00  0.00    -0.224 NA
HETATM   14  C9  UNL     1      21.418   1.331  48.671  1.00  0.00     0.236 A 
HETATM   15  N3  UNL     1      21.121   2.564  48.352  1.00  0.00    -0.241 NA
HETATM   16  C10 UNL     1      21.600   3.709  48.852  1.00  0.00     0.072 A 
HETATM   17  C11 UNL     1      22.542   3.579  49.848  1.00  0.00     0.037 A 
HETATM   18  C23 UNL     1      21.049   4.755  48.266  1.00  0.00     0.065 C 
HETATM   19  C12 UNL     1      23.230   4.491  50.513  1.00  0.00     0.017 C 
HETATM   20  C13 UNL     1      23.461   5.924  50.714  1.00  0.00     0.198 C 
HETATM   21  O1  UNL     1      24.626   6.284  50.114  1.00  0.00    -0.364 OA
HETATM   22  C14 UNL     1      25.071   7.566  50.197  1.00  0.00     0.214 C 
HETATM   23  C15 UNL     1      24.926   8.281  48.852  1.00  0.00     0.053 C 
HETATM   24  C16 UNL     1      25.576   7.490  47.759  1.00  0.00     0.004 C 
HETATM   25  C17 UNL     1      25.340   8.125  46.410  1.00  0.00     0.000 C 
HETATM   26  C18 UNL     1      23.860   8.353  46.177  1.00  0.00     0.002 C 
HETATM   27  C19 UNL     1      23.037   7.097  46.410  1.00  0.00     0.026 C 
HETATM   28  C20 UNL     1      21.593   7.398  46.195  1.00  0.00     0.171 C 
HETATM   29  O2  UNL     1      20.702   6.420  46.522  1.00  0.00    -0.358 OA
HETATM   30  C21 UNL     1      20.705   6.114  47.895  1.00  0.00     0.285 C 
BRANCH  22  31
HETATM   31  N4  UNL     1      26.351   7.700  50.797  1.00  0.00    -0.406 N 
HETATM   32  H11 UNL     1      26.781   6.839  51.179  1.00  0.00     0.152 HD
HETATM   33  H12 UNL     1      27.004   8.349  50.316  1.00  0.00     0.152 HD
ENDBRANCH  22  31
BRANCH  30  34
HETATM   34  O3  UNL     1      19.542   6.613  48.504  1.00  0.00    -0.363 OA
HETATM   35  C22 UNL     1      19.765   7.518  49.504  1.00  0.00     0.205 C 
ENDBRANCH  30  34
ENDBRANCH  10  12
ENDBRANCH   7  10
TORSDOF 4
ENDMDL
MODEL 4
REMARK VINA RESULT:      -8.5      2.345      3.405
REMARK  4 active torsions:
REMARK  status: ('A' for Active; 'I' for Inactive)
REMARK    1  A    between atoms: C7_7  and  N1_8 
REMARK    2  A    between atoms: N1_8  and  C8_9 
REMARK    3  A    between atoms: C14_18  and  N4_19 
REMARK    4  A    between atoms: C21_27  and  O3_28 
ROOT
HETATM    1  C1  UNL     1      30.491  12.395  49.326  1.00  0.00     0.018 C 
HETATM    2  C2  UNL     1      30.327  11.216  49.141  1.00  0.00    -0.075 C 
HETATM    3  C3  UNL     1      30.141   9.809  48.901  1.00  0.00     0.057 A 
HETATM    4  C4  UNL     1      31.143   9.022  48.405  1.00  0.00     0.024 A 
HETATM    5  C5  UNL     1      31.059   7.685  48.147  1.00  0.00     0.004 A 
HETATM    6  C6  UNL     1      29.865   7.060  48.404  1.00  0.00     0.033 A 
HETATM    7  C7  UNL     1      28.784   7.780  48.911  1.00  0.00     0.074 A 
HETATM    8  C24 UNL     1      28.954   9.156  49.149  1.00  0.00     0.161 A 
HETATM    9  F1  UNL     1      27.966   9.971  49.646  1.00  0.00    -0.202 F 
ENDROOT
BRANCH   7  10
HETATM   10  N1  UNL     1      27.483   7.350  49.265  1.00  0.00    -0.338 N 
HETATM   11  H5  UNL     1      27.793   7.225  50.273  1.00  0.00     0.167 HD
BRANCH  10  12
HETATM   12  C8  UNL     1      26.145   7.063  48.901  1.00  0.00     0.141 A 
HETATM   13  N2  UNL     1      25.477   8.172  48.560  1.00  0.00    -0.224 NA
HETATM   14  C9  UNL     1      24.221   8.232  48.176  1.00  0.00     0.236 A 
HETATM   15  N3  UNL     1      23.652   7.055  48.155  1.00  0.00    -0.241 NA
HETATM   16  C10 UNL     1      24.167   5.859  48.462  1.00  0.00     0.072 A 
HETATM   17  C11 UNL     1      25.485   5.858  48.859  1.00  0.00     0.037 A 
HETATM   18  C23 UNL     1      23.271   4.900  48.315  1.00  0.00     0.065 C 
HETATM   19  C12 UNL     1      26.268   4.872  49.261  1.00  0.00     0.017 C 
HETATM   20  C13 UNL     1      26.371   3.430  49.502  1.00  0.00     0.198 C 
HETATM   21  O1  UNL     1      26.313   3.188  50.838  1.00  0.00    -0.364 OA
HETATM   22  C14 UNL     1      26.425   1.917  51.309  1.00  0.00     0.214 C 
HETATM   23  C15 UNL     1      25.079   1.409  51.828  1.00  0.00     0.053 C 
HETATM   24  C16 UNL     1      24.498   2.368  52.821  1.00  0.00     0.004 C 
HETATM   25  C17 UNL     1      23.118   1.936  53.255  1.00  0.00     0.000 C 
HETATM   26  C18 UNL     1      22.223   1.714  52.051  1.00  0.00     0.002 C 
HETATM   27  C19 UNL     1      22.220   2.904  51.106  1.00  0.00     0.026 C 
HETATM   28  C20 UNL     1      21.349   2.608  49.934  1.00  0.00     0.171 C 
HETATM   29  O2  UNL     1      21.363   3.508  48.909  1.00  0.00    -0.358 OA
HETATM   30  C21 UNL     1      22.620   3.605  48.285  1.00  0.00     0.285 C 
BRANCH  22  31
HETATM   31  N4  UNL     1      27.511   1.722  52.204  1.00  0.00    -0.406 N 
HETATM   32  H11 UNL     1      27.704   2.484  52.878  1.00  0.00     0.152 HD
HETATM   33  H12 UNL     1      27.614   0.759  52.578  1.00  0.00     0.152 HD
ENDBRANCH  22  31
BRANCH  30  34
HETATM   34  O3  UNL     1      22.580   2.997  47.020  1.00  0.00    -0.363 OA
HETATM   35  C22 UNL     1      21.860   3.680  46.080  1.00  0.00     0.205 C 
ENDBRANCH  30  34
ENDBRANCH  10  12
ENDBRANCH   7  10
TORSDOF 4
ENDMDL
MODEL 5
REMARK VINA RESULT:      -8.3      3.779      7.211
REMARK  4 active torsions:
REMARK  status: ('A' for Active; 'I' for Inactive)
REMARK    1  A    between atoms: C7_7  and  N1_8 
REMARK    2  A    between atoms: N1_8  and  C8_9 
REMARK    3  A    between atoms: C14_18  and  N4_19 
REMARK    4  A    between atoms: C21_27  and  O3_28 
ROOT
HETATM    1  C1  UNL     1      22.260  -1.108  54.431  1.00  0.00     0.018 C 
HETATM    2  C2  UNL     1      23.099  -0.513  53.803  1.00  0.00    -0.075 C 
HETATM    3  C3  UNL     1      24.114   0.197  53.071  1.00  0.00     0.057 A 
HETATM    4  C4  UNL     1      25.433  -0.157  53.137  1.00  0.00     0.024 A 
HETATM    5  C5  UNL     1      26.461   0.455  52.480  1.00  0.00     0.004 A 
HETATM    6  C6  UNL     1      26.157   1.525  51.677  1.00  0.00     0.033 A 
HETATM    7  C7  UNL     1      24.838   1.960  51.547  1.00  0.00     0.074 A 
HETATM    8  C24 UNL     1      23.838   1.274  52.258  1.00  0.00     0.161 A 
HETATM    9  F1  UNL     1      22.506   1.606  52.212  1.00  0.00    -0.202 F 
ENDROOT
BRANCH   7  10
HETATM   10  N1  UNL     1      24.294   3.013  50.772  1.00  0.00    -0.338 N 
HETATM   11  H5  UNL     1      24.610   3.718  51.501  1.00  0.00     0.167 HD
BRANCH  10  12
HETATM   12  C8  UNL     1      23.614   3.457  49.612  1.00  0.00     0.141 A 
HETATM   13  N2  UNL     1      23.088   2.435  48.925  1.00  0.00    -0.224 NA
HETATM   14  C9  UNL     1      22.401   2.525  47.808  1.00  0.00     0.236 A 
HETATM   15  N3  UNL     1      22.269   3.762  47.406  1.00  0.00    -0.241 NA
HETATM   16  C10 UNL     1      22.726   4.889  47.964  1.00  0.00     0.072 A 
HETATM   17  C11 UNL     1      23.440   4.733  49.131  1.00  0.00     0.037 A 
HETATM   18  C23 UNL     1      22.384   5.948  47.254  1.00  0.00     0.065 C 
HETATM   19  C12 UNL     1      24.051   5.619  49.898  1.00  0.00     0.017 C 
HETATM   20  C13 UNL     1      24.347   7.039  50.106  1.00  0.00     0.198 C 
HETATM   21  O1  UNL     1      25.632   7.292  49.743  1.00  0.00    -0.364 OA
HETATM   22  C14 UNL     1      26.149   8.542  49.882  1.00  0.00     0.214 C 
HETATM   23  C15 UNL     1      26.328   9.212  48.518  1.00  0.00     0.053 C 
HETATM   24  C16 UNL     1      27.118   8.334  47.597  1.00  0.00     0.004 C 
HETATM   25  C17 UNL     1      27.204   8.931  46.213  1.00  0.00     0.000 C 
HETATM   26  C18 UNL     1      25.821   9.254  45.683  1.00  0.00     0.002 C 
HETATM   27  C19 UNL     1      24.874   8.069  45.777  1.00  0.00     0.026 C 
HETATM   28  C20 UNL     1      23.529   8.463  45.270  1.00  0.00     0.171 C 
HETATM   29  O2  UNL     1      22.518   7.563  45.435  1.00  0.00    -0.358 OA
HETATM   30  C21 UNL     1      22.226   7.313  46.788  1.00  0.00     0.285 C 
BRANCH  22  31
HETATM   31  N4  UNL     1      27.292   8.609  50.722  1.00  0.00    -0.406 N 
HETATM   32  H11 UNL     1      27.405   7.851  51.419  1.00  0.00     0.152 HD
HETATM   33  H12 UNL     1      28.167   8.926  50.262  1.00  0.00     0.152 HD
ENDBRANCH  22  31
BRANCH  30  34
HETATM   34  O3  UNL     1      21.008   7.915  47.140  1.00  0.00    -0.363 OA
HETATM   35  C22 UNL     1      19.924   7.466  46.437  1.00  0.00     0.205 C 
ENDBRANCH  30  34
ENDBRANCH  10  12
ENDBRANCH   7  10
TORSDOF 4
ENDMDL
MODEL 6
REMARK VINA RESULT:      -8.1      4.682      8.124
REMARK  4 active torsions:
REMARK  status: ('A' for Active; 'I' for Inactive)
REMARK    1  A    between atoms: C7_7  and  N1_8 
REMARK    2  A    between atoms: N1_8  and  C8_9 
REMARK    3  A    between atoms: C14_18  and  N4_19 
REMARK    4  A    between atoms: C21_27  and  O3_28 
ROOT
HETATM    1  C1  UNL     1      26.666  -0.206  52.773  1.00  0.00     0.018 C 
HETATM    2  C2  UNL     1      25.505  -0.138  53.087  1.00  0.00    -0.075 C 
HETATM    3  C3  UNL     1      24.117  -0.079  53.463  1.00  0.00     0.057 A 
HETATM    4  C4  UNL     1      23.604  -0.863  54.459  1.00  0.00     0.024 A 
HETATM    5  C5  UNL     1      22.307  -0.874  54.883  1.00  0.00     0.004 A 
HETATM    6  C6  UNL     1      21.425  -0.028  54.260  1.00  0.00     0.033 A 
HETATM    7  C7  UNL     1      21.855   0.810  53.231  1.00  0.00     0.074 A 
HETATM    8  C24 UNL     1      23.209   0.760  52.855  1.00  0.00     0.161 A 
HETATM    9  F1  UNL     1      23.752   1.534  51.859  1.00  0.00    -0.202 F 
ENDROOT
BRANCH   7  10
HETATM   10  N1  UNL     1      21.140   1.764  52.469  1.00  0.00    -0.338 N 
HETATM   11  H5  UNL     1      21.157   2.439  53.289  1.00  0.00     0.167 HD
BRANCH  10  12
HETATM   12  C8  UNL     1      20.512   2.145  51.258  1.00  0.00     0.141 A 
HETATM   13  N2  UNL     1      19.899   1.109  50.672  1.00  0.00    -0.224 NA
HETATM   14  C9  UNL     1      19.230   1.145  49.541  1.00  0.00     0.236 A 
HETATM   15  N3  UNL     1      19.215   2.341  49.011  1.00  0.00    -0.241 NA
HETATM   16  C10 UNL     1      19.770   3.473  49.458  1.00  0.00     0.072 A 
HETATM   17  C11 UNL     1      20.459   3.375  50.646  1.00  0.00     0.037 A 
HETATM   18  C23 UNL     1      19.531   4.479  48.637  1.00  0.00     0.065 C 
HETATM   19  C12 UNL     1      21.143   4.277  51.327  1.00  0.00     0.017 C 
HETATM   20  C13 UNL     1      21.567   5.678  51.393  1.00  0.00     0.198 C 
HETATM   21  O1  UNL     1      22.872   5.775  51.026  1.00  0.00    -0.364 OA
HETATM   22  C14 UNL     1      23.501   6.980  51.044  1.00  0.00     0.214 C 
HETATM   23  C15 UNL     1      23.750   7.486  49.622  1.00  0.00     0.053 C 
HETATM   24  C16 UNL     1      24.462   6.450  48.809  1.00  0.00     0.004 C 
HETATM   25  C17 UNL     1      24.611   6.889  47.373  1.00  0.00     0.000 C 
HETATM   26  C18 UNL     1      23.267   7.279  46.790  1.00  0.00     0.002 C 
HETATM   27  C19 UNL     1      22.215   6.201  46.990  1.00  0.00     0.026 C 
HETATM   28  C20 UNL     1      20.915   6.660  46.424  1.00  0.00     0.171 C 
HETATM   29  O2  UNL     1      19.825   5.878  46.664  1.00  0.00    -0.358 OA
HETATM   30  C21 UNL     1      19.502   5.797  48.031  1.00  0.00     0.285 C 
BRANCH  22  31
HETATM   31  N4  UNL     1      24.639   7.030  51.892  1.00  0.00    -0.406 N 
HETATM   32  H11 UNL     1      24.477   7.301  52.878  1.00  0.00     0.152 HD
HETATM   33  H12 UNL     1      25.338   6.276  51.747  1.00  0.00     0.152 HD
ENDBRANCH  22  31
BRANCH  30  34
HETATM   34  O3  UNL     1      18.342   6.540  48.299  1.00  0.00    -0.363 OA
HETATM   35  C22 UNL     1      17.305   6.312  47.438  1.00  0.00     0.205 C 
ENDBRANCH  30  34
ENDBRANCH  10  12
ENDBRANCH   7  10
TORSDOF 4
ENDMDL
MODEL 7
REMARK VINA RESULT:      -8.0      7.538     10.137
REMARK  4 active torsions:
REMARK  status: ('A' for Active; 'I' for Inactive)
REMARK    1  A    between atoms: C7_7  and  N1_8 
REMARK    2  A    between atoms: N1_8  and  C8_9 
REMARK    3  A    between atoms: C14_18  and  N4_19 
REMARK    4  A    between atoms: C21_27  and  O3_28 
ROOT
HETATM    1  C1  UNL     1      26.589  -0.310  52.974  1.00  0.00     0.018 C 
HETATM    2  C2  UNL     1      25.432  -0.387  53.300  1.00  0.00    -0.075 C 
HETATM    3  C3  UNL     1      24.053  -0.500  53.697  1.00  0.00     0.057 A 
HETATM    4  C4  UNL     1      23.682  -1.127  54.854  1.00  0.00     0.024 A 
HETATM    5  C5  UNL     1      22.405  -1.280  55.309  1.00  0.00     0.004 A 
HETATM    6  C6  UNL     1      21.389  -0.763  54.545  1.00  0.00     0.033 A 
HETATM    7  C7  UNL     1      21.669  -0.107  53.347  1.00  0.00     0.074 A 
HETATM    8  C24 UNL     1      23.013   0.009  52.949  1.00  0.00     0.161 A 
HETATM    9  F1  UNL     1      23.415   0.632  51.794  1.00  0.00    -0.202 F 
ENDROOT
BRANCH   7  10
HETATM   10  N1  UNL     1      20.799   0.513  52.419  1.00  0.00    -0.338 N 
HETATM   11  H5  UNL     1      20.714  -0.399  51.882  1.00  0.00     0.167 HD
BRANCH  10  12
HETATM   12  C8  UNL     1      20.097   1.659  51.973  1.00  0.00     0.141 A 
HETATM   13  N2  UNL     1      20.814   2.777  52.144  1.00  0.00    -0.224 NA
HETATM   14  C9  UNL     1      20.435   3.995  51.828  1.00  0.00     0.236 A 
HETATM   15  N3  UNL     1      19.237   4.023  51.306  1.00  0.00    -0.241 NA
HETATM   16  C10 UNL     1      18.392   3.013  51.067  1.00  0.00     0.072 A 
HETATM   17  C11 UNL     1      18.842   1.760  51.419  1.00  0.00     0.037 A 
HETATM   18  C23 UNL     1      17.269   3.445  50.526  1.00  0.00     0.065 C 
HETATM   19  C12 UNL     1      18.253   0.579  51.356  1.00  0.00     0.017 C 
HETATM   20  C13 UNL     1      17.048  -0.153  50.954  1.00  0.00     0.198 C 
HETATM   21  O1  UNL     1      16.319  -0.467  52.057  1.00  0.00    -0.364 OA
HETATM   22  C14 UNL     1      15.169  -1.182  51.936  1.00  0.00     0.214 C 
HETATM   23  C15 UNL     1      13.948  -0.297  52.192  1.00  0.00     0.053 C 
HETATM   24  C16 UNL     1      14.076   0.417  53.502  1.00  0.00     0.004 C 
HETATM   25  C17 UNL     1      12.935   1.381  53.715  1.00  0.00     0.000 C 
HETATM   26  C18 UNL     1      12.806   2.326  52.536  1.00  0.00     0.002 C 
HETATM   27  C19 UNL     1      14.121   3.006  52.193  1.00  0.00     0.026 C 
HETATM   28  C20 UNL     1      13.932   3.893  51.011  1.00  0.00     0.171 C 
HETATM   29  O2  UNL     1      15.052   4.454  50.472  1.00  0.00    -0.358 OA
HETATM   30  C21 UNL     1      15.941   3.499  49.946  1.00  0.00     0.285 C 
BRANCH  22  31
HETATM   31  N4  UNL     1      15.166  -2.406  52.655  1.00  0.00    -0.406 N 
HETATM   32  H11 UNL     1      14.872  -3.253  52.138  1.00  0.00     0.152 HD
HETATM   33  H12 UNL     1      15.959  -2.539  53.313  1.00  0.00     0.152 HD
ENDBRANCH  22  31
BRANCH  30  34
HETATM   34  O3  UNL     1      15.915   3.537  48.542  1.00  0.00    -0.363 OA
HETATM   35  C22 UNL     1      16.212   2.350  47.933  1.00  0.00     0.205 C 
ENDBRANCH  30  34
ENDBRANCH  10  12
ENDBRANCH   7  10
TORSDOF 4
ENDMDL
MODEL 8
REMARK VINA RESULT:      -7.9      4.289      8.066
REMARK  4 active torsions:
REMARK  status: ('A' for Active; 'I' for Inactive)
REMARK    1  A    between atoms: C7_7  and  N1_8 
REMARK    2  A    between atoms: N1_8  and  C8_9 
REMARK    3  A    between atoms: C14_18  and  N4_19 
REMARK    4  A    between atoms: C21_27  and  O3_28 
ROOT
HETATM    1  C1  UNL     1      26.822   3.559  49.560  1.00  0.00     0.018 C 
HETATM    2  C2  UNL     1      26.373   2.777  50.358  1.00  0.00    -0.075 C 
HETATM    3  C3  UNL     1      25.846   1.825  51.301  1.00  0.00     0.057 A 
HETATM    4  C4  UNL     1      26.603   0.796  51.789  1.00  0.00     0.024 A 
HETATM    5  C5  UNL     1      26.190  -0.149  52.683  1.00  0.00     0.004 A 
HETATM    6  C6  UNL     1      24.900  -0.072  53.141  1.00  0.00     0.033 A 
HETATM    7  C7  UNL     1      24.051   0.943  52.700  1.00  0.00     0.074 A 
HETATM    8  C24 UNL     1      24.555   1.878  51.778  1.00  0.00     0.161 A 
HETATM    9  F1  UNL     1      23.819   2.921  51.272  1.00  0.00    -0.202 F 
ENDROOT
BRANCH   7  10
HETATM   10  N1  UNL     1      22.709   1.228  53.045  1.00  0.00    -0.338 N 
HETATM   11  H5  UNL     1      23.028   1.631  53.975  1.00  0.00     0.167 HD
BRANCH  10  12
HETATM   12  C8  UNL     1      21.329   1.210  52.724  1.00  0.00     0.141 A 
HETATM   13  N2  UNL     1      20.803  -0.012  52.872  1.00  0.00    -0.224 NA
HETATM   14  C9  UNL     1      19.551  -0.348  52.652  1.00  0.00     0.236 A 
HETATM   15  N3  UNL     1      18.828   0.667  52.256  1.00  0.00    -0.241 NA
HETATM   16  C10 UNL     1      19.190   1.940  52.057  1.00  0.00     0.072 A 
HETATM   17  C11 UNL     1      20.513   2.232  52.302  1.00  0.00     0.037 A 
HETATM   18  C23 UNL     1      18.167   2.671  51.654  1.00  0.00     0.065 C 
HETATM   19  C12 UNL     1      21.190   3.359  52.168  1.00  0.00     0.017 C 
HETATM   20  C13 UNL     1      21.120   4.778  51.808  1.00  0.00     0.198 C 
HETATM   21  O1  UNL     1      21.651   4.959  50.571  1.00  0.00    -0.364 OA
HETATM   22  C14 UNL     1      21.729   6.207  50.036  1.00  0.00     0.214 C 
HETATM   23  C15 UNL     1      20.717   6.377  48.902  1.00  0.00     0.053 C 
HETATM   24  C16 UNL     1      20.863   5.280  47.892  1.00  0.00     0.004 C 
HETATM   25  C17 UNL     1      19.796   5.369  46.829  1.00  0.00     0.000 C 
HETATM   26  C18 UNL     1      18.417   5.415  47.457  1.00  0.00     0.002 C 
HETATM   27  C19 UNL     1      18.194   4.286  48.449  1.00  0.00     0.026 C 
HETATM   28  C20 UNL     1      16.836   4.409  49.050  1.00  0.00     0.171 C 
HETATM   29  O2  UNL     1      16.538   3.568  50.082  1.00  0.00    -0.358 OA
HETATM   30  C21 UNL     1      17.346   3.782  51.212  1.00  0.00     0.285 C 
BRANCH  22  31
HETATM   31  N4  UNL     1      23.048   6.619  49.710  1.00  0.00    -0.406 N 
HETATM   32  H11 UNL     1      23.175   7.117  48.811  1.00  0.00     0.152 HD
HETATM   33  H12 UNL     1      23.612   6.982  50.503  1.00  0.00     0.152 HD
ENDBRANCH  22  31
BRANCH  30  34
HETATM   34  O3  UNL     1      16.603   4.403  52.229  1.00  0.00    -0.363 OA
HETATM   35  C22 UNL     1      15.458   3.744  52.582  1.00  0.00     0.205 C 
ENDBRANCH  30  34
ENDBRANCH  10  12
ENDBRANCH   7  10
TORSDOF 4
ENDMDL
MODEL 9
REMARK VINA RESULT:      -7.9      5.878     10.753
REMARK  4 active torsions:
REMARK  status: ('A' for Active; 'I' for Inactive)
REMARK    1  A    between atoms: C7_7  and  N1_8 
REMARK    2  A    between atoms: N1_8  and  C8_9 
REMARK    3  A    between atoms: C14_18  and  N4_19 
REMARK    4  A    between atoms: C21_27  and  O3_28 
ROOT
HETATM    1  C1  UNL     1      13.665   0.308  50.091  1.00  0.00     0.018 C 
HETATM    2  C2  UNL     1      14.721   0.074  50.621  1.00  0.00    -0.075 C 
HETATM    3  C3  UNL     1      15.976  -0.196  51.273  1.00  0.00     0.057 A 
HETATM    4  C4  UNL     1      16.037  -0.704  52.541  1.00  0.00     0.024 A 
HETATM    5  C5  UNL     1      17.176  -0.992  53.235  1.00  0.00     0.004 A 
HETATM    6  C6  UNL     1      18.377  -0.754  52.617  1.00  0.00     0.033 A 
HETATM    7  C7  UNL     1      18.416  -0.236  51.322  1.00  0.00     0.074 A 
HETATM    8  C24 UNL     1      17.196   0.033  50.676  1.00  0.00     0.161 A 
HETATM    9  F1  UNL     1      17.104   0.543  49.404  1.00  0.00    -0.202 F 
ENDROOT
BRANCH   7  10
HETATM   10  N1  UNL     1      19.520   0.068  50.491  1.00  0.00    -0.338 N 
HETATM   11  H5  UNL     1      19.402  -0.859  49.987  1.00  0.00     0.167 HD
BRANCH  10  12
HETATM   12  C8  UNL     1      20.556   0.952  50.102  1.00  0.00     0.141 A 
HETATM   13  N2  UNL     1      20.423   1.340  48.828  1.00  0.00    -0.224 NA
HETATM   14  C9  UNL     1      21.224   2.156  48.180  1.00  0.00     0.236 A 
HETATM   15  N3  UNL     1      22.212   2.577  48.925  1.00  0.00    -0.241 NA
HETATM   16  C10 UNL     1      22.493   2.292  50.202  1.00  0.00     0.072 A 
HETATM   17  C11 UNL     1      21.620   1.432  50.830  1.00  0.00     0.037 A 
HETATM   18  C23 UNL     1      23.583   2.917  50.604  1.00  0.00     0.065 C 
HETATM   19  C12 UNL     1      21.631   0.925  52.049  1.00  0.00     0.017 C 
HETATM   20  C13 UNL     1      22.322   0.895  53.342  1.00  0.00     0.198 C 
HETATM   21  O1  UNL     1      23.025  -0.263  53.453  1.00  0.00    -0.364 OA
HETATM   22  C14 UNL     1      23.722  -0.533  54.589  1.00  0.00     0.214 C 
HETATM   23  C15 UNL     1      25.227  -0.417  54.344  1.00  0.00     0.053 C 
HETATM   24  C16 UNL     1      25.639  -1.254  53.172  1.00  0.00     0.004 C 
HETATM   25  C17 UNL     1      27.101  -1.059  52.847  1.00  0.00     0.000 C 
HETATM   26  C18 UNL     1      27.416   0.413  52.664  1.00  0.00     0.002 C 
HETATM   27  C19 UNL     1      26.478   1.088  51.677  1.00  0.00     0.026 C 
HETATM   28  C20 UNL     1      26.823   2.533  51.569  1.00  0.00     0.171 C 
HETATM   29  O2  UNL     1      25.974   3.319  50.847  1.00  0.00    -0.358 OA
HETATM   30  C21 UNL     1      24.688   3.397  51.412  1.00  0.00     0.285 C 
BRANCH  22  31
HETATM   31  N4  UNL     1      23.326  -1.729  55.244  1.00  0.00    -0.406 N 
HETATM   32  H11 UNL     1      22.694  -1.629  56.058  1.00  0.00     0.152 HD
HETATM   33  H12 UNL     1      23.125  -2.535  54.621  1.00  0.00     0.152 HD
ENDBRANCH  22  31
BRANCH  30  34
HETATM   34  O3  UNL     1      24.489   4.662  51.988  1.00  0.00    -0.363 OA
HETATM   35  C22 UNL     1      23.335   4.785  52.712  1.00  0.00     0.205 C 
ENDBRANCH  30  34
ENDBRANCH  10  12
ENDBRANCH   7  10
TORSDOF 4
ENDMDL
