MODEL 1
REMARK VINA RESULT:      -7.8      0.000      0.000
REMARK  6 active torsions:
REMARK  status: ('A' for Active; 'I' for Inactive)
REMARK    1  A    between atoms: O1_2  and  C2_3 
REMARK    2  A    between atoms: C5_6  and  C6_7 
REMARK    3  A    between atoms: C6_7  and  N1_8 
REMARK    4  A    between atoms: C7_9  and  O2_10 
REMARK    5  A    between atoms: O2_10  and  C8_11 
REMARK    6  A    between atoms: C9_13  and  N3_14 
ROOT
HETATM    1  C8  UNL     1      25.249   2.437  51.837  1.00  0.00     0.251 A 
HETATM    2  N2  UNL     1      24.759   1.261  51.786  1.00  0.00    -0.203 NA
HETATM    3  C9  UNL     1      25.032   0.234  52.741  1.00  0.00     0.342 A 
HETATM    4  N4  UNL     1      25.928   0.613  53.809  1.00  0.00    -0.237 NA
HETATM    5  C15 UNL     1      26.405   1.805  53.834  1.00  0.00     0.208 A 
HETATM    6  N5  UNL     1      26.126   2.819  52.878  1.00  0.00    -0.315 N 
HETATM    7  H17 UNL     1      26.503   3.788  52.883  1.00  0.00     0.170 HD
ENDROOT
BRANCH   1   8
HETATM    8  O2  UNL     1      24.824   3.222  50.800  1.00  0.00    -0.278 OA
BRANCH   8   9
HETATM    9  C7  UNL     1      25.603   4.143  50.115  1.00  0.00     0.090 A 
HETATM   10  C5  UNL     1      25.035   5.419  50.143  1.00  0.00     0.004 A 
HETATM   11  C4  UNL     1      25.705   6.461  49.494  1.00  0.00     0.014 A 
HETATM   12  C3  UNL     1      26.883   6.307  48.832  1.00  0.00     0.037 A 
HETATM   13  C2  UNL     1      27.414   5.034  48.826  1.00  0.00     0.070 A 
HETATM   14  C16 UNL     1      26.796   3.993  49.443  1.00  0.00     0.074 A 
BRANCH  10  15
HETATM   15  C6  UNL     1      23.746   5.752  50.826  1.00  0.00     0.308 C 
BRANCH  15  16
HETATM   16  N1  UNL     1      23.920   5.857  52.241  1.00  0.00     0.082 N 
HETATM   17  H8  UNL     1      23.392   5.119  52.735  1.00  0.00     0.313 HD
HETATM   18  H9  UNL     1      24.904   5.986  52.541  1.00  0.00     0.313 HD
ENDBRANCH  15  16
ENDBRANCH  10  15
BRANCH  13  19
HETATM   19  O1  UNL     1      28.607   4.698  48.201  1.00  0.00    -0.356 OA
HETATM   20  C1  UNL     1      29.679   5.610  48.086  1.00  0.00     0.210 C 
ENDBRANCH  13  19
ENDBRANCH   8   9
ENDBRANCH   1   8
BRANCH   3  21
HETATM   21  N3  UNL     1      23.807  -0.221  53.416  1.00  0.00    -0.345 N 
HETATM   22  C10 UNL     1      22.590   0.107  52.761  1.00  0.00     0.108 A 
HETATM   23  C11 UNL     1      21.443  -0.262  53.299  1.00  0.00     0.026 A 
HETATM   24 BR1  UNL     1      19.783   0.147  52.470  1.00  0.00    -0.050 Br
HETATM   25  C12 UNL     1      21.393  -1.002  54.554  1.00  0.00     0.018 A 
HETATM   26  C13 UNL     1      22.538  -1.309  55.169  1.00  0.00    -0.006 A 
HETATM   27  C14 UNL     1      23.879  -0.961  54.684  1.00  0.00     0.153 A 
ENDBRANCH   3  21
TORSDOF 6
ENDMDL
MODEL 2
REMARK VINA RESULT:      -7.4      3.222      7.940
REMARK  6 active torsions:
REMARK  status: ('A' for Active; 'I' for Inactive)
REMARK    1  A    between atoms: O1_2  and  C2_3 
REMARK    2  A    between atoms: C5_6  and  C6_7 
REMARK    3  A    between atoms: C6_7  and  N1_8 
REMARK    4  A    between atoms: C7_9  and  O2_10 
REMARK    5  A    between atoms: O2_10  and  C8_11 
REMARK    6  A    between atoms: C9_13  and  N3_14 
ROOT
HETATM    1  C8  UNL     1      25.392   3.125  51.144  1.00  0.00     0.251 A 
HETATM    2  N2  UNL     1      25.648   3.406  49.927  1.00  0.00    -0.203 NA
HETATM    3  C9  UNL     1      25.159   4.564  49.249  1.00  0.00     0.342 A 
HETATM    4  N4  UNL     1      24.326   5.434  50.046  1.00  0.00    -0.237 NA
HETATM    5  C15 UNL     1      24.085   5.125  51.269  1.00  0.00     0.208 A 
HETATM    6  N5  UNL     1      24.578   3.970  51.934  1.00  0.00    -0.315 N 
HETATM    7  H17 UNL     1      24.394   3.704  52.922  1.00  0.00     0.170 HD
ENDROOT
BRANCH   1   8
HETATM    8  O2  UNL     1      25.987   1.959  51.544  1.00  0.00    -0.278 OA
BRANCH   8   9
HETATM    9  C7  UNL     1      25.470   1.070  52.475  1.00  0.00     0.090 A 
HETATM   10  C5  UNL     1      26.417   0.731  53.445  1.00  0.00     0.004 A 
HETATM   11  C4  UNL     1      26.047  -0.160  54.456  1.00  0.00     0.014 A 
HETATM   12  C3  UNL     1      24.812  -0.721  54.556  1.00  0.00     0.037 A 
HETATM   13  C2  UNL     1      23.903  -0.363  53.582  1.00  0.00     0.070 A 
HETATM   14  C16 UNL     1      24.221   0.498  52.580  1.00  0.00     0.074 A 
BRANCH  10  15
HETATM   15  C6  UNL     1      27.817   1.262  53.475  1.00  0.00     0.308 C 
BRANCH  15  16
HETATM   16  N1  UNL     1      27.850   2.613  53.941  1.00  0.00     0.082 N 
HETATM   17  H8  UNL     1      28.801   2.874  54.251  1.00  0.00     0.313 HD
HETATM   18  H9  UNL     1      27.376   3.291  53.316  1.00  0.00     0.313 HD
ENDBRANCH  15  16
ENDBRANCH  10  15
BRANCH  13  19
HETATM   19  O1  UNL     1      22.600  -0.839  53.529  1.00  0.00    -0.356 OA
HETATM   20  C1  UNL     1      21.875  -1.178  54.694  1.00  0.00     0.210 C 
ENDBRANCH  13  19
ENDBRANCH   8   9
ENDBRANCH   1   8
BRANCH   3  21
HETATM   21  N3  UNL     1      26.257   5.421  48.774  1.00  0.00    -0.345 N 
HETATM   22  C10 UNL     1      25.894   6.755  48.448  1.00  0.00     0.108 A 
HETATM   23  C11 UNL     1      26.818   7.591  48.012  1.00  0.00     0.026 A 
HETATM   24 BR1  UNL     1      26.394   9.387  47.560  1.00  0.00    -0.050 Br
HETATM   25  C12 UNL     1      28.207   7.178  47.857  1.00  0.00     0.018 A 
HETATM   26  C13 UNL     1      28.547   5.923  48.164  1.00  0.00    -0.006 A 
HETATM   27  C14 UNL     1      27.624   4.893  48.657  1.00  0.00     0.153 A 
ENDBRANCH   3  21
TORSDOF 6
ENDMDL
MODEL 3
REMARK VINA RESULT:      -7.3      3.272      7.061
REMARK  6 active torsions:
REMARK  status: ('A' for Active; 'I' for Inactive)
REMARK    1  A    between atoms: O1_2  and  C2_3 
REMARK    2  A    between atoms: C5_6  and  C6_7 
REMARK    3  A    between atoms: C6_7  and  N1_8 
REMARK    4  A    between atoms: C7_9  and  O2_10 
REMARK    5  A    between atoms: O2_10  and  C8_11 
REMARK    6  A    between atoms: C9_13  and  N3_14 
ROOT
HETATM    1  C8  UNL     1      23.606   2.624  51.475  1.00  0.00     0.251 A 
HETATM    2  N2  UNL     1      23.975   2.869  50.279  1.00  0.00    -0.203 NA
HETATM    3  C9  UNL     1      23.831   4.137  49.638  1.00  0.00     0.342 A 
HETATM    4  N4  UNL     1      23.222   5.167  50.446  1.00  0.00    -0.237 NA
HETATM    5  C15 UNL     1      22.862   4.891  51.647  1.00  0.00     0.208 A 
HETATM    6  N5  UNL     1      23.010   3.625  52.276  1.00  0.00    -0.315 N 
HETATM    7  H17 UNL     1      22.724   3.384  53.246  1.00  0.00     0.170 HD
ENDROOT
BRANCH   1   8
HETATM    8  O2  UNL     1      23.860   1.330  51.841  1.00  0.00    -0.278 OA
BRANCH   8   9
HETATM    9  C7  UNL     1      24.731   0.934  52.845  1.00  0.00     0.090 A 
HETATM   10  C5  UNL     1      24.233  -0.159  53.558  1.00  0.00     0.004 A 
HETATM   11  C4  UNL     1      25.000  -0.676  54.607  1.00  0.00     0.014 A 
HETATM   12  C3  UNL     1      26.209  -0.177  54.979  1.00  0.00     0.037 A 
HETATM   13  C2  UNL     1      26.669   0.902  54.253  1.00  0.00     0.070 A 
HETATM   14  C16 UNL     1      25.956   1.437  53.226  1.00  0.00     0.074 A 
BRANCH  10  15
HETATM   15  C6  UNL     1      22.922  -0.822  53.274  1.00  0.00     0.308 C 
BRANCH  15  16
HETATM   16  N1  UNL     1      21.826  -0.010  53.703  1.00  0.00     0.082 N 
HETATM   17  H8  UNL     1      21.022  -0.593  53.986  1.00  0.00     0.313 HD
HETATM   18  H9  UNL     1      22.089   0.747  54.360  1.00  0.00     0.313 HD
ENDBRANCH  15  16
ENDBRANCH  10  15
BRANCH  13  19
HETATM   19  O1  UNL     1      27.880   1.536  54.494  1.00  0.00    -0.356 OA
HETATM   20  C1  UNL     1      28.504   2.357  53.529  1.00  0.00     0.210 C 
ENDBRANCH  13  19
ENDBRANCH   8   9
ENDBRANCH   1   8
BRANCH   3  21
HETATM   21  N3  UNL     1      25.132   4.692  49.232  1.00  0.00    -0.345 N 
HETATM   22  C10 UNL     1      25.101   6.022  48.732  1.00  0.00     0.108 A 
HETATM   23  C11 UNL     1      26.224   6.596  48.345  1.00  0.00     0.026 A 
HETATM   24 BR1  UNL     1      26.246   8.371  47.669  1.00  0.00    -0.050 Br
HETATM   25  C12 UNL     1      27.501   5.898  48.416  1.00  0.00     0.018 A 
HETATM   26  C13 UNL     1      27.529   4.648  48.885  1.00  0.00    -0.006 A 
HETATM   27  C14 UNL     1      26.359   3.891  49.349  1.00  0.00     0.153 A 
ENDBRANCH   3  21
TORSDOF 6
ENDMDL
MODEL 4
REMARK VINA RESULT:      -7.2      1.835      3.211
REMARK  6 active torsions:
REMARK  status: ('A' for Active; 'I' for Inactive)
REMARK    1  A    between atoms: O1_2  and  C2_3 
REMARK    2  A    between atoms: C5_6  and  C6_7 
REMARK    3  A    between atoms: C6_7  and  N1_8 
REMARK    4  A    between atoms: C7_9  and  O2_10 
REMARK    5  A    between atoms: O2_10  and  C8_11 
REMARK    6  A    between atoms: C9_13  and  N3_14 
ROOT
HETATM    1  C8  UNL     1      26.757   1.825  51.824  1.00  0.00     0.251 A 
HETATM    2  N2  UNL     1      26.185   0.691  51.936  1.00  0.00    -0.203 NA
HETATM    3  C9  UNL     1      26.232  -0.121  53.110  1.00  0.00     0.342 A 
HETATM    4  N4  UNL     1      26.991   0.432  54.208  1.00  0.00    -0.237 NA
HETATM    5  C15 UNL     1      27.555   1.577  54.067  1.00  0.00     0.208 A 
HETATM    6  N5  UNL     1      27.501   2.377  52.893  1.00  0.00    -0.315 N 
HETATM    7  H17 UNL     1      27.951   3.305  52.760  1.00  0.00     0.170 HD
ENDROOT
BRANCH   1   8
HETATM    8  O2  UNL     1      26.552   2.391  50.595  1.00  0.00    -0.278 OA
BRANCH   8   9
HETATM    9  C7  UNL     1      25.475   3.192  50.247  1.00  0.00     0.090 A 
HETATM   10  C5  UNL     1      25.865   4.251  49.424  1.00  0.00     0.004 A 
HETATM   11  C4  UNL     1      24.888   5.151  48.988  1.00  0.00     0.014 A 
HETATM   12  C3  UNL     1      23.571   5.057  49.317  1.00  0.00     0.037 A 
HETATM   13  C2  UNL     1      23.223   3.999  50.129  1.00  0.00     0.070 A 
HETATM   14  C16 UNL     1      24.140   3.102  50.578  1.00  0.00     0.074 A 
BRANCH  10  15
HETATM   15  C6  UNL     1      27.272   4.493  48.974  1.00  0.00     0.308 C 
BRANCH  15  16
HETATM   16  N1  UNL     1      27.625   5.873  49.093  1.00  0.00     0.082 N 
HETATM   17  H8  UNL     1      27.176   6.435  48.350  1.00  0.00     0.313 HD
HETATM   18  H9  UNL     1      27.547   6.252  50.055  1.00  0.00     0.313 HD
ENDBRANCH  15  16
ENDBRANCH  10  15
BRANCH  13  19
HETATM   19  O1  UNL     1      21.927   3.751  50.562  1.00  0.00    -0.356 OA
HETATM   20  C1  UNL     1      21.240   4.635  51.424  1.00  0.00     0.210 C 
ENDBRANCH  13  19
ENDBRANCH   8   9
ENDBRANCH   1   8
BRANCH   3  21
HETATM   21  N3  UNL     1      24.889  -0.361  53.660  1.00  0.00    -0.345 N 
HETATM   22  C10 UNL     1      23.810   0.127  52.873  1.00  0.00     0.108 A 
HETATM   23  C11 UNL     1      22.571  -0.045  53.294  1.00  0.00     0.026 A 
HETATM   24 BR1  UNL     1      21.088   0.584  52.286  1.00  0.00    -0.050 Br
HETATM   25  C12 UNL     1      22.279  -0.726  54.550  1.00  0.00     0.018 A 
HETATM   26  C13 UNL     1      23.294  -1.182  55.288  1.00  0.00    -0.006 A 
HETATM   27  C14 UNL     1      24.716  -1.060  54.942  1.00  0.00     0.153 A 
ENDBRANCH   3  21
TORSDOF 6
ENDMDL
MODEL 5
REMARK VINA RESULT:      -7.2      3.311      7.656
REMARK  6 active torsions:
REMARK  status: ('A' for Active; 'I' for Inactive)
REMARK    1  A    between atoms: O1_2  and  C2_3 
REMARK    2  A    between atoms: C5_6  and  C6_7 
REMARK    3  A    between atoms: C6_7  and  N1_8 
REMARK    4  A    between atoms: C7_9  and  O2_10 
REMARK    5  A    between atoms: O2_10  and  C8_11 
REMARK    6  A    between atoms: C9_13  and  N3_14 
ROOT
HETATM    1  C8  UNL     1      23.855   4.448  51.911  1.00  0.00     0.251 A 
HETATM    2  N2  UNL     1      24.413   4.084  50.824  1.00  0.00    -0.203 NA
HETATM    3  C9  UNL     1      24.290   4.781  49.584  1.00  0.00     0.342 A 
HETATM    4  N4  UNL     1      23.467   5.968  49.627  1.00  0.00    -0.237 NA
HETATM    5  C15 UNL     1      22.919   6.311  50.736  1.00  0.00     0.208 A 
HETATM    6  N5  UNL     1      23.048   5.608  51.965  1.00  0.00    -0.315 N 
HETATM    7  H17 UNL     1      22.612   5.871  52.872  1.00  0.00     0.170 HD
ENDROOT
BRANCH   1   8
HETATM    8  O2  UNL     1      24.138   3.602  52.949  1.00  0.00    -0.278 OA
BRANCH   8   9
HETATM    9  C7  UNL     1      23.827   2.251  52.994  1.00  0.00     0.090 A 
HETATM   10  C5  UNL     1      24.949   1.474  53.292  1.00  0.00     0.004 A 
HETATM   11  C4  UNL     1      24.796   0.086  53.373  1.00  0.00     0.014 A 
HETATM   12  C3  UNL     1      23.613  -0.558  53.179  1.00  0.00     0.037 A 
HETATM   13  C2  UNL     1      22.528   0.242  52.887  1.00  0.00     0.070 A 
HETATM   14  C16 UNL     1      22.632   1.594  52.798  1.00  0.00     0.074 A 
BRANCH  10  15
HETATM   15  C6  UNL     1      26.318   2.029  53.532  1.00  0.00     0.308 C 
BRANCH  15  16
HETATM   16  N1  UNL     1      26.889   2.540  52.325  1.00  0.00     0.082 N 
HETATM   17  H8  UNL     1      27.861   2.854  52.480  1.00  0.00     0.313 HD
HETATM   18  H9  UNL     1      26.735   1.941  51.493  1.00  0.00     0.313 HD
ENDBRANCH  15  16
ENDBRANCH  10  15
BRANCH  13  19
HETATM   19  O1  UNL     1      21.248  -0.246  52.661  1.00  0.00    -0.356 OA
HETATM   20  C1  UNL     1      20.389   0.319  51.692  1.00  0.00     0.210 C 
ENDBRANCH  13  19
ENDBRANCH   8   9
ENDBRANCH   1   8
BRANCH   3  21
HETATM   21  N3  UNL     1      25.595   5.242  49.087  1.00  0.00    -0.345 N 
HETATM   22  C10 UNL     1      25.615   6.556  48.545  1.00  0.00     0.108 A 
HETATM   23  C11 UNL     1      26.746   7.047  48.076  1.00  0.00     0.026 A 
HETATM   24 BR1  UNL     1      26.835   8.797  47.340  1.00  0.00    -0.050 Br
HETATM   25  C12 UNL     1      27.981   6.274  48.099  1.00  0.00     0.018 A 
HETATM   26  C13 UNL     1      27.961   5.040  48.607  1.00  0.00    -0.006 A 
HETATM   27  C14 UNL     1      26.777   4.371  49.161  1.00  0.00     0.153 A 
ENDBRANCH   3  21
TORSDOF 6
ENDMDL
MODEL 6
REMARK VINA RESULT:      -7.0      5.828      9.242
REMARK  6 active torsions:
REMARK  status: ('A' for Active; 'I' for Inactive)
REMARK    1  A    between atoms: O1_2  and  C2_3 
REMARK    2  A    between atoms: C5_6  and  C6_7 
REMARK    3  A    between atoms: C6_7  and  N1_8 
REMARK    4  A    between atoms: C7_9  and  O2_10 
REMARK    5  A    between atoms: O2_10  and  C8_11 
REMARK    6  A    between atoms: C9_13  and  N3_14 
ROOT
HETATM    1  C8  UNL     1      30.068   7.148  48.052  1.00  0.00     0.251 A 
HETATM    2  N2  UNL     1      31.046   6.800  47.312  1.00  0.00    -0.203 NA
HETATM    3  C9  UNL     1      32.419   7.009  47.644  1.00  0.00     0.342 A 
HETATM    4  N4  UNL     1      32.651   7.659  48.912  1.00  0.00    -0.237 NA
HETATM    5  C15 UNL     1      31.646   7.997  49.637  1.00  0.00     0.208 A 
HETATM    6  N5  UNL     1      30.283   7.784  49.296  1.00  0.00    -0.315 N 
HETATM    7  H17 UNL     1      29.457   8.050  49.870  1.00  0.00     0.170 HD
ENDROOT
BRANCH   1   8
HETATM    8  O2  UNL     1      28.858   6.829  47.497  1.00  0.00    -0.278 OA
BRANCH   8   9
HETATM    9  C7  UNL     1      27.848   6.114  48.123  1.00  0.00     0.090 A 
HETATM   10  C5  UNL     1      26.658   6.843  48.178  1.00  0.00     0.004 A 
HETATM   11  C4  UNL     1      25.543   6.254  48.783  1.00  0.00     0.014 A 
HETATM   12  C3  UNL     1      25.546   5.006  49.324  1.00  0.00     0.037 A 
HETATM   13  C2  UNL     1      26.738   4.316  49.251  1.00  0.00     0.070 A 
HETATM   14  C16 UNL     1      27.846   4.850  48.673  1.00  0.00     0.074 A 
BRANCH  10  15
HETATM   15  C6  UNL     1      26.492   8.226  47.630  1.00  0.00     0.308 C 
BRANCH  15  16
HETATM   16  N1  UNL     1      25.693   8.222  46.445  1.00  0.00     0.082 N 
HETATM   17  H8  UNL     1      24.847   8.803  46.567  1.00  0.00     0.313 HD
HETATM   18  H9  UNL     1      26.227   8.379  45.570  1.00  0.00     0.313 HD
ENDBRANCH  15  16
ENDBRANCH  10  15
BRANCH  13  19
HETATM   19  O1  UNL     1      26.920   3.034  49.750  1.00  0.00    -0.356 OA
HETATM   20  C1  UNL     1      26.361   2.620  50.980  1.00  0.00     0.210 C 
ENDBRANCH  13  19
ENDBRANCH   8   9
ENDBRANCH   1   8
BRANCH   3  21
HETATM   21  N3  UNL     1      33.158   5.739  47.728  1.00  0.00    -0.345 N 
HETATM   22  C10 UNL     1      32.456   4.592  47.269  1.00  0.00     0.108 A 
HETATM   23  C11 UNL     1      33.046   3.412  47.310  1.00  0.00     0.026 A 
HETATM   24 BR1  UNL     1      32.159   1.842  46.711  1.00  0.00    -0.050 Br
HETATM   25  C12 UNL     1      34.403   3.254  47.816  1.00  0.00     0.018 A 
HETATM   26  C13 UNL     1      35.061   4.334  48.247  1.00  0.00    -0.006 A 
HETATM   27  C14 UNL     1      34.529   5.702  48.259  1.00  0.00     0.153 A 
ENDBRANCH   3  21
TORSDOF 6
ENDMDL
MODEL 7
REMARK VINA RESULT:      -6.9      3.565      7.553
REMARK  6 active torsions:
REMARK  status: ('A' for Active; 'I' for Inactive)
REMARK    1  A    between atoms: O1_2  and  C2_3 
REMARK    2  A    between atoms: C5_6  and  C6_7 
REMARK    3  A    between atoms: C6_7  and  N1_8 
REMARK    4  A    between atoms: C7_9  and  O2_10 
REMARK    5  A    between atoms: O2_10  and  C8_11 
REMARK    6  A    between atoms: C9_13  and  N3_14 
ROOT
HETATM    1  C8  UNL     1      24.552   4.168  50.794  1.00  0.00     0.251 A 
HETATM    2  N2  UNL     1      24.979   4.431  49.622  1.00  0.00    -0.203 NA
HETATM    3  C9  UNL     1      25.157   5.752  49.109  1.00  0.00     0.342 A 
HETATM    4  N4  UNL     1      24.814   6.816  50.024  1.00  0.00    -0.237 NA
HETATM    5  C15 UNL     1      24.387   6.521  51.198  1.00  0.00     0.208 A 
HETATM    6  N5  UNL     1      24.214   5.201  51.698  1.00  0.00    -0.315 N 
HETATM    7  H17 UNL     1      23.870   4.944  52.645  1.00  0.00     0.170 HD
ENDROOT
BRANCH   1   8
HETATM    8  O2  UNL     1      24.477   2.822  51.029  1.00  0.00    -0.278 OA
BRANCH   8   9
HETATM    9  C7  UNL     1      25.106   2.150  52.067  1.00  0.00     0.090 A 
HETATM   10  C5  UNL     1      24.303   1.129  52.582  1.00  0.00     0.004 A 
HETATM   11  C4  UNL     1      24.800   0.357  53.637  1.00  0.00     0.014 A 
HETATM   12  C3  UNL     1      26.026   0.541  54.197  1.00  0.00     0.037 A 
HETATM   13  C2  UNL     1      26.790   1.557  53.663  1.00  0.00     0.070 A 
HETATM   14  C16 UNL     1      26.347   2.331  52.638  1.00  0.00     0.074 A 
BRANCH  10  15
HETATM   15  C6  UNL     1      22.932   0.801  52.077  1.00  0.00     0.308 C 
BRANCH  15  16
HETATM   16  N1  UNL     1      21.996   1.828  52.414  1.00  0.00     0.082 N 
HETATM   17  H8  UNL     1      22.318   2.367  53.235  1.00  0.00     0.313 HD
HETATM   18  H9  UNL     1      21.669   2.389  51.605  1.00  0.00     0.313 HD
ENDBRANCH  15  16
ENDBRANCH  10  15
BRANCH  13  19
HETATM   19  O1  UNL     1      28.063   1.883  54.111  1.00  0.00    -0.356 OA
HETATM   20  C1  UNL     1      29.087   0.916  54.236  1.00  0.00     0.210 C 
ENDBRANCH  13  19
ENDBRANCH   8   9
ENDBRANCH   1   8
BRANCH   3  21
HETATM   21  N3  UNL     1      26.557   6.007  48.738  1.00  0.00    -0.345 N 
HETATM   22  C10 UNL     1      26.883   7.365  48.474  1.00  0.00     0.108 A 
HETATM   23  C11 UNL     1      28.118   7.681  48.133  1.00  0.00     0.026 A 
HETATM   24 BR1  UNL     1      28.613   9.479  47.769  1.00  0.00    -0.050 Br
HETATM   25  C12 UNL     1      29.161   6.670  48.019  1.00  0.00     0.018 A 
HETATM   26  C13 UNL     1      28.853   5.394  48.267  1.00  0.00    -0.006 A 
HETATM   27  C14 UNL     1      27.525   4.903  48.654  1.00  0.00     0.153 A 
ENDBRANCH   3  21
TORSDOF 6
ENDMDL
MODEL 8
REMARK VINA RESULT:      -6.8      5.205      9.116
REMARK  6 active torsions:
REMARK  status: ('A' for Active; 'I' for Inactive)
REMARK    1  A    between atoms: O1_2  and  C2_3 
REMARK    2  A    between atoms: C5_6  and  C6_7 
REMARK    3  A    between atoms: C6_7  and  N1_8 
REMARK    4  A    between atoms: C7_9  and  O2_10 
REMARK    5  A    between atoms: O2_10  and  C8_11 
REMARK    6  A    between atoms: C9_13  and  N3_14 
ROOT
HETATM    1  C8  UNL     1      29.871   5.786  48.504  1.00  0.00     0.251 A 
HETATM    2  N2  UNL     1      30.431   5.453  47.408  1.00  0.00    -0.203 NA
HETATM    3  C9  UNL     1      31.699   5.944  46.972  1.00  0.00     0.342 A 
HETATM    4  N4  UNL     1      32.339   6.873  47.873  1.00  0.00    -0.237 NA
HETATM    5  C15 UNL     1      31.752   7.189  48.970  1.00  0.00     0.208 A 
HETATM    6  N5  UNL     1      30.489   6.694  49.394  1.00  0.00    -0.315 N 
HETATM    7  H17 UNL     1      29.999   6.938  50.278  1.00  0.00     0.170 HD
ENDROOT
BRANCH   1   8
HETATM    8  O2  UNL     1      28.662   5.169  48.677  1.00  0.00    -0.278 OA
BRANCH   8   9
HETATM    9  C7  UNL     1      27.422   5.779  48.553  1.00  0.00     0.090 A 
HETATM   10  C5  UNL     1      26.389   4.937  48.972  1.00  0.00     0.004 A 
HETATM   11  C4  UNL     1      25.075   5.410  48.907  1.00  0.00     0.014 A 
HETATM   12  C3  UNL     1      24.738   6.649  48.457  1.00  0.00     0.037 A 
HETATM   13  C2  UNL     1      25.783   7.452  48.053  1.00  0.00     0.070 A 
HETATM   14  C16 UNL     1      27.075   7.032  48.098  1.00  0.00     0.074 A 
BRANCH  10  15
HETATM   15  C6  UNL     1      26.594   3.547  49.490  1.00  0.00     0.308 C 
BRANCH  15  16
HETATM   16  N1  UNL     1      26.768   3.544  50.909  1.00  0.00     0.082 N 
HETATM   17  H8  UNL     1      26.657   4.495  51.298  1.00  0.00     0.313 HD
HETATM   18  H9  UNL     1      26.249   2.792  51.400  1.00  0.00     0.313 HD
ENDBRANCH  15  16
ENDBRANCH  10  15
BRANCH  13  19
HETATM   19  O1  UNL     1      25.622   8.743  47.568  1.00  0.00    -0.356 OA
HETATM   20  C1  UNL     1      24.398   9.441  47.679  1.00  0.00     0.210 C 
ENDBRANCH  13  19
ENDBRANCH   8   9
ENDBRANCH   1   8
BRANCH   3  21
HETATM   21  N3  UNL     1      32.672   4.855  46.795  1.00  0.00    -0.345 N 
HETATM   22  C10 UNL     1      32.143   3.540  46.891  1.00  0.00     0.108 A 
HETATM   23  C11 UNL     1      32.948   2.504  46.745  1.00  0.00     0.026 A 
HETATM   24 BR1  UNL     1      32.299   0.722  46.863  1.00  0.00    -0.050 Br
HETATM   25  C12 UNL     1      34.372   2.675  46.487  1.00  0.00     0.018 A 
HETATM   26  C13 UNL     1      34.868   3.912  46.398  1.00  0.00    -0.006 A 
HETATM   27  C14 UNL     1      34.090   5.149  46.539  1.00  0.00     0.153 A 
ENDBRANCH   3  21
TORSDOF 6
ENDMDL
MODEL 9
REMARK VINA RESULT:      -6.6      7.014      9.873
REMARK  6 active torsions:
REMARK  status: ('A' for Active; 'I' for Inactive)
REMARK    1  A    between atoms: O1_2  and  C2_3 
REMARK    2  A    between atoms: C5_6  and  C6_7 
REMARK    3  A    between atoms: C6_7  and  N1_8 
REMARK    4  A    between atoms: C7_9  and  O2_10 
REMARK    5  A    between atoms: O2_10  and  C8_11 
REMARK    6  A    between atoms: C9_13  and  N3_14 
ROOT
HETATM    1  C8  UNL     1      32.386   7.998  47.161  1.00  0.00     0.251 A 
HETATM    2  N2  UNL     1      31.688   7.665  48.175  1.00  0.00    -0.203 NA
HETATM    3  C9  UNL     1      30.450   8.279  48.536  1.00  0.00     0.342 A 
HETATM    4  N4  UNL     1      30.013   9.338  47.657  1.00  0.00    -0.237 NA
HETATM    5  C15 UNL     1      30.736   9.651  46.643  1.00  0.00     0.208 A 
HETATM    6  N5  UNL     1      31.967   9.033  46.294  1.00  0.00    -0.315 N 
HETATM    7  H17 UNL     1      32.565   9.273  45.478  1.00  0.00     0.170 HD
ENDROOT
BRANCH   1   8
HETATM    8  O2  UNL     1      33.525   7.249  47.047  1.00  0.00    -0.278 OA
BRANCH   8   9
HETATM    9  C7  UNL     1      33.603   5.873  47.203  1.00  0.00     0.090 A 
HETATM   10  C5  UNL     1      34.675   5.507  48.021  1.00  0.00     0.004 A 
HETATM   11  C4  UNL     1      34.887   4.148  48.275  1.00  0.00     0.014 A 
HETATM   12  C3  UNL     1      34.108   3.154  47.770  1.00  0.00     0.037 A 
HETATM   13  C2  UNL     1      33.060   3.553  46.968  1.00  0.00     0.070 A 
HETATM   14  C16 UNL     1      32.818   4.862  46.695  1.00  0.00     0.074 A 
BRANCH  10  15
HETATM   15  C6  UNL     1      35.623   6.479  48.651  1.00  0.00     0.308 C 
BRANCH  15  16
HETATM   16  N1  UNL     1      36.334   5.881  49.738  1.00  0.00     0.082 N 
HETATM   17  H8  UNL     1      35.717   5.258  50.285  1.00  0.00     0.313 HD
HETATM   18  H9  UNL     1      37.258   5.489  49.479  1.00  0.00     0.313 HD
ENDBRANCH  15  16
ENDBRANCH  10  15
BRANCH  13  19
HETATM   19  O1  UNL     1      32.166   2.673  46.371  1.00  0.00    -0.356 OA
HETATM   20  C1  UNL     1      32.125   1.301  46.705  1.00  0.00     0.210 C 
ENDBRANCH  13  19
ENDBRANCH   8   9
ENDBRANCH   1   8
BRANCH   3  21
HETATM   21  N3  UNL     1      29.343   7.310  48.542  1.00  0.00    -0.345 N 
HETATM   22  C10 UNL     1      28.047   7.862  48.725  1.00  0.00     0.108 A 
HETATM   23  C11 UNL     1      26.998   7.062  48.744  1.00  0.00     0.026 A 
HETATM   24 BR1  UNL     1      25.240   7.742  48.986  1.00  0.00    -0.050 Br
HETATM   25  C12 UNL     1      27.135   5.620  48.581  1.00  0.00     0.018 A 
HETATM   26  C13 UNL     1      28.354   5.103  48.410  1.00  0.00    -0.006 A 
HETATM   27  C14 UNL     1      29.603   5.873  48.368  1.00  0.00     0.153 A 
ENDBRANCH   3  21
TORSDOF 6
ENDMDL
