MODEL 1
REMARK VINA RESULT:      -7.9      0.000      0.000
REMARK  8 active torsions:
REMARK  status: ('A' for Active; 'I' for Inactive)
REMARK    1  A    between atoms: C4_4  and  C5_5 
REMARK    2  A    between atoms: C6_6  and  C7_7 
REMARK    3  A    between atoms: C7_7  and  N1_9 
REMARK    4  A    between atoms: N1_9  and  C9_10 
REMARK    5  A    between atoms: C14_17  and  C15_18 
REMARK    6  A    between atoms: C17_20  and  C18_21 
REMARK    7  A    between atoms: C19_22  and  C20_23 
REMARK    8  A    between atoms: C20_23  and  O1_24 
ROOT
HETATM    1  C1  UNL     1      28.864   5.547  48.128  1.00  0.00     0.017 C 
HETATM    2  C2  UNL     1      27.775   5.213  48.576  1.00  0.00    -0.089 C 
HETATM    3  C3  UNL     1      26.511   4.814  49.121  1.00  0.00     0.063 C 
HETATM    4  C4  UNL     1      26.379   3.608  49.644  1.00  0.00     0.009 C 
ENDROOT
BRANCH   4   5
HETATM    5  C5  UNL     1      25.083   3.227  50.192  1.00  0.00    -0.001 C 
HETATM    6  C6  UNL     1      24.005   3.328  49.408  1.00  0.00    -0.002 C 
BRANCH   6   7
HETATM    7  C7  UNL     1      22.568   3.059  49.567  1.00  0.00     0.102 C 
HETATM    8  C8  UNL     1      22.196   1.763  48.897  1.00  0.00     0.036 C 
BRANCH   7   9
HETATM    9  N1  UNL     1      22.156   3.083  50.979  1.00  0.00    -0.367 N 
HETATM   10  H10 UNL     1      22.683   3.745  51.553  1.00  0.00     0.161 HD
BRANCH   9  11
HETATM   11  C9  UNL     1      21.112   2.239  51.446  1.00  0.00     0.137 A 
HETATM   12  N2  UNL     1      19.856   2.501  51.059  1.00  0.00    -0.224 NA
HETATM   13  C10 UNL     1      18.816   1.747  51.441  1.00  0.00     0.235 A 
HETATM   14  N3  UNL     1      18.948   0.655  52.252  1.00  0.00    -0.244 NA
HETATM   15  C11 UNL     1      20.201   0.374  52.653  1.00  0.00     0.067 A 
HETATM   16  C12 UNL     1      21.269   1.146  52.264  1.00  0.00     0.038 A 
HETATM   17  C22 UNL     1      20.353  -0.798  53.524  1.00  0.00     0.180 A 
HETATM   18  C13 UNL     1      22.611   0.835  52.710  1.00  0.00     0.047 A 
HETATM   19  C14 UNL     1      22.915  -0.194  53.510  1.00  0.00     0.035 A 
HETATM   20  N4  UNL     1      21.750  -0.922  53.853  1.00  0.00    -0.384 N 
HETATM   21  H24 UNL     1      21.796  -1.749  54.472  1.00  0.00     0.160 HD
BRANCH  19  22
HETATM   22  C15 UNL     1      24.256  -0.500  53.954  1.00  0.00    -0.036 C 
HETATM   23  C16 UNL     1      24.291  -1.135  55.308  1.00  0.00     0.050 C 
HETATM   24  C17 UNL     1      25.430  -0.319  53.380  1.00  0.00     0.009 C 
BRANCH  24  25
HETATM   25  C18 UNL     1      26.055   0.199  52.180  1.00  0.00    -0.001 C 
HETATM   26  C19 UNL     1      27.137   0.990  52.150  1.00  0.00    -0.001 C 
BRANCH  26  27
HETATM   27  C20 UNL     1      28.027   1.584  53.182  1.00  0.00     0.194 C 
BRANCH  27  28
HETATM   28  O1  UNL     1      28.950   0.581  53.550  1.00  0.00    -0.392 OA
HETATM   29  C21 UNL     1      28.674   0.218  54.859  1.00  0.00     0.201 C 
ENDBRANCH  27  28
ENDBRANCH  26  27
ENDBRANCH  24  25
ENDBRANCH  19  22
ENDBRANCH   9  11
ENDBRANCH   7   9
ENDBRANCH   6   7
ENDBRANCH   4   5
TORSDOF 8
ENDMDL
MODEL 2
REMARK VINA RESULT:      -7.9      1.827      2.768
REMARK  8 active torsions:
REMARK  status: ('A' for Active; 'I' for Inactive)
REMARK    1  A    between atoms: C4_4  and  C5_5 
REMARK    2  A    between atoms: C6_6  and  C7_7 
REMARK    3  A    between atoms: C7_7  and  N1_9 
REMARK    4  A    between atoms: N1_9  and  C9_10 
REMARK    5  A    between atoms: C14_17  and  C15_18 
REMARK    6  A    between atoms: C17_20  and  C18_21 
REMARK    7  A    between atoms: C19_22  and  C20_23 
REMARK    8  A    between atoms: C20_23  and  O1_24 
ROOT
HETATM    1  C1  UNL     1      27.816   9.783  47.856  1.00  0.00     0.017 C 
HETATM    2  C2  UNL     1      27.455   8.669  48.209  1.00  0.00    -0.089 C 
HETATM    3  C3  UNL     1      27.053   7.359  48.631  1.00  0.00     0.063 C 
HETATM    4  C4  UNL     1      27.838   6.326  48.385  1.00  0.00     0.009 C 
ENDROOT
BRANCH   4   5
HETATM    5  C5  UNL     1      27.407   5.005  48.825  1.00  0.00    -0.001 C 
HETATM    6  C6  UNL     1      26.264   4.903  49.511  1.00  0.00    -0.002 C 
BRANCH   6   7
HETATM    7  C7  UNL     1      25.503   3.800  50.117  1.00  0.00     0.102 C 
HETATM    8  C8  UNL     1      26.391   2.603  50.334  1.00  0.00     0.036 C 
BRANCH   7   9
HETATM    9  N1  UNL     1      24.828   4.212  51.357  1.00  0.00    -0.367 N 
HETATM   10  H10 UNL     1      25.463   4.568  52.076  1.00  0.00     0.161 HD
BRANCH   9  11
HETATM   11  C9  UNL     1      23.417   4.103  51.487  1.00  0.00     0.137 A 
HETATM   12  N2  UNL     1      22.651   5.092  51.008  1.00  0.00    -0.224 NA
HETATM   13  C10 UNL     1      21.313   5.062  51.077  1.00  0.00     0.235 A 
HETATM   14  N3  UNL     1      20.622   4.025  51.637  1.00  0.00    -0.244 NA
HETATM   15  C11 UNL     1      21.371   3.020  52.126  1.00  0.00     0.067 A 
HETATM   16  C12 UNL     1      22.744   3.049  52.057  1.00  0.00     0.038 A 
HETATM   17  C22 UNL     1      20.636   1.901  52.728  1.00  0.00     0.180 A 
HETATM   18  C13 UNL     1      23.536   1.962  52.594  1.00  0.00     0.047 A 
HETATM   19  C14 UNL     1      23.019   0.877  53.180  1.00  0.00     0.035 A 
HETATM   20  N4  UNL     1      21.605   0.944  53.200  1.00  0.00    -0.384 N 
HETATM   21  H24 UNL     1      21.037   0.190  53.623  1.00  0.00     0.160 HD
BRANCH  19  22
HETATM   22  C15 UNL     1      23.815  -0.205  53.715  1.00  0.00    -0.036 C 
HETATM   23  C16 UNL     1      23.103  -0.980  54.778  1.00  0.00     0.050 C 
HETATM   24  C17 UNL     1      25.035  -0.616  53.432  1.00  0.00     0.009 C 
BRANCH  24  25
HETATM   25  C18 UNL     1      26.175  -0.334  52.582  1.00  0.00    -0.001 C 
HETATM   26  C19 UNL     1      27.421  -0.093  53.014  1.00  0.00    -0.001 C 
BRANCH  26  27
HETATM   27  C20 UNL     1      28.070  -0.023  54.349  1.00  0.00     0.194 C 
BRANCH  27  28
HETATM   28  O1  UNL     1      28.153   1.345  54.690  1.00  0.00    -0.392 OA
HETATM   29  C21 UNL     1      28.667   2.018  53.593  1.00  0.00     0.201 C 
ENDBRANCH  27  28
ENDBRANCH  26  27
ENDBRANCH  24  25
ENDBRANCH  19  22
ENDBRANCH   9  11
ENDBRANCH   7   9
ENDBRANCH   6   7
ENDBRANCH   4   5
TORSDOF 8
ENDMDL
MODEL 3
REMARK VINA RESULT:      -7.8      2.788      7.423
REMARK  8 active torsions:
REMARK  status: ('A' for Active; 'I' for Inactive)
REMARK    1  A    between atoms: C4_4  and  C5_5 
REMARK    2  A    between atoms: C6_6  and  C7_7 
REMARK    3  A    between atoms: C7_7  and  N1_9 
REMARK    4  A    between atoms: N1_9  and  C9_10 
REMARK    5  A    between atoms: C14_17  and  C15_18 
REMARK    6  A    between atoms: C17_20  and  C18_21 
REMARK    7  A    between atoms: C19_22  and  C20_23 
REMARK    8  A    between atoms: C20_23  and  O1_24 
ROOT
HETATM    1  C1  UNL     1      16.444  -0.416  50.481  1.00  0.00     0.017 C 
HETATM    2  C2  UNL     1      17.453  -0.179  51.132  1.00  0.00    -0.089 C 
HETATM    3  C3  UNL     1      18.637   0.120  51.882  1.00  0.00     0.063 C 
HETATM    4  C4  UNL     1      19.736   0.484  51.246  1.00  0.00     0.009 C 
ENDROOT
BRANCH   4   5
HETATM    5  C5  UNL     1      20.927   0.782  52.032  1.00  0.00    -0.001 C 
HETATM    6  C6  UNL     1      21.360  -0.132  52.906  1.00  0.00    -0.002 C 
BRANCH   6   7
HETATM    7  C7  UNL     1      22.476  -0.222  53.859  1.00  0.00     0.102 C 
HETATM    8  C8  UNL     1      22.136  -1.161  54.985  1.00  0.00     0.036 C 
BRANCH   7   9
HETATM    9  N1  UNL     1      23.737  -0.595  53.198  1.00  0.00    -0.367 N 
HETATM   10  H10 UNL     1      23.613  -1.195  52.379  1.00  0.00     0.161 HD
BRANCH   9  11
HETATM   11  C9  UNL     1      24.984  -0.133  53.697  1.00  0.00     0.137 A 
HETATM   12  N2  UNL     1      25.491  -0.717  54.791  1.00  0.00    -0.224 NA
HETATM   13  C10 UNL     1      26.669  -0.353  55.319  1.00  0.00     0.235 A 
HETATM   14  N3  UNL     1      27.445   0.638  54.788  1.00  0.00    -0.244 NA
HETATM   15  C11 UNL     1      26.954   1.239  53.689  1.00  0.00     0.067 A 
HETATM   16  C12 UNL     1      25.748   0.868  53.147  1.00  0.00     0.038 A 
HETATM   17  C22 UNL     1      27.784   2.305  53.112  1.00  0.00     0.180 A 
HETATM   18  C13 UNL     1      25.230   1.531  51.967  1.00  0.00     0.047 A 
HETATM   19  C14 UNL     1      25.860   2.523  51.328  1.00  0.00     0.035 A 
HETATM   20  N4  UNL     1      27.088   2.828  51.964  1.00  0.00    -0.384 N 
HETATM   21  H24 UNL     1      27.705   3.576  51.607  1.00  0.00     0.160 HD
BRANCH  19  22
HETATM   22  C15 UNL     1      25.339   3.180  50.151  1.00  0.00    -0.036 C 
HETATM   23  C16 UNL     1      23.878   2.931  49.944  1.00  0.00     0.050 C 
HETATM   24  C17 UNL     1      25.919   3.946  49.248  1.00  0.00     0.009 C 
BRANCH  24  25
HETATM   25  C18 UNL     1      27.195   4.529  48.883  1.00  0.00    -0.001 C 
HETATM   26  C19 UNL     1      27.406   5.826  48.617  1.00  0.00    -0.001 C 
BRANCH  26  27
HETATM   27  C20 UNL     1      26.549   7.040  48.589  1.00  0.00     0.194 C 
BRANCH  27  28
HETATM   28  O1  UNL     1      26.159   7.294  49.922  1.00  0.00    -0.392 OA
HETATM   29  C21 UNL     1      25.378   8.439  49.919  1.00  0.00     0.201 C 
ENDBRANCH  27  28
ENDBRANCH  26  27
ENDBRANCH  24  25
ENDBRANCH  19  22
ENDBRANCH   9  11
ENDBRANCH   7   9
ENDBRANCH   6   7
ENDBRANCH   4   5
TORSDOF 8
ENDMDL
MODEL 4
REMARK VINA RESULT:      -7.7      2.999      5.601
REMARK  8 active torsions:
REMARK  status: ('A' for Active; 'I' for Inactive)
REMARK    1  A    between atoms: C4_4  and  C5_5 
REMARK    2  A    between atoms: C6_6  and  C7_7 
REMARK    3  A    between atoms: C7_7  and  N1_9 
REMARK    4  A    between atoms: N1_9  and  C9_10 
REMARK    5  A    between atoms: C14_17  and  C15_18 
REMARK    6  A    between atoms: C17_20  and  C18_21 
REMARK    7  A    between atoms: C19_22  and  C20_23 
REMARK    8  A    between atoms: C20_23  and  O1_24 
ROOT
HETATM    1  C1  UNL     1      29.701   7.269  47.007  1.00  0.00     0.017 C 
HETATM    2  C2  UNL     1      28.898   6.691  47.727  1.00  0.00    -0.089 C 
HETATM    3  C3  UNL     1      27.941   6.014  48.551  1.00  0.00     0.063 C 
HETATM    4  C4  UNL     1      26.693   6.446  48.591  1.00  0.00     0.009 C 
ENDROOT
BRANCH   4   5
HETATM    5  C5  UNL     1      25.740   5.739  49.438  1.00  0.00    -0.001 C 
HETATM    6  C6  UNL     1      25.992   4.467  49.757  1.00  0.00    -0.002 C 
BRANCH   6   7
HETATM    7  C7  UNL     1      25.312   3.435  50.555  1.00  0.00     0.102 C 
HETATM    8  C8  UNL     1      23.959   3.124  49.973  1.00  0.00     0.036 C 
BRANCH   7   9
HETATM    9  N1  UNL     1      26.134   2.224  50.705  1.00  0.00    -0.367 N 
HETATM   10  H10 UNL     1      26.236   1.683  49.843  1.00  0.00     0.161 HD
BRANCH   9  11
HETATM   11  C9  UNL     1      26.708   1.886  51.960  1.00  0.00     0.137 A 
HETATM   12  N2  UNL     1      27.940   2.331  52.240  1.00  0.00    -0.224 NA
HETATM   13  C10 UNL     1      28.550   2.071  53.406  1.00  0.00     0.235 A 
HETATM   14  N3  UNL     1      27.969   1.336  54.399  1.00  0.00    -0.244 NA
HETATM   15  C11 UNL     1      26.731   0.878  54.139  1.00  0.00     0.067 A 
HETATM   16  C12 UNL     1      26.104   1.142  52.945  1.00  0.00     0.038 A 
HETATM   17  C22 UNL     1      26.098   0.087  55.203  1.00  0.00     0.180 A 
HETATM   18  C13 UNL     1      24.774   0.636  52.677  1.00  0.00     0.047 A 
HETATM   19  C14 UNL     1      24.066  -0.104  53.539  1.00  0.00     0.035 A 
HETATM   20  N4  UNL     1      24.798  -0.319  54.732  1.00  0.00    -0.384 N 
HETATM   21  H24 UNL     1      24.406  -0.878  55.509  1.00  0.00     0.160 HD
BRANCH  19  22
HETATM   22  C15 UNL     1      22.739  -0.607  53.267  1.00  0.00    -0.036 C 
HETATM   23  C16 UNL     1      22.325  -1.695  54.206  1.00  0.00     0.050 C 
HETATM   24  C17 UNL     1      21.850  -0.278  52.351  1.00  0.00     0.009 C 
BRANCH  24  25
HETATM   25  C18 UNL     1      21.631   0.614  51.229  1.00  0.00    -0.001 C 
HETATM   26  C19 UNL     1      20.613   1.479  51.115  1.00  0.00    -0.001 C 
BRANCH  26  27
HETATM   27  C20 UNL     1      19.449   1.842  51.964  1.00  0.00     0.194 C 
BRANCH  27  28
HETATM   28  O1  UNL     1      19.606   3.202  52.311  1.00  0.00    -0.392 OA
HETATM   29  C21 UNL     1      19.153   3.960  51.243  1.00  0.00     0.201 C 
ENDBRANCH  27  28
ENDBRANCH  26  27
ENDBRANCH  24  25
ENDBRANCH  19  22
ENDBRANCH   9  11
ENDBRANCH   7   9
ENDBRANCH   6   7
ENDBRANCH   4   5
TORSDOF 8
ENDMDL
MODEL 5
REMARK VINA RESULT:      -7.5      2.976      7.512
REMARK  8 active torsions:
REMARK  status: ('A' for Active; 'I' for Inactive)
REMARK    1  A    between atoms: C4_4  and  C5_5 
REMARK    2  A    between atoms: C6_6  and  C7_7 
REMARK    3  A    between atoms: C7_7  and  N1_9 
REMARK    4  A    between atoms: N1_9  and  C9_10 
REMARK    5  A    between atoms: C14_17  and  C15_18 
REMARK    6  A    between atoms: C17_20  and  C18_21 
REMARK    7  A    between atoms: C19_22  and  C20_23 
REMARK    8  A    between atoms: C20_23  and  O1_24 
ROOT
HETATM    1  C1  UNL     1      17.031   0.629  49.358  1.00  0.00     0.017 C 
HETATM    2  C2  UNL     1      17.635   0.410  50.399  1.00  0.00    -0.089 C 
HETATM    3  C3  UNL     1      18.356   0.177  51.615  1.00  0.00     0.063 C 
HETATM    4  C4  UNL     1      19.670   0.309  51.629  1.00  0.00     0.009 C 
ENDROOT
BRANCH   4   5
HETATM    5  C5  UNL     1      20.380   0.065  52.879  1.00  0.00    -0.001 C 
HETATM    6  C6  UNL     1      21.712  -0.031  52.848  1.00  0.00    -0.002 C 
BRANCH   6   7
HETATM    7  C7  UNL     1      22.767  -0.266  53.845  1.00  0.00     0.102 C 
HETATM    8  C8  UNL     1      22.309  -1.265  54.874  1.00  0.00     0.036 C 
BRANCH   7   9
HETATM    9  N1  UNL     1      24.037  -0.667  53.221  1.00  0.00    -0.367 N 
HETATM   10  H10 UNL     1      23.926  -1.311  52.433  1.00  0.00     0.161 HD
BRANCH   9  11
HETATM   11  C9  UNL     1      25.277  -0.173  53.710  1.00  0.00     0.137 A 
HETATM   12  N2  UNL     1      25.808  -0.745  54.799  1.00  0.00    -0.224 NA
HETATM   13  C10 UNL     1      26.980  -0.351  55.317  1.00  0.00     0.235 A 
HETATM   14  N3  UNL     1      27.726   0.660  54.781  1.00  0.00    -0.244 NA
HETATM   15  C11 UNL     1      27.210   1.249  53.687  1.00  0.00     0.067 A 
HETATM   16  C12 UNL     1      26.009   0.848  53.154  1.00  0.00     0.038 A 
HETATM   17  C22 UNL     1      28.007   2.336  53.103  1.00  0.00     0.180 A 
HETATM   18  C13 UNL     1      25.464   1.497  51.979  1.00  0.00     0.047 A 
HETATM   19  C14 UNL     1      26.063   2.505  51.336  1.00  0.00     0.035 A 
HETATM   20  N4  UNL     1      27.287   2.842  51.961  1.00  0.00    -0.384 N 
HETATM   21  H24 UNL     1      27.883   3.607  51.600  1.00  0.00     0.160 HD
BRANCH  19  22
HETATM   22  C15 UNL     1      25.515   3.150  50.164  1.00  0.00    -0.036 C 
HETATM   23  C16 UNL     1      26.532   3.942  49.406  1.00  0.00     0.050 C 
HETATM   24  C17 UNL     1      24.296   3.160  49.660  1.00  0.00     0.009 C 
BRANCH  24  25
HETATM   25  C18 UNL     1      22.957   2.650  49.880  1.00  0.00    -0.001 C 
HETATM   26  C19 UNL     1      22.021   3.236  50.639  1.00  0.00    -0.001 C 
BRANCH  26  27
HETATM   27  C20 UNL     1      21.963   4.475  51.459  1.00  0.00     0.194 C 
BRANCH  27  28
HETATM   28  O1  UNL     1      20.840   5.206  51.012  1.00  0.00    -0.392 OA
HETATM   29  C21 UNL     1      21.292   6.442  50.578  1.00  0.00     0.201 C 
ENDBRANCH  27  28
ENDBRANCH  26  27
ENDBRANCH  24  25
ENDBRANCH  19  22
ENDBRANCH   9  11
ENDBRANCH   7   9
ENDBRANCH   6   7
ENDBRANCH   4   5
TORSDOF 8
ENDMDL
MODEL 6
REMARK VINA RESULT:      -7.4      1.911      2.353
REMARK  8 active torsions:
REMARK  status: ('A' for Active; 'I' for Inactive)
REMARK    1  A    between atoms: C4_4  and  C5_5 
REMARK    2  A    between atoms: C6_6  and  C7_7 
REMARK    3  A    between atoms: C7_7  and  N1_9 
REMARK    4  A    between atoms: N1_9  and  C9_10 
REMARK    5  A    between atoms: C14_17  and  C15_18 
REMARK    6  A    between atoms: C17_20  and  C18_21 
REMARK    7  A    between atoms: C19_22  and  C20_23 
REMARK    8  A    between atoms: C20_23  and  O1_24 
ROOT
HETATM    1  C1  UNL     1      28.835   5.632  48.331  1.00  0.00     0.017 C 
HETATM    2  C2  UNL     1      27.696   5.301  48.631  1.00  0.00    -0.089 C 
HETATM    3  C3  UNL     1      26.371   4.901  49.003  1.00  0.00     0.063 C 
HETATM    4  C4  UNL     1      26.146   3.653  49.372  1.00  0.00     0.009 C 
ENDROOT
BRANCH   4   5
HETATM    5  C5  UNL     1      24.789   3.273  49.745  1.00  0.00    -0.001 C 
HETATM    6  C6  UNL     1      23.838   3.302  48.807  1.00  0.00    -0.002 C 
BRANCH   6   7
HETATM    7  C7  UNL     1      22.397   3.008  48.770  1.00  0.00     0.102 C 
HETATM    8  C8  UNL     1      22.144   1.692  48.084  1.00  0.00     0.036 C 
BRANCH   7   9
HETATM    9  N1  UNL     1      21.790   3.053  50.109  1.00  0.00    -0.367 N 
HETATM   10  H10 UNL     1      22.346   3.564  50.799  1.00  0.00     0.161 HD
BRANCH   9  11
HETATM   11  C9  UNL     1      20.541   2.424  50.363  1.00  0.00     0.137 A 
HETATM   12  N2  UNL     1      19.472   2.817  49.659  1.00  0.00    -0.224 NA
HETATM   13  C10 UNL     1      18.261   2.267  49.825  1.00  0.00     0.235 A 
HETATM   14  N3  UNL     1      18.018   1.264  50.720  1.00  0.00    -0.244 NA
HETATM   15  C11 UNL     1      19.078   0.854  51.439  1.00  0.00     0.067 A 
HETATM   16  C12 UNL     1      20.321   1.417  51.271  1.00  0.00     0.038 A 
HETATM   17  C22 UNL     1      18.826  -0.224  52.403  1.00  0.00     0.180 A 
HETATM   18  C13 UNL     1      21.450   0.969  52.059  1.00  0.00     0.047 A 
HETATM   19  C14 UNL     1      21.384   0.003  52.982  1.00  0.00     0.035 A 
HETATM   20  N4  UNL     1      20.067  -0.509  53.077  1.00  0.00    -0.384 N 
HETATM   21  H24 UNL     1      19.830  -1.260  53.747  1.00  0.00     0.160 HD
BRANCH  19  22
HETATM   22  C15 UNL     1      22.515  -0.441  53.765  1.00  0.00    -0.036 C 
HETATM   23  C16 UNL     1      22.114  -1.231  54.970  1.00  0.00     0.050 C 
HETATM   24  C17 UNL     1      23.812  -0.270  53.603  1.00  0.00     0.009 C 
BRANCH  24  25
HETATM   25  C18 UNL     1      24.791   0.344  52.727  1.00  0.00    -0.001 C 
HETATM   26  C19 UNL     1      25.103   1.647  52.709  1.00  0.00    -0.001 C 
BRANCH  26  27
HETATM   27  C20 UNL     1      24.649   2.842  53.467  1.00  0.00     0.194 C 
BRANCH  27  28
HETATM   28  O1  UNL     1      23.486   3.315  52.822  1.00  0.00    -0.392 OA
HETATM   29  C21 UNL     1      23.531   4.701  52.841  1.00  0.00     0.201 C 
ENDBRANCH  27  28
ENDBRANCH  26  27
ENDBRANCH  24  25
ENDBRANCH  19  22
ENDBRANCH   9  11
ENDBRANCH   7   9
ENDBRANCH   6   7
ENDBRANCH   4   5
TORSDOF 8
ENDMDL
MODEL 7
REMARK VINA RESULT:      -7.3      3.241      6.428
REMARK  8 active torsions:
REMARK  status: ('A' for Active; 'I' for Inactive)
REMARK    1  A    between atoms: C4_4  and  C5_5 
REMARK    2  A    between atoms: C6_6  and  C7_7 
REMARK    3  A    between atoms: C7_7  and  N1_9 
REMARK    4  A    between atoms: N1_9  and  C9_10 
REMARK    5  A    between atoms: C14_17  and  C15_18 
REMARK    6  A    between atoms: C17_20  and  C18_21 
REMARK    7  A    between atoms: C19_22  and  C20_23 
REMARK    8  A    between atoms: C20_23  and  O1_24 
ROOT
HETATM    1  C1  UNL     1      19.296   4.237  46.667  1.00  0.00     0.017 C 
HETATM    2  C2  UNL     1      20.250   3.628  47.131  1.00  0.00    -0.089 C 
HETATM    3  C3  UNL     1      21.364   2.925  47.696  1.00  0.00     0.063 C 
HETATM    4  C4  UNL     1      22.276   3.593  48.380  1.00  0.00     0.009 C 
ENDROOT
BRANCH   4   5
HETATM    5  C5  UNL     1      23.399   2.854  48.944  1.00  0.00    -0.001 C 
HETATM    6  C6  UNL     1      24.468   3.540  49.360  1.00  0.00    -0.002 C 
BRANCH   6   7
HETATM    7  C7  UNL     1      25.763   3.192  49.963  1.00  0.00     0.102 C 
HETATM    8  C8  UNL     1      26.863   4.037  49.378  1.00  0.00     0.036 C 
BRANCH   7   9
HETATM    9  N1  UNL     1      25.729   3.279  51.431  1.00  0.00    -0.367 N 
HETATM   10  H10 UNL     1      25.260   4.116  51.786  1.00  0.00     0.161 HD
BRANCH   9  11
HETATM   11  C9  UNL     1      26.311   2.261  52.234  1.00  0.00     0.137 A 
HETATM   12  N2  UNL     1      27.642   2.250  52.388  1.00  0.00    -0.224 NA
HETATM   13  C10 UNL     1      28.270   1.336  53.140  1.00  0.00     0.235 A 
HETATM   14  N3  UNL     1      27.610   0.345  53.809  1.00  0.00    -0.244 NA
HETATM   15  C11 UNL     1      26.272   0.336  53.669  1.00  0.00     0.067 A 
HETATM   16  C12 UNL     1      25.625   1.272  52.898  1.00  0.00     0.038 A 
HETATM   17  C22 UNL     1      25.554  -0.725  54.386  1.00  0.00     0.180 A 
HETATM   18  C13 UNL     1      24.185   1.245  52.751  1.00  0.00     0.047 A 
HETATM   19  C14 UNL     1      23.389   0.340  53.333  1.00  0.00     0.035 A 
HETATM   20  N4  UNL     1      24.150  -0.574  54.101  1.00  0.00    -0.384 N 
HETATM   21  H24 UNL     1      23.698  -1.348  54.616  1.00  0.00     0.160 HD
BRANCH  19  22
HETATM   22  C15 UNL     1      21.952   0.318  53.183  1.00  0.00    -0.036 C 
HETATM   23  C16 UNL     1      21.232   0.199  54.489  1.00  0.00     0.050 C 
HETATM   24  C17 UNL     1      21.183   0.381  52.113  1.00  0.00     0.009 C 
BRANCH  24  25
HETATM   25  C18 UNL     1      21.229   0.490  50.669  1.00  0.00    -0.001 C 
HETATM   26  C19 UNL     1      20.192   0.812  49.883  1.00  0.00    -0.001 C 
BRANCH  26  27
HETATM   27  C20 UNL     1      18.763   1.145  50.122  1.00  0.00     0.194 C 
BRANCH  27  28
HETATM   28  O1  UNL     1      18.162  -0.008  50.671  1.00  0.00    -0.392 OA
HETATM   29  C21 UNL     1      16.964  -0.212  50.006  1.00  0.00     0.201 C 
ENDBRANCH  27  28
ENDBRANCH  26  27
ENDBRANCH  24  25
ENDBRANCH  19  22
ENDBRANCH   9  11
ENDBRANCH   7   9
ENDBRANCH   6   7
ENDBRANCH   4   5
TORSDOF 8
ENDMDL
MODEL 8
REMARK VINA RESULT:      -7.1      2.017      3.199
REMARK  8 active torsions:
REMARK  status: ('A' for Active; 'I' for Inactive)
REMARK    1  A    between atoms: C4_4  and  C5_5 
REMARK    2  A    between atoms: C6_6  and  C7_7 
REMARK    3  A    between atoms: C7_7  and  N1_9 
REMARK    4  A    between atoms: N1_9  and  C9_10 
REMARK    5  A    between atoms: C14_17  and  C15_18 
REMARK    6  A    between atoms: C17_20  and  C18_21 
REMARK    7  A    between atoms: C19_22  and  C20_23 
REMARK    8  A    between atoms: C20_23  and  O1_24 
ROOT
HETATM    1  C1  UNL     1      20.279   4.081  44.253  1.00  0.00     0.017 C 
HETATM    2  C2  UNL     1      21.120   4.388  45.086  1.00  0.00    -0.089 C 
HETATM    3  C3  UNL     1      22.110   4.725  46.067  1.00  0.00     0.063 C 
HETATM    4  C4  UNL     1      22.056   4.169  47.264  1.00  0.00     0.009 C 
ENDROOT
BRANCH   4   5
HETATM    5  C5  UNL     1      23.074   4.529  48.243  1.00  0.00    -0.001 C 
HETATM    6  C6  UNL     1      23.414   3.628  49.169  1.00  0.00    -0.002 C 
BRANCH   6   7
HETATM    7  C7  UNL     1      24.358   3.593  50.297  1.00  0.00     0.102 C 
HETATM    8  C8  UNL     1      25.549   4.470  50.017  1.00  0.00     0.036 C 
BRANCH   7   9
HETATM    9  N1  UNL     1      23.708   3.942  51.570  1.00  0.00    -0.367 N 
HETATM   10  H10 UNL     1      24.250   4.591  52.147  1.00  0.00     0.161 HD
BRANCH   9  11
HETATM   11  C9  UNL     1      22.442   3.396  51.915  1.00  0.00     0.137 A 
HETATM   12  N2  UNL     1      21.339   4.080  51.583  1.00  0.00    -0.224 NA
HETATM   13  C10 UNL     1      20.106   3.631  51.857  1.00  0.00     0.235 A 
HETATM   14  N3  UNL     1      19.873   2.444  52.493  1.00  0.00    -0.244 NA
HETATM   15  C11 UNL     1      20.968   1.741  52.836  1.00  0.00     0.067 A 
HETATM   16  C12 UNL     1      22.233   2.200  52.557  1.00  0.00     0.038 A 
HETATM   17  C22 UNL     1      20.726   0.463  53.519  1.00  0.00     0.180 A 
HETATM   18  C13 UNL     1      23.401   1.434  52.939  1.00  0.00     0.047 A 
HETATM   19  C14 UNL     1      23.350   0.256  53.572  1.00  0.00     0.035 A 
HETATM   20  N4  UNL     1      22.008  -0.126  53.812  1.00  0.00    -0.384 N 
HETATM   21  H24 UNL     1      21.780  -1.009  54.299  1.00  0.00     0.160 HD
BRANCH  19  22
HETATM   22  C15 UNL     1      24.519  -0.504  53.951  1.00  0.00    -0.036 C 
HETATM   23  C16 UNL     1      24.375  -1.166  55.286  1.00  0.00     0.050 C 
HETATM   24  C17 UNL     1      25.667  -0.710  53.336  1.00  0.00     0.009 C 
BRANCH  24  25
HETATM   25  C18 UNL     1      26.396  -0.388  52.125  1.00  0.00    -0.001 C 
HETATM   26  C19 UNL     1      26.922   0.809  51.833  1.00  0.00    -0.001 C 
BRANCH  26  27
HETATM   27  C20 UNL     1      26.977   2.124  52.525  1.00  0.00     0.194 C 
BRANCH  27  28
HETATM   28  O1  UNL     1      28.342   2.464  52.646  1.00  0.00    -0.392 OA
HETATM   29  C21 UNL     1      28.822   1.864  53.800  1.00  0.00     0.201 C 
ENDBRANCH  27  28
ENDBRANCH  26  27
ENDBRANCH  24  25
ENDBRANCH  19  22
ENDBRANCH   9  11
ENDBRANCH   7   9
ENDBRANCH   6   7
ENDBRANCH   4   5
TORSDOF 8
ENDMDL
MODEL 9
REMARK VINA RESULT:      -6.8      3.110      5.627
REMARK  8 active torsions:
REMARK  status: ('A' for Active; 'I' for Inactive)
REMARK    1  A    between atoms: C4_4  and  C5_5 
REMARK    2  A    between atoms: C6_6  and  C7_7 
REMARK    3  A    between atoms: C7_7  and  N1_9 
REMARK    4  A    between atoms: N1_9  and  C9_10 
REMARK    5  A    between atoms: C14_17  and  C15_18 
REMARK    6  A    between atoms: C17_20  and  C18_21 
REMARK    7  A    between atoms: C19_22  and  C20_23 
REMARK    8  A    between atoms: C20_23  and  O1_24 
ROOT
HETATM    1  C1  UNL     1      32.440   6.034  46.766  1.00  0.00     0.017 C 
HETATM    2  C2  UNL     1      31.367   5.899  47.338  1.00  0.00    -0.089 C 
HETATM    3  C3  UNL     1      30.098   5.742  47.985  1.00  0.00     0.063 C 
HETATM    4  C4  UNL     1      29.117   6.580  47.707  1.00  0.00     0.009 C 
ENDROOT
BRANCH   4   5
HETATM    5  C5  UNL     1      27.836   6.399  48.380  1.00  0.00    -0.001 C 
HETATM    6  C6  UNL     1      27.422   5.155  48.637  1.00  0.00    -0.002 C 
BRANCH   6   7
HETATM    7  C7  UNL     1      26.237   4.558  49.271  1.00  0.00     0.102 C 
HETATM    8  C8  UNL     1      26.483   3.107  49.590  1.00  0.00     0.036 C 
BRANCH   7   9
HETATM    9  N1  UNL     1      25.807   5.313  50.458  1.00  0.00    -0.367 N 
HETATM   10  H10 UNL     1      26.467   5.270  51.238  1.00  0.00     0.161 HD
BRANCH   9  11
HETATM   11  C9  UNL     1      24.574   6.020  50.463  1.00  0.00     0.137 A 
HETATM   12  N2  UNL     1      24.605   7.359  50.468  1.00  0.00    -0.224 NA
HETATM   13  C10 UNL     1      23.489   8.103  50.457  1.00  0.00     0.235 A 
HETATM   14  N3  UNL     1      22.236   7.561  50.440  1.00  0.00    -0.244 NA
HETATM   15  C11 UNL     1      22.181   6.217  50.436  1.00  0.00     0.067 A 
HETATM   16  C12 UNL     1      23.323   5.452  50.447  1.00  0.00     0.038 A 
HETATM   17  C22 UNL     1      20.837   5.626  50.417  1.00  0.00     0.180 A 
HETATM   18  C13 UNL     1      23.247   4.006  50.450  1.00  0.00     0.047 A 
HETATM   19  C14 UNL     1      22.101   3.316  50.440  1.00  0.00     0.035 A 
HETATM   20  N4  UNL     1      20.989   4.193  50.429  1.00  0.00    -0.384 N 
HETATM   21  H24 UNL     1      20.020   3.831  50.428  1.00  0.00     0.160 HD
BRANCH  19  22
HETATM   22  C15 UNL     1      22.030   1.872  50.443  1.00  0.00    -0.036 C 
HETATM   23  C16 UNL     1      21.383   1.319  49.213  1.00  0.00     0.050 C 
HETATM   24  C17 UNL     1      22.430   0.979  51.326  1.00  0.00     0.009 C 
BRANCH  24  25
HETATM   25  C18 UNL     1      23.072   0.847  52.619  1.00  0.00    -0.001 C 
HETATM   26  C19 UNL     1      22.450   0.529  53.763  1.00  0.00    -0.001 C 
BRANCH  26  27
HETATM   27  C20 UNL     1      21.045   0.220  54.139  1.00  0.00     0.194 C 
BRANCH  27  28
HETATM   28  O1  UNL     1      20.767  -1.073  53.644  1.00  0.00    -0.392 OA
HETATM   29  C21 UNL     1      21.376  -1.985  54.492  1.00  0.00     0.201 C 
ENDBRANCH  27  28
ENDBRANCH  26  27
ENDBRANCH  24  25
ENDBRANCH  19  22
ENDBRANCH   9  11
ENDBRANCH   7   9
ENDBRANCH   6   7
ENDBRANCH   4   5
TORSDOF 8
ENDMDL
