MODEL 1
REMARK VINA RESULT:      -8.3      0.000      0.000
REMARK  6 active torsions:
REMARK  status: ('A' for Active; 'I' for Inactive)
REMARK    1  A    between atoms: O1_1  and  C1_2 
REMARK    2  A    between atoms: C13_17  and  N3_18 
REMARK    3  A    between atoms: N3_18  and  C14_19 
REMARK    4  A    between atoms: C15_20  and  C16_21 
REMARK    5  A    between atoms: C17_22  and  C18_23 
REMARK    6  A    between atoms: C18_23  and  C19_25 
ROOT
HETATM    1  C1  UNL     1      24.123   2.873  51.923  1.00  0.00     0.079 C 
HETATM    2  C2  UNL     1      23.637   3.878  51.158  1.00  0.00     0.103 C 
HETATM    3  C3  UNL     1      22.785   3.867  49.923  1.00  0.00     0.339 C 
HETATM    4  N1  UNL     1      21.501   4.376  50.169  1.00  0.00     0.096 NA
HETATM    5  C4  UNL     1      20.395   4.134  49.373  1.00  0.00     0.274 C 
HETATM    6  C5  UNL     1      20.323   3.002  48.430  1.00  0.00     0.050 C 
HETATM    7  C6  UNL     1      20.399   1.616  48.890  1.00  0.00     0.119 C 
HETATM    8  N2  UNL     1      19.456   1.209  49.925  1.00  0.00    -0.403 N 
HETATM    9  C7  UNL     1      18.087   1.632  49.682  1.00  0.00     0.143 C 
HETATM   10  C8  UNL     1      17.254   1.770  50.921  1.00  0.00     0.187 C 
HETATM   11  O2  UNL     1      17.502   0.835  51.880  1.00  0.00    -0.387 OA
HETATM   12  C9  UNL     1      18.289  -0.180  51.370  1.00  0.00     0.193 C 
HETATM   13  C10 UNL     1      19.665   0.448  51.154  1.00  0.00     0.041 C 
HETATM   14  C11 UNL     1      20.952   0.638  51.529  1.00  0.00     0.113 C 
HETATM   15  C12 UNL     1      21.822   0.177  52.658  1.00  0.00     0.006 C 
HETATM   16  C13 UNL     1      23.063   0.707  52.504  1.00  0.00     0.011 C 
HETATM   17  C20 UNL     1      23.771   1.538  51.521  1.00  0.00     0.123 C 
HETATM   18  C21 UNL     1      21.668   5.796  50.477  1.00  0.00     0.299 C 
HETATM   19  C22 UNL     1      22.758   6.133  51.406  1.00  0.00     0.205 C 
HETATM   20  O3  UNL     1      23.873   5.241  51.438  1.00  0.00    -0.349 OA
ENDROOT
BRANCH  16  21
HETATM   21  N3  UNL     1      24.087   0.408  53.484  1.00  0.00    -0.369 N 
HETATM   22  H18 UNL     1      24.141   1.197  54.197  1.00  0.00     0.165 HD
BRANCH  21  23
HETATM   23  C14 UNL     1      24.918  -0.743  53.530  1.00  0.00     0.088 C 
HETATM   24  C15 UNL     1      26.168  -0.916  53.137  1.00  0.00     0.017 C 
BRANCH  24  25
HETATM   25  C16 UNL     1      26.937   0.163  52.544  1.00  0.00     0.000 C 
HETATM   26  C17 UNL     1      28.114   0.547  53.037  1.00  0.00     0.012 C 
BRANCH  26  27
HETATM   27  C18 UNL     1      28.726  -0.096  54.226  1.00  0.00     0.221 C 
HETATM   28  F1  UNL     1      29.131   0.882  55.108  1.00  0.00    -0.243 F 
BRANCH  27  29
HETATM   29  C19 UNL     1      29.910  -0.926  53.749  1.00  0.00     0.263 C 
HETATM   30  F2  UNL     1      29.439  -2.128  53.226  1.00  0.00    -0.252 F 
ENDBRANCH  27  29
ENDBRANCH  26  27
ENDBRANCH  24  25
ENDBRANCH  21  23
ENDBRANCH  16  21
BRANCH   1  31
HETATM   31  O1  UNL     1      24.898   3.155  53.018  1.00  0.00    -0.362 OA
HETATM   32  H1  UNL     1      24.862   3.989  53.560  1.00  0.00     0.217 HD
ENDBRANCH   1  31
TORSDOF 6
ENDMDL
MODEL 2
REMARK VINA RESULT:      -7.8      1.978      4.326
REMARK  6 active torsions:
REMARK  status: ('A' for Active; 'I' for Inactive)
REMARK    1  A    between atoms: O1_1  and  C1_2 
REMARK    2  A    between atoms: C13_17  and  N3_18 
REMARK    3  A    between atoms: N3_18  and  C14_19 
REMARK    4  A    between atoms: C15_20  and  C16_21 
REMARK    5  A    between atoms: C17_22  and  C18_23 
REMARK    6  A    between atoms: C18_23  and  C19_25 
ROOT
HETATM    1  C1  UNL     1      21.686  -0.412  53.795  1.00  0.00     0.079 C 
HETATM    2  C2  UNL     1      20.415  -0.034  53.522  1.00  0.00     0.103 C 
HETATM    3  C3  UNL     1      19.817   1.309  53.226  1.00  0.00     0.339 C 
HETATM    4  N1  UNL     1      19.386   1.407  51.894  1.00  0.00     0.096 NA
HETATM    5  C4  UNL     1      19.172   2.598  51.224  1.00  0.00     0.274 C 
HETATM    6  C5  UNL     1      19.758   3.878  51.665  1.00  0.00     0.050 C 
HETATM    7  C6  UNL     1      21.205   4.077  51.729  1.00  0.00     0.119 C 
HETATM    8  N2  UNL     1      21.966   3.798  50.517  1.00  0.00    -0.403 N 
HETATM    9  C7  UNL     1      21.387   4.362  49.309  1.00  0.00     0.143 C 
HETATM   10  C8  UNL     1      21.760   3.638  48.050  1.00  0.00     0.187 C 
HETATM   11  O2  UNL     1      23.040   3.170  48.021  1.00  0.00    -0.387 OA
HETATM   12  C9  UNL     1      23.771   3.704  49.064  1.00  0.00     0.193 C 
HETATM   13  C10 UNL     1      23.206   3.053  50.326  1.00  0.00     0.041 C 
HETATM   14  C11 UNL     1      23.291   2.150  51.332  1.00  0.00     0.113 C 
HETATM   15  C12 UNL     1      24.265   1.089  51.746  1.00  0.00     0.006 C 
HETATM   16  C13 UNL     1      23.807   0.485  52.872  1.00  0.00     0.011 C 
HETATM   17  C20 UNL     1      22.674   0.632  53.796  1.00  0.00     0.123 C 
HETATM   18  C21 UNL     1      18.267   0.476  51.749  1.00  0.00     0.299 C 
HETATM   19  C22 UNL     1      18.454  -0.859  52.342  1.00  0.00     0.205 C 
HETATM   20  O3  UNL     1      19.340  -0.946  53.459  1.00  0.00    -0.349 OA
ENDROOT
BRANCH  16  21
HETATM   21  N3  UNL     1      24.579  -0.588  53.464  1.00  0.00    -0.369 N 
HETATM   22  H18 UNL     1      24.497  -1.462  52.862  1.00  0.00     0.165 HD
BRANCH  21  23
HETATM   23  C14 UNL     1      25.344  -0.533  54.660  1.00  0.00     0.088 C 
HETATM   24  C15 UNL     1      26.471   0.102  54.929  1.00  0.00     0.017 C 
BRANCH  24  25
HETATM   25  C16 UNL     1      27.148   0.912  53.931  1.00  0.00     0.000 C 
HETATM   26  C17 UNL     1      28.351   0.591  53.458  1.00  0.00     0.012 C 
BRANCH  26  27
HETATM   27  C18 UNL     1      29.089  -0.613  53.913  1.00  0.00     0.221 C 
HETATM   28  F1  UNL     1      30.443  -0.386  53.785  1.00  0.00    -0.243 F 
BRANCH  27  29
HETATM   29  C19 UNL     1      28.648  -1.784  53.046  1.00  0.00     0.263 C 
HETATM   30  F2  UNL     1      29.338  -2.927  53.443  1.00  0.00    -0.252 F 
ENDBRANCH  27  29
ENDBRANCH  26  27
ENDBRANCH  24  25
ENDBRANCH  21  23
ENDBRANCH  16  21
BRANCH   1  31
HETATM   31  O1  UNL     1      21.975  -1.729  54.042  1.00  0.00    -0.362 OA
HETATM   32  H1  UNL     1      21.537  -2.305  54.726  1.00  0.00     0.217 HD
ENDBRANCH   1  31
TORSDOF 6
ENDMDL
MODEL 3
REMARK VINA RESULT:      -7.6      2.564      3.402
REMARK  6 active torsions:
REMARK  status: ('A' for Active; 'I' for Inactive)
REMARK    1  A    between atoms: O1_1  and  C1_2 
REMARK    2  A    between atoms: C13_17  and  N3_18 
REMARK    3  A    between atoms: N3_18  and  C14_19 
REMARK    4  A    between atoms: C15_20  and  C16_21 
REMARK    5  A    between atoms: C17_22  and  C18_23 
REMARK    6  A    between atoms: C18_23  and  C19_25 
ROOT
HETATM    1  C1  UNL     1      25.520   4.997  49.362  1.00  0.00     0.079 C 
HETATM    2  C2  UNL     1      24.666   5.952  48.924  1.00  0.00     0.103 C 
HETATM    3  C3  UNL     1      23.323   5.860  48.263  1.00  0.00     0.339 C 
HETATM    4  N1  UNL     1      22.295   6.317  49.101  1.00  0.00     0.096 NA
HETATM    5  C4  UNL     1      20.957   5.997  48.949  1.00  0.00     0.274 C 
HETATM    6  C5  UNL     1      20.499   4.831  48.170  1.00  0.00     0.050 C 
HETATM    7  C6  UNL     1      20.868   3.467  48.544  1.00  0.00     0.119 C 
HETATM    8  N2  UNL     1      20.574   3.052  49.911  1.00  0.00    -0.403 N 
HETATM    9  C7  UNL     1      19.239   3.403  50.364  1.00  0.00     0.143 C 
HETATM   10  C8  UNL     1      19.109   3.544  51.851  1.00  0.00     0.187 C 
HETATM   11  O2  UNL     1      19.846   2.654  52.573  1.00  0.00    -0.387 OA
HETATM   12  C9  UNL     1      20.341   1.660  51.751  1.00  0.00     0.193 C 
HETATM   13  C10 UNL     1      21.399   2.344  50.886  1.00  0.00     0.041 C 
HETATM   14  C11 UNL     1      22.692   2.606  50.583  1.00  0.00     0.113 C 
HETATM   15  C12 UNL     1      24.027   2.225  51.146  1.00  0.00     0.006 C 
HETATM   16  C13 UNL     1      25.003   2.806  50.402  1.00  0.00     0.011 C 
HETATM   17  C20 UNL     1      25.094   3.635  49.193  1.00  0.00     0.123 C 
HETATM   18  C21 UNL     1      22.509   7.752  49.279  1.00  0.00     0.299 C 
HETATM   19  C22 UNL     1      23.893   8.172  49.555  1.00  0.00     0.205 C 
HETATM   20  O3  UNL     1      24.931   7.333  49.044  1.00  0.00    -0.349 OA
ENDROOT
BRANCH  16  21
HETATM   21  N3  UNL     1      26.390   2.589  50.759  1.00  0.00    -0.369 N 
HETATM   22  H18 UNL     1      26.990   2.587  49.879  1.00  0.00     0.165 HD
BRANCH  21  23
HETATM   23  C14 UNL     1      26.919   2.402  52.064  1.00  0.00     0.088 C 
HETATM   24  C15 UNL     1      27.106   1.296  52.764  1.00  0.00     0.017 C 
BRANCH  24  25
HETATM   25  C16 UNL     1      26.757  -0.011  52.234  1.00  0.00     0.000 C 
HETATM   26  C17 UNL     1      25.772  -0.744  52.752  1.00  0.00     0.012 C 
BRANCH  26  27
HETATM   27  C18 UNL     1      24.960  -0.282  53.905  1.00  0.00     0.221 C 
HETATM   28  F1  UNL     1      25.355  -0.965  55.035  1.00  0.00    -0.243 F 
BRANCH  27  29
HETATM   29  C19 UNL     1      23.497  -0.560  53.584  1.00  0.00     0.263 C 
HETATM   30  F2  UNL     1      22.766   0.614  53.751  1.00  0.00    -0.252 F 
ENDBRANCH  27  29
ENDBRANCH  26  27
ENDBRANCH  24  25
ENDBRANCH  21  23
ENDBRANCH  16  21
BRANCH   1  31
HETATM   31  O1  UNL     1      26.713   5.352  49.937  1.00  0.00    -0.362 OA
HETATM   32  H1  UNL     1      27.261   6.150  49.701  1.00  0.00     0.217 HD
ENDBRANCH   1  31
TORSDOF 6
ENDMDL
MODEL 4
REMARK VINA RESULT:      -7.6      2.021      4.134
REMARK  6 active torsions:
REMARK  status: ('A' for Active; 'I' for Inactive)
REMARK    1  A    between atoms: O1_1  and  C1_2 
REMARK    2  A    between atoms: C13_17  and  N3_18 
REMARK    3  A    between atoms: N3_18  and  C14_19 
REMARK    4  A    between atoms: C15_20  and  C16_21 
REMARK    5  A    between atoms: C17_22  and  C18_23 
REMARK    6  A    between atoms: C18_23  and  C19_25 
ROOT
HETATM    1  C1  UNL     1      22.672   1.253  53.134  1.00  0.00     0.079 C 
HETATM    2  C2  UNL     1      21.320   1.189  53.115  1.00  0.00     0.103 C 
HETATM    3  C3  UNL     1      20.280   2.201  52.734  1.00  0.00     0.339 C 
HETATM    4  N1  UNL     1      19.613   1.847  51.552  1.00  0.00     0.096 NA
HETATM    5  C4  UNL     1      18.914   2.730  50.749  1.00  0.00     0.274 C 
HETATM    6  C5  UNL     1      19.127   4.190  50.796  1.00  0.00     0.050 C 
HETATM    7  C6  UNL     1      20.421   4.786  50.470  1.00  0.00     0.119 C 
HETATM    8  N2  UNL     1      21.005   4.437  49.180  1.00  0.00    -0.403 N 
HETATM    9  C7  UNL     1      20.073   4.505  48.067  1.00  0.00     0.143 C 
HETATM   10  C8  UNL     1      20.431   3.624  46.908  1.00  0.00     0.187 C 
HETATM   11  O2  UNL     1      21.766   3.531  46.654  1.00  0.00    -0.387 OA
HETATM   12  C9  UNL     1      22.460   4.485  47.375  1.00  0.00     0.193 C 
HETATM   13  C10 UNL     1      22.365   4.036  48.832  1.00  0.00     0.041 C 
HETATM   14  C11 UNL     1      22.910   3.468  49.933  1.00  0.00     0.113 C 
HETATM   15  C12 UNL     1      24.229   2.849  50.284  1.00  0.00     0.006 C 
HETATM   16  C13 UNL     1      24.196   2.439  51.578  1.00  0.00     0.011 C 
HETATM   17  C20 UNL     1      23.257   2.494  52.707  1.00  0.00     0.123 C 
HETATM   18  C21 UNL     1      18.844   0.640  51.854  1.00  0.00     0.299 C 
HETATM   19  C22 UNL     1      19.550  -0.404  52.615  1.00  0.00     0.205 C 
HETATM   20  O3  UNL     1      20.600   0.032  53.481  1.00  0.00    -0.349 OA
ENDROOT
BRANCH  16  21
HETATM   21  N3  UNL     1      25.363   1.799  52.149  1.00  0.00    -0.369 N 
HETATM   22  H18 UNL     1      25.560   2.208  53.111  1.00  0.00     0.165 HD
BRANCH  21  23
HETATM   23  C14 UNL     1      26.155   0.779  51.556  1.00  0.00     0.088 C 
HETATM   24  C15 UNL     1      26.838  -0.207  52.111  1.00  0.00     0.017 C 
BRANCH  24  25
HETATM   25  C16 UNL     1      26.874  -0.397  53.550  1.00  0.00     0.000 C 
HETATM   26  C17 UNL     1      27.931  -0.048  54.283  1.00  0.00     0.012 C 
BRANCH  26  27
HETATM   27  C18 UNL     1      29.147   0.558  53.686  1.00  0.00     0.221 C 
HETATM   28  F1  UNL     1      30.212  -0.298  53.870  1.00  0.00    -0.243 F 
BRANCH  27  29
HETATM   29  C19 UNL     1      29.392   1.891  54.381  1.00  0.00     0.263 C 
HETATM   30  F2  UNL     1      28.584   2.862  53.794  1.00  0.00    -0.252 F 
ENDBRANCH  27  29
ENDBRANCH  26  27
ENDBRANCH  24  25
ENDBRANCH  21  23
ENDBRANCH  16  21
BRANCH   1  31
HETATM   31  O1  UNL     1      23.406   0.168  53.538  1.00  0.00    -0.362 OA
HETATM   32  H1  UNL     1      24.355  -0.017  53.298  1.00  0.00     0.217 HD
ENDBRANCH   1  31
TORSDOF 6
ENDMDL
MODEL 5
REMARK VINA RESULT:      -7.5      1.403      2.157
REMARK  6 active torsions:
REMARK  status: ('A' for Active; 'I' for Inactive)
REMARK    1  A    between atoms: O1_1  and  C1_2 
REMARK    2  A    between atoms: C13_17  and  N3_18 
REMARK    3  A    between atoms: N3_18  and  C14_19 
REMARK    4  A    between atoms: C15_20  and  C16_21 
REMARK    5  A    between atoms: C17_22  and  C18_23 
REMARK    6  A    between atoms: C18_23  and  C19_25 
ROOT
HETATM    1  C1  UNL     1      24.024   5.011  50.393  1.00  0.00     0.079 C 
HETATM    2  C2  UNL     1      23.013   5.662  49.771  1.00  0.00     0.103 C 
HETATM    3  C3  UNL     1      21.943   5.179  48.836  1.00  0.00     0.339 C 
HETATM    4  N1  UNL     1      20.672   5.227  49.428  1.00  0.00     0.096 NA
HETATM    5  C4  UNL     1      19.577   4.501  48.995  1.00  0.00     0.274 C 
HETATM    6  C5  UNL     1      19.700   3.299  48.148  1.00  0.00     0.050 C 
HETATM    7  C6  UNL     1      20.412   2.108  48.608  1.00  0.00     0.119 C 
HETATM    8  N2  UNL     1      19.995   1.538  49.884  1.00  0.00    -0.403 N 
HETATM    9  C7  UNL     1      18.555   1.409  50.034  1.00  0.00     0.143 C 
HETATM   10  C8  UNL     1      18.081   1.410  51.457  1.00  0.00     0.187 C 
HETATM   11  O2  UNL     1      18.903   0.766  52.332  1.00  0.00    -0.387 OA
HETATM   12  C9  UNL     1      19.857   0.037  51.647  1.00  0.00     0.193 C 
HETATM   13  C10 UNL     1      20.785   1.078  51.022  1.00  0.00     0.041 C 
HETATM   14  C11 UNL     1      21.953   1.763  51.002  1.00  0.00     0.113 C 
HETATM   15  C12 UNL     1      23.192   1.801  51.844  1.00  0.00     0.006 C 
HETATM   16  C13 UNL     1      24.054   2.711  51.321  1.00  0.00     0.011 C 
HETATM   17  C20 UNL     1      24.115   3.597  50.151  1.00  0.00     0.123 C 
HETATM   18  C21 UNL     1      20.360   6.641  49.631  1.00  0.00     0.299 C 
HETATM   19  C22 UNL     1      21.439   7.468  50.194  1.00  0.00     0.205 C 
HETATM   20  O3  UNL     1      22.777   7.044  49.929  1.00  0.00    -0.349 OA
ENDROOT
BRANCH  16  21
HETATM   21  N3  UNL     1      25.329   2.933  51.971  1.00  0.00    -0.369 N 
HETATM   22  H18 UNL     1      25.185   3.516  52.851  1.00  0.00     0.165 HD
BRANCH  21  23
HETATM   23  C14 UNL     1      26.601   2.469  51.542  1.00  0.00     0.088 C 
HETATM   24  C15 UNL     1      27.167   1.281  51.668  1.00  0.00     0.017 C 
BRANCH  24  25
HETATM   25  C16 UNL     1      26.493   0.180  52.332  1.00  0.00     0.000 C 
HETATM   26  C17 UNL     1      27.128  -0.633  53.176  1.00  0.00     0.012 C 
BRANCH  26  27
HETATM   27  C18 UNL     1      28.568  -0.475  53.499  1.00  0.00     0.221 C 
HETATM   28  F1  UNL     1      29.163  -1.718  53.520  1.00  0.00    -0.243 F 
BRANCH  27  29
HETATM   29  C19 UNL     1      28.668   0.201  54.860  1.00  0.00     0.263 C 
HETATM   30  F2  UNL     1      29.416   1.369  54.732  1.00  0.00    -0.252 F 
ENDBRANCH  27  29
ENDBRANCH  26  27
ENDBRANCH  24  25
ENDBRANCH  21  23
ENDBRANCH  16  21
BRANCH   1  31
HETATM   31  O1  UNL     1      24.887   5.697  51.207  1.00  0.00    -0.362 OA
HETATM   32  H1  UNL     1      25.683   5.316  51.668  1.00  0.00     0.217 HD
ENDBRANCH   1  31
TORSDOF 6
ENDMDL
MODEL 6
REMARK VINA RESULT:      -7.5      4.525      8.004
REMARK  6 active torsions:
REMARK  status: ('A' for Active; 'I' for Inactive)
REMARK    1  A    between atoms: O1_1  and  C1_2 
REMARK    2  A    between atoms: C13_17  and  N3_18 
REMARK    3  A    between atoms: N3_18  and  C14_19 
REMARK    4  A    between atoms: C15_20  and  C16_21 
REMARK    5  A    between atoms: C17_22  and  C18_23 
REMARK    6  A    between atoms: C18_23  and  C19_25 
ROOT
HETATM    1  C1  UNL     1      19.705   1.304  51.430  1.00  0.00     0.079 C 
HETATM    2  C2  UNL     1      20.409   2.062  50.557  1.00  0.00     0.103 C 
HETATM    3  C3  UNL     1      21.623   2.925  50.741  1.00  0.00     0.339 C 
HETATM    4  N1  UNL     1      22.748   2.388  50.097  1.00  0.00     0.096 NA
HETATM    5  C4  UNL     1      24.057   2.715  50.402  1.00  0.00     0.274 C 
HETATM    6  C5  UNL     1      24.448   3.328  51.687  1.00  0.00     0.050 C 
HETATM    7  C6  UNL     1      24.236   2.639  52.959  1.00  0.00     0.119 C 
HETATM    8  N2  UNL     1      24.785   1.295  53.085  1.00  0.00    -0.403 N 
HETATM    9  C7  UNL     1      26.153   1.165  52.613  1.00  0.00     0.143 C 
HETATM   10  C8  UNL     1      26.526  -0.220  52.175  1.00  0.00     0.187 C 
HETATM   11  O2  UNL     1      25.982  -1.219  52.923  1.00  0.00    -0.387 OA
HETATM   12  C9  UNL     1      25.417  -0.705  54.075  1.00  0.00     0.193 C 
HETATM   13  C10 UNL     1      24.186   0.070  53.607  1.00  0.00     0.041 C 
HETATM   14  C11 UNL     1      22.846   0.179  53.448  1.00  0.00     0.113 C 
HETATM   15  C12 UNL     1      21.654  -0.678  53.748  1.00  0.00     0.006 C 
HETATM   16  C13 UNL     1      20.530  -0.025  53.355  1.00  0.00     0.011 C 
HETATM   17  C20 UNL     1      20.182   1.284  52.785  1.00  0.00     0.123 C 
HETATM   18  C21 UNL     1      22.476   2.453  48.661  1.00  0.00     0.299 C 
HETATM   19  C22 UNL     1      21.136   2.017  48.235  1.00  0.00     0.205 C 
HETATM   20  O3  UNL     1      20.082   2.163  49.188  1.00  0.00    -0.349 OA
ENDROOT
BRANCH  16  21
HETATM   21  N3  UNL     1      19.241  -0.661  53.536  1.00  0.00    -0.369 N 
HETATM   22  H18 UNL     1      18.467   0.060  53.415  1.00  0.00     0.165 HD
BRANCH  21  23
HETATM   23  C14 UNL     1      18.996  -2.028  53.831  1.00  0.00     0.088 C 
HETATM   24  C15 UNL     1      17.920  -2.769  53.630  1.00  0.00     0.017 C 
BRANCH  24  25
HETATM   25  C16 UNL     1      16.721  -2.225  53.019  1.00  0.00     0.000 C 
HETATM   26  C17 UNL     1      15.724  -3.004  52.600  1.00  0.00     0.012 C 
BRANCH  26  27
HETATM   27  C18 UNL     1      15.763  -4.482  52.727  1.00  0.00     0.221 C 
HETATM   28  F1  UNL     1      15.262  -5.045  51.573  1.00  0.00    -0.243 F 
BRANCH  27  29
HETATM   29  C19 UNL     1      14.920  -4.868  53.934  1.00  0.00     0.263 C 
HETATM   30  F2  UNL     1      15.766  -5.238  54.977  1.00  0.00    -0.252 F 
ENDBRANCH  27  29
ENDBRANCH  26  27
ENDBRANCH  24  25
ENDBRANCH  21  23
ENDBRANCH  16  21
BRANCH   1  31
HETATM   31  O1  UNL     1      18.608   0.602  51.002  1.00  0.00    -0.362 OA
HETATM   32  H1  UNL     1      18.623  -0.231  50.455  1.00  0.00     0.217 HD
ENDBRANCH   1  31
TORSDOF 6
ENDMDL
MODEL 7
REMARK VINA RESULT:      -7.3      7.755     10.563
REMARK  6 active torsions:
REMARK  status: ('A' for Active; 'I' for Inactive)
REMARK    1  A    between atoms: O1_1  and  C1_2 
REMARK    2  A    between atoms: C13_17  and  N3_18 
REMARK    3  A    between atoms: N3_18  and  C14_19 
REMARK    4  A    between atoms: C15_20  and  C16_21 
REMARK    5  A    between atoms: C17_22  and  C18_23 
REMARK    6  A    between atoms: C18_23  and  C19_25 
ROOT
HETATM    1  C1  UNL     1      29.799   6.322  48.285  1.00  0.00     0.079 C 
HETATM    2  C2  UNL     1      30.909   6.907  47.775  1.00  0.00     0.103 C 
HETATM    3  C3  UNL     1      31.088   7.941  46.704  1.00  0.00     0.339 C 
HETATM    4  N1  UNL     1      31.539   9.163  47.227  1.00  0.00     0.096 NA
HETATM    5  C4  UNL     1      31.417  10.383  46.587  1.00  0.00     0.274 C 
HETATM    6  C5  UNL     1      30.449  10.621  45.498  1.00  0.00     0.050 C 
HETATM    7  C6  UNL     1      29.009  10.496  45.714  1.00  0.00     0.119 C 
HETATM    8  N2  UNL     1      28.432  11.271  46.806  1.00  0.00    -0.403 N 
HETATM    9  C7  UNL     1      28.876  12.655  46.851  1.00  0.00     0.143 C 
HETATM   10  C8  UNL     1      28.806  13.281  48.212  1.00  0.00     0.187 C 
HETATM   11  O2  UNL     1      27.732  12.900  48.959  1.00  0.00    -0.387 OA
HETATM   12  C9  UNL     1      26.819  12.219  48.176  1.00  0.00     0.193 C 
HETATM   13  C10 UNL     1      27.487  10.884  47.849  1.00  0.00     0.041 C 
HETATM   14  C11 UNL     1      27.627   9.552  48.042  1.00  0.00     0.113 C 
HETATM   15  C12 UNL     1      26.999   8.522  48.932  1.00  0.00     0.006 C 
HETATM   16  C13 UNL     1      27.558   7.313  48.672  1.00  0.00     0.011 C 
HETATM   17  C20 UNL     1      28.543   6.754  47.735  1.00  0.00     0.123 C 
HETATM   18  C21 UNL     1      32.892   8.927  47.727  1.00  0.00     0.299 C 
HETATM   19  C22 UNL     1      33.087   7.699  48.516  1.00  0.00     0.205 C 
HETATM   20  O3  UNL     1      32.212   6.607  48.229  1.00  0.00    -0.349 OA
ENDROOT
BRANCH  16  21
HETATM   21  N3  UNL     1      27.116   6.152  49.418  1.00  0.00    -0.369 N 
HETATM   22  H18 UNL     1      27.893   5.831  50.071  1.00  0.00     0.165 HD
BRANCH  21  23
HETATM   23  C14 UNL     1      25.854   5.507  49.328  1.00  0.00     0.088 C 
HETATM   24  C15 UNL     1      25.521   4.243  49.523  1.00  0.00     0.017 C 
BRANCH  24  25
HETATM   25  C16 UNL     1      26.507   3.242  49.892  1.00  0.00     0.000 C 
HETATM   26  C17 UNL     1      26.382   2.499  50.991  1.00  0.00     0.012 C 
BRANCH  26  27
HETATM   27  C18 UNL     1      25.231   2.637  51.918  1.00  0.00     0.221 C 
HETATM   28  F1  UNL     1      25.701   2.692  53.213  1.00  0.00    -0.243 F 
BRANCH  27  29
HETATM   29  C19 UNL     1      24.324   1.431  51.717  1.00  0.00     0.263 C 
HETATM   30  F2  UNL     1      23.086   1.694  52.298  1.00  0.00    -0.252 F 
ENDBRANCH  27  29
ENDBRANCH  26  27
ENDBRANCH  24  25
ENDBRANCH  21  23
ENDBRANCH  16  21
BRANCH   1  31
HETATM   31  O1  UNL     1      29.910   5.381  49.275  1.00  0.00    -0.362 OA
HETATM   32  H1  UNL     1      29.732   5.528  50.244  1.00  0.00     0.217 HD
ENDBRANCH   1  31
TORSDOF 6
ENDMDL
MODEL 8
REMARK VINA RESULT:      -7.3      3.225      4.723
REMARK  6 active torsions:
REMARK  status: ('A' for Active; 'I' for Inactive)
REMARK    1  A    between atoms: O1_1  and  C1_2 
REMARK    2  A    between atoms: C13_17  and  N3_18 
REMARK    3  A    between atoms: N3_18  and  C14_19 
REMARK    4  A    between atoms: C15_20  and  C16_21 
REMARK    5  A    between atoms: C17_22  and  C18_23 
REMARK    6  A    between atoms: C18_23  and  C19_25 
ROOT
HETATM    1  C1  UNL     1      19.453   1.660  52.051  1.00  0.00     0.079 C 
HETATM    2  C2  UNL     1      18.736   2.370  51.149  1.00  0.00     0.103 C 
HETATM    3  C3  UNL     1      17.895   1.939  49.983  1.00  0.00     0.339 C 
HETATM    4  N1  UNL     1      16.531   2.177  50.206  1.00  0.00     0.096 NA
HETATM    5  C4  UNL     1      15.503   1.548  49.526  1.00  0.00     0.274 C 
HETATM    6  C5  UNL     1      15.687   0.276  48.801  1.00  0.00     0.050 C 
HETATM    7  C6  UNL     1      16.091  -0.947  49.492  1.00  0.00     0.119 C 
HETATM    8  N2  UNL     1      15.283  -1.363  50.632  1.00  0.00    -0.403 N 
HETATM    9  C7  UNL     1      13.850  -1.315  50.393  1.00  0.00     0.143 C 
HETATM   10  C8  UNL     1      13.023  -1.147  51.632  1.00  0.00     0.187 C 
HETATM   11  O2  UNL     1      13.495  -1.809  52.726  1.00  0.00    -0.387 OA
HETATM   12  C9  UNL     1      14.492  -2.693  52.359  1.00  0.00     0.193 C 
HETATM   13  C10 UNL     1      15.679  -1.817  51.962  1.00  0.00     0.041 C 
HETATM   14  C11 UNL     1      16.890  -1.273  52.227  1.00  0.00     0.113 C 
HETATM   15  C12 UNL     1      17.858  -1.308  53.370  1.00  0.00     0.006 C 
HETATM   16  C13 UNL     1      18.938  -0.547  53.059  1.00  0.00     0.011 C 
HETATM   17  C20 UNL     1      19.419   0.231  51.909  1.00  0.00     0.123 C 
HETATM   18  C21 UNL     1      16.364   3.630  50.251  1.00  0.00     0.299 C 
HETATM   19  C22 UNL     1      17.356   4.372  51.046  1.00  0.00     0.205 C 
HETATM   20  O3  UNL     1      18.649   3.779  51.173  1.00  0.00    -0.349 OA
ENDROOT
BRANCH  16  21
HETATM   21  N3  UNL     1      20.015  -0.419  54.019  1.00  0.00    -0.369 N 
HETATM   22  H18 UNL     1      19.883   0.471  54.587  1.00  0.00     0.165 HD
BRANCH  21  23
HETATM   23  C14 UNL     1      21.101  -1.314  54.210  1.00  0.00     0.088 C 
HETATM   24  C15 UNL     1      22.374  -1.204  53.871  1.00  0.00     0.017 C 
BRANCH  24  25
HETATM   25  C16 UNL     1      22.882  -0.029  53.185  1.00  0.00     0.000 C 
HETATM   26  C17 UNL     1      24.176   0.292  53.196  1.00  0.00     0.012 C 
BRANCH  26  27
HETATM   27  C18 UNL     1      25.191  -0.524  53.907  1.00  0.00     0.221 C 
HETATM   28  F1  UNL     1      25.854   0.275  54.815  1.00  0.00    -0.243 F 
BRANCH  27  29
HETATM   29  C19 UNL     1      26.153  -1.081  52.866  1.00  0.00     0.263 C 
HETATM   30  F2  UNL     1      26.350  -0.124  51.874  1.00  0.00    -0.252 F 
ENDBRANCH  27  29
ENDBRANCH  26  27
ENDBRANCH  24  25
ENDBRANCH  21  23
ENDBRANCH  16  21
BRANCH   1  31
HETATM   31  O1  UNL     1      20.154   2.308  53.036  1.00  0.00    -0.362 OA
HETATM   32  H1  UNL     1      20.256   3.294  53.128  1.00  0.00     0.217 HD
ENDBRANCH   1  31
TORSDOF 6
ENDMDL
MODEL 9
REMARK VINA RESULT:      -6.9      4.415      7.123
REMARK  6 active torsions:
REMARK  status: ('A' for Active; 'I' for Inactive)
REMARK    1  A    between atoms: O1_1  and  C1_2 
REMARK    2  A    between atoms: C13_17  and  N3_18 
REMARK    3  A    between atoms: N3_18  and  C14_19 
REMARK    4  A    between atoms: C15_20  and  C16_21 
REMARK    5  A    between atoms: C17_22  and  C18_23 
REMARK    6  A    between atoms: C18_23  and  C19_25 
ROOT
HETATM    1  C1  UNL     1      23.238   4.210  48.610  1.00  0.00     0.079 C 
HETATM    2  C2  UNL     1      22.662   5.118  47.787  1.00  0.00     0.103 C 
HETATM    3  C3  UNL     1      22.805   6.608  47.692  1.00  0.00     0.339 C 
HETATM    4  N1  UNL     1      23.457   6.997  46.513  1.00  0.00     0.096 NA
HETATM    5  C4  UNL     1      24.080   8.219  46.326  1.00  0.00     0.274 C 
HETATM    6  C5  UNL     1      24.498   9.081  47.449  1.00  0.00     0.050 C 
HETATM    7  C6  UNL     1      25.484   8.635  48.431  1.00  0.00     0.119 C 
HETATM    8  N2  UNL     1      26.765   8.164  47.918  1.00  0.00    -0.403 N 
HETATM    9  C7  UNL     1      27.351   9.025  46.905  1.00  0.00     0.143 C 
HETATM   10  C8  UNL     1      28.289   8.324  45.967  1.00  0.00     0.187 C 
HETATM   11  O2  UNL     1      29.055   7.357  46.546  1.00  0.00    -0.387 OA
HETATM   12  C9  UNL     1      28.966   7.433  47.923  1.00  0.00     0.193 C 
HETATM   13  C10 UNL     1      27.546   6.979  48.260  1.00  0.00     0.041 C 
HETATM   14  C11 UNL     1      26.679   6.043  48.712  1.00  0.00     0.113 C 
HETATM   15  C12 UNL     1      26.781   4.636  49.216  1.00  0.00     0.006 C 
HETATM   16  C13 UNL     1      25.539   4.190  49.535  1.00  0.00     0.011 C 
HETATM   17  C20 UNL     1      24.172   4.726  49.573  1.00  0.00     0.123 C 
HETATM   18  C21 UNL     1      22.563   6.652  45.409  1.00  0.00     0.299 C 
HETATM   19  C22 UNL     1      21.940   5.320  45.472  1.00  0.00     0.205 C 
HETATM   20  O3  UNL     1      21.746   4.764  46.774  1.00  0.00    -0.349 OA
ENDROOT
BRANCH  16  21
HETATM   21  N3  UNL     1      25.379   2.842  50.042  1.00  0.00    -0.369 N 
HETATM   22  H18 UNL     1      25.658   2.142  49.290  1.00  0.00     0.165 HD
BRANCH  21  23
HETATM   23  C14 UNL     1      24.926   2.461  51.333  1.00  0.00     0.088 C 
HETATM   24  C15 UNL     1      25.367   1.526  52.156  1.00  0.00     0.017 C 
BRANCH  24  25
HETATM   25  C16 UNL     1      26.491   0.673  51.811  1.00  0.00     0.000 C 
HETATM   26  C17 UNL     1      27.548   0.539  52.611  1.00  0.00     0.012 C 
BRANCH  26  27
HETATM   27  C18 UNL     1      27.657   1.248  53.911  1.00  0.00     0.221 C 
HETATM   28  F1  UNL     1      28.111   2.530  53.687  1.00  0.00    -0.243 F 
BRANCH  27  29
HETATM   29  C19 UNL     1      28.630   0.469  54.786  1.00  0.00     0.263 C 
HETATM   30  F2  UNL     1      29.490  -0.260  53.968  1.00  0.00    -0.252 F 
ENDBRANCH  27  29
ENDBRANCH  26  27
ENDBRANCH  24  25
ENDBRANCH  21  23
ENDBRANCH  16  21
BRANCH   1  31
HETATM   31  O1  UNL     1      22.927   2.880  48.493  1.00  0.00    -0.362 OA
HETATM   32  H1  UNL     1      22.446   2.458  47.730  1.00  0.00     0.217 HD
ENDBRANCH   1  31
TORSDOF 6
ENDMDL
