MODEL 1
REMARK VINA RESULT:      -6.8      0.000      0.000
REMARK  6 active torsions:
REMARK  status: ('A' for Active; 'I' for Inactive)
REMARK    1  A    between atoms: N1_2  and  C3_4 
REMARK    2  A    between atoms: C3_4  and  C4_5 
REMARK    3  A    between atoms: C5_6  and  C6_7 
REMARK       I    between atoms: C6_7  and  N2_9 
REMARK    4  A    between atoms: N2_9  and  C7_10 
REMARK    5  A    between atoms: C12_16  and  O2_17 
REMARK    6  A    between atoms: O2_17  and  C13_18 
ROOT
HETATM    1  C7  UNL     1      26.887   2.091  52.825  1.00  0.00     0.064 A 
HETATM    2  C8  UNL     1      28.118   2.214  53.280  1.00  0.00     0.007 A 
HETATM    3  C9  UNL     1      29.120   1.445  54.059  1.00  0.00     0.049 A 
HETATM    4  C10 UNL     1      28.526   0.124  54.424  1.00  0.00     0.086 A 
HETATM    5 BR1  UNL     1      29.659  -1.278  53.674  1.00  0.00    -0.087 Br
HETATM    6  C11 UNL     1      27.140  -0.007  53.909  1.00  0.00     0.028 A 
HETATM    7  C12 UNL     1      26.354   0.788  53.210  1.00  0.00     0.093 A 
ENDROOT
BRANCH   1   8
HETATM    8  N2  UNL     1      26.113   2.983  52.085  1.00  0.00    -0.321 N 
HETATM    9  C6  UNL     1      26.073   3.239  50.701  1.00  0.00     0.245 C 
HETATM   10  O1  UNL     1      26.845   2.580  49.963  1.00  0.00    -0.268 OA
HETATM   11  H11 UNL     1      25.442   3.570  52.627  1.00  0.00     0.169 HD
BRANCH   9  12
HETATM   12  C5  UNL     1      25.179   4.227  50.117  1.00  0.00     0.072 C 
HETATM   13  C4  UNL     1      25.587   5.201  49.332  1.00  0.00     0.008 C 
BRANCH  13  14
HETATM   14  C3  UNL     1      26.849   5.701  48.757  1.00  0.00     0.299 C 
BRANCH  14  15
HETATM   15  N1  UNL     1      26.793   7.138  48.554  1.00  0.00     0.083 N 
HETATM   16  C1  UNL     1      26.407   7.820  49.793  1.00  0.00     0.309 C 
HETATM   17  C2  UNL     1      28.170   7.571  48.293  1.00  0.00     0.309 C 
ENDBRANCH  14  15
ENDBRANCH  13  14
ENDBRANCH   9  12
ENDBRANCH   1   8
BRANCH   7  18
HETATM   18  O2  UNL     1      25.079   0.356  52.880  1.00  0.00    -0.342 OA
BRANCH  18  19
HETATM   19  C13 UNL     1      23.907   0.623  53.583  1.00  0.00     0.154 C 
HETATM   20  C14 UNL     1      22.875   1.350  52.713  1.00  0.00     0.061 C 
HETATM   21  C15 UNL     1      22.233   0.190  52.003  1.00  0.00     0.170 C 
HETATM   22  O3  UNL     1      22.437  -0.951  52.720  1.00  0.00    -0.389 OA
HETATM   23  C16 UNL     1      23.148  -0.660  53.857  1.00  0.00     0.200 C 
ENDBRANCH  18  19
ENDBRANCH   7  18
TORSDOF 6
ENDMDL
MODEL 2
REMARK VINA RESULT:      -6.8      1.887      3.007
REMARK  6 active torsions:
REMARK  status: ('A' for Active; 'I' for Inactive)
REMARK    1  A    between atoms: N1_2  and  C3_4 
REMARK    2  A    between atoms: C3_4  and  C4_5 
REMARK    3  A    between atoms: C5_6  and  C6_7 
REMARK       I    between atoms: C6_7  and  N2_9 
REMARK    4  A    between atoms: N2_9  and  C7_10 
REMARK    5  A    between atoms: C12_16  and  O2_17 
REMARK    6  A    between atoms: O2_17  and  C13_18 
ROOT
HETATM    1  C7  UNL     1      26.689   2.091  52.711  1.00  0.00     0.064 A 
HETATM    2  C8  UNL     1      27.935   2.213  53.120  1.00  0.00     0.007 A 
HETATM    3  C9  UNL     1      28.964   1.444  53.864  1.00  0.00     0.049 A 
HETATM    4  C10 UNL     1      28.381   0.125  54.254  1.00  0.00     0.086 A 
HETATM    5 BR1  UNL     1      29.484  -1.281  53.466  1.00  0.00    -0.087 Br
HETATM    6  C11 UNL     1      26.978  -0.005  53.789  1.00  0.00     0.028 A 
HETATM    7  C12 UNL     1      26.167   0.790  53.118  1.00  0.00     0.093 A 
ENDROOT
BRANCH   1   8
HETATM    8  N2  UNL     1      25.890   2.983  51.997  1.00  0.00    -0.321 N 
HETATM    9  C6  UNL     1      25.909   3.353  50.639  1.00  0.00     0.245 C 
HETATM   10  O1  UNL     1      26.772   2.820  49.900  1.00  0.00    -0.268 OA
HETATM   11  H11 UNL     1      25.143   3.469  52.541  1.00  0.00     0.169 HD
BRANCH   9  12
HETATM   12  C5  UNL     1      24.974   4.318  50.081  1.00  0.00     0.072 C 
HETATM   13  C4  UNL     1      23.973   3.986  49.293  1.00  0.00     0.008 C 
BRANCH  13  14
HETATM   14  C3  UNL     1      23.395   2.769  48.694  1.00  0.00     0.299 C 
BRANCH  14  15
HETATM   15  N1  UNL     1      22.264   2.296  49.472  1.00  0.00     0.083 N 
HETATM   16  C1  UNL     1      21.312   3.385  49.714  1.00  0.00     0.309 C 
HETATM   17  C2  UNL     1      21.546   1.344  48.618  1.00  0.00     0.309 C 
ENDBRANCH  14  15
ENDBRANCH  13  14
ENDBRANCH   9  12
ENDBRANCH   1   8
BRANCH   7  18
HETATM   18  O2  UNL     1      24.881   0.360  52.835  1.00  0.00    -0.342 OA
BRANCH  18  19
HETATM   19  C13 UNL     1      23.751   0.554  53.626  1.00  0.00     0.154 C 
HETATM   20  C14 UNL     1      22.598   1.174  52.827  1.00  0.00     0.061 C 
HETATM   21  C15 UNL     1      21.997  -0.051  52.196  1.00  0.00     0.170 C 
HETATM   22  O3  UNL     1      22.347  -1.153  52.918  1.00  0.00    -0.389 OA
HETATM   23  C16 UNL     1      23.121  -0.777  53.987  1.00  0.00     0.200 C 
ENDBRANCH  18  19
ENDBRANCH   7  18
TORSDOF 6
ENDMDL
MODEL 3
REMARK VINA RESULT:      -6.7      3.469      6.278
REMARK  6 active torsions:
REMARK  status: ('A' for Active; 'I' for Inactive)
REMARK    1  A    between atoms: N1_2  and  C3_4 
REMARK    2  A    between atoms: C3_4  and  C4_5 
REMARK    3  A    between atoms: C5_6  and  C6_7 
REMARK       I    between atoms: C6_7  and  N2_9 
REMARK    4  A    between atoms: N2_9  and  C7_10 
REMARK    5  A    between atoms: C12_16  and  O2_17 
REMARK    6  A    between atoms: O2_17  and  C13_18 
ROOT
HETATM    1  C7  UNL     1      24.819  -0.333  53.216  1.00  0.00     0.064 A 
HETATM    2  C8  UNL     1      25.876  -1.119  53.194  1.00  0.00     0.007 A 
HETATM    3  C9  UNL     1      27.351  -1.032  53.042  1.00  0.00     0.049 A 
HETATM    4  C10 UNL     1      27.725   0.403  52.864  1.00  0.00     0.086 A 
HETATM    5 BR1  UNL     1      28.951   0.892  54.303  1.00  0.00    -0.087 Br
HETATM    6  C11 UNL     1      26.529   1.282  52.889  1.00  0.00     0.028 A 
HETATM    7  C12 UNL     1      25.239   1.054  53.037  1.00  0.00     0.093 A 
ENDROOT
BRANCH   1   8
HETATM    8  N2  UNL     1      23.471  -0.650  53.379  1.00  0.00    -0.321 N 
HETATM    9  C6  UNL     1      22.758  -1.085  54.512  1.00  0.00     0.245 C 
HETATM   10  O1  UNL     1      23.395  -1.229  55.584  1.00  0.00    -0.268 OA
HETATM   11  H11 UNL     1      22.870  -0.555  52.531  1.00  0.00     0.169 HD
BRANCH   9  12
HETATM   12  C5  UNL     1      21.331  -1.367  54.473  1.00  0.00     0.072 C 
HETATM   13  C4  UNL     1      20.436  -0.519  54.011  1.00  0.00     0.008 C 
BRANCH  13  14
HETATM   14  C3  UNL     1      20.395   0.834  53.428  1.00  0.00     0.299 C 
BRANCH  14  15
HETATM   15  N1  UNL     1      19.644   0.840  52.185  1.00  0.00     0.083 N 
HETATM   16  C1  UNL     1      20.504   0.457  51.060  1.00  0.00     0.309 C 
HETATM   17  C2  UNL     1      18.656  -0.238  52.294  1.00  0.00     0.309 C 
ENDBRANCH  14  15
ENDBRANCH  13  14
ENDBRANCH   9  12
ENDBRANCH   1   8
BRANCH   7  18
HETATM   18  O2  UNL     1      24.357   2.122  53.014  1.00  0.00    -0.342 OA
BRANCH  18  19
HETATM   19  C13 UNL     1      23.491   2.458  51.976  1.00  0.00     0.154 C 
HETATM   20  C14 UNL     1      22.632   3.679  52.325  1.00  0.00     0.061 C 
HETATM   21  C15 UNL     1      23.568   4.799  51.963  1.00  0.00     0.170 C 
HETATM   22  O3  UNL     1      24.499   4.345  51.077  1.00  0.00    -0.389 OA
HETATM   23  C16 UNL     1      24.266   3.022  50.801  1.00  0.00     0.200 C 
ENDBRANCH  18  19
ENDBRANCH   7  18
TORSDOF 6
ENDMDL
MODEL 4
REMARK VINA RESULT:      -6.7      2.642      4.589
REMARK  6 active torsions:
REMARK  status: ('A' for Active; 'I' for Inactive)
REMARK    1  A    between atoms: N1_2  and  C3_4 
REMARK    2  A    between atoms: C3_4  and  C4_5 
REMARK    3  A    between atoms: C5_6  and  C6_7 
REMARK       I    between atoms: C6_7  and  N2_9 
REMARK    4  A    between atoms: N2_9  and  C7_10 
REMARK    5  A    between atoms: C12_16  and  O2_17 
REMARK    6  A    between atoms: O2_17  and  C13_18 
ROOT
HETATM    1  C7  UNL     1      24.058   1.622  51.828  1.00  0.00     0.064 A 
HETATM    2  C8  UNL     1      22.760   1.402  51.793  1.00  0.00     0.007 A 
HETATM    3  C9  UNL     1      21.767   0.400  52.256  1.00  0.00     0.049 A 
HETATM    4  C10 UNL     1      22.490  -0.679  52.992  1.00  0.00     0.086 A 
HETATM    5 BR1  UNL     1      21.776  -0.758  54.808  1.00  0.00    -0.087 Br
HETATM    6  C11 UNL     1      23.952  -0.425  53.028  1.00  0.00     0.028 A 
HETATM    7  C12 UNL     1      24.716   0.540  52.554  1.00  0.00     0.093 A 
ENDROOT
BRANCH   1   8
HETATM    8  N2  UNL     1      24.802   2.677  51.300  1.00  0.00    -0.321 N 
HETATM    9  C6  UNL     1      24.737   3.312  50.046  1.00  0.00     0.245 C 
HETATM   10  O1  UNL     1      23.883   2.899  49.225  1.00  0.00    -0.268 OA
HETATM   11  H11 UNL     1      25.536   3.079  51.924  1.00  0.00     0.169 HD
BRANCH   9  12
HETATM   12  C5  UNL     1      25.618   4.413  49.685  1.00  0.00     0.072 C 
HETATM   13  C4  UNL     1      25.421   5.657  50.070  1.00  0.00     0.008 C 
BRANCH  13  14
HETATM   14  C3  UNL     1      24.451   6.424  50.872  1.00  0.00     0.299 C 
BRANCH  14  15
HETATM   15  N1  UNL     1      23.156   6.467  50.218  1.00  0.00     0.083 N 
HETATM   16  C1  UNL     1      22.131   5.839  51.059  1.00  0.00     0.309 C 
HETATM   17  C2  UNL     1      22.776   7.882  50.147  1.00  0.00     0.309 C 
ENDBRANCH  14  15
ENDBRANCH  13  14
ENDBRANCH   9  12
ENDBRANCH   1   8
BRANCH   7  18
HETATM   18  O2  UNL     1      26.085   0.483  52.764  1.00  0.00    -0.342 OA
BRANCH  18  19
HETATM   19  C13 UNL     1      26.755  -0.396  53.611  1.00  0.00     0.154 C 
HETATM   20  C14 UNL     1      28.201  -0.629  53.157  1.00  0.00     0.061 C 
HETATM   21  C15 UNL     1      28.889   0.556  53.775  1.00  0.00     0.170 C 
HETATM   22  O3  UNL     1      28.140   1.027  54.812  1.00  0.00    -0.389 OA
HETATM   23  C16 UNL     1      27.015   0.256  54.955  1.00  0.00     0.200 C 
ENDBRANCH  18  19
ENDBRANCH   7  18
TORSDOF 6
ENDMDL
MODEL 5
REMARK VINA RESULT:      -6.7      3.263      6.090
REMARK  6 active torsions:
REMARK  status: ('A' for Active; 'I' for Inactive)
REMARK    1  A    between atoms: N1_2  and  C3_4 
REMARK    2  A    between atoms: C3_4  and  C4_5 
REMARK    3  A    between atoms: C5_6  and  C6_7 
REMARK       I    between atoms: C6_7  and  N2_9 
REMARK    4  A    between atoms: N2_9  and  C7_10 
REMARK    5  A    between atoms: C12_16  and  O2_17 
REMARK    6  A    between atoms: O2_17  and  C13_18 
ROOT
HETATM    1  C7  UNL     1      25.169   3.054  50.808  1.00  0.00     0.064 A 
HETATM    2  C8  UNL     1      26.160   3.520  50.076  1.00  0.00     0.007 A 
HETATM    3  C9  UNL     1      26.484   4.687  49.217  1.00  0.00     0.049 A 
HETATM    4  C10 UNL     1      25.306   5.605  49.200  1.00  0.00     0.086 A 
HETATM    5 BR1  UNL     1      25.881   7.342  49.881  1.00  0.00    -0.087 Br
HETATM    6  C11 UNL     1      24.193   5.074  50.027  1.00  0.00     0.028 A 
HETATM    7  C12 UNL     1      24.045   3.985  50.755  1.00  0.00     0.093 A 
ENDROOT
BRANCH   1   8
HETATM    8  N2  UNL     1      25.084   1.882  51.559  1.00  0.00    -0.321 N 
HETATM    9  C6  UNL     1      25.092   1.679  52.951  1.00  0.00     0.245 C 
HETATM   10  O1  UNL     1      25.191   2.689  53.689  1.00  0.00    -0.268 OA
HETATM   11  H11 UNL     1      24.998   0.994  51.018  1.00  0.00     0.169 HD
BRANCH   9  12
HETATM   12  C5  UNL     1      24.992   0.354  53.546  1.00  0.00     0.072 C 
HETATM   13  C4  UNL     1      25.942  -0.186  54.280  1.00  0.00     0.008 C 
BRANCH  13  14
HETATM   14  C3  UNL     1      27.285   0.162  54.777  1.00  0.00     0.299 C 
BRANCH  14  15
HETATM   15  N1  UNL     1      28.212   0.352  53.676  1.00  0.00     0.083 N 
HETATM   16  C1  UNL     1      28.745   1.719  53.680  1.00  0.00     0.309 C 
HETATM   17  C2  UNL     1      29.367  -0.507  53.956  1.00  0.00     0.309 C 
ENDBRANCH  14  15
ENDBRANCH  13  14
ENDBRANCH   9  12
ENDBRANCH   1   8
BRANCH   7  18
HETATM   18  O2  UNL     1      22.849   3.777  51.425  1.00  0.00    -0.342 OA
BRANCH  18  19
HETATM   19  C13 UNL     1      21.678   3.255  50.883  1.00  0.00     0.154 C 
HETATM   20  C14 UNL     1      21.456   1.798  51.307  1.00  0.00     0.061 C 
HETATM   21  C15 UNL     1      20.802   1.987  52.647  1.00  0.00     0.170 C 
HETATM   22  O3  UNL     1      20.250   3.231  52.712  1.00  0.00    -0.389 OA
HETATM   23  C16 UNL     1      20.464   3.893  51.530  1.00  0.00     0.200 C 
ENDBRANCH  18  19
ENDBRANCH   7  18
TORSDOF 6
ENDMDL
MODEL 6
REMARK VINA RESULT:      -6.7      2.543      4.448
REMARK  6 active torsions:
REMARK  status: ('A' for Active; 'I' for Inactive)
REMARK    1  A    between atoms: N1_2  and  C3_4 
REMARK    2  A    between atoms: C3_4  and  C4_5 
REMARK    3  A    between atoms: C5_6  and  C6_7 
REMARK       I    between atoms: C6_7  and  N2_9 
REMARK    4  A    between atoms: N2_9  and  C7_10 
REMARK    5  A    between atoms: C12_16  and  O2_17 
REMARK    6  A    between atoms: O2_17  and  C13_18 
ROOT
HETATM    1  C7  UNL     1      24.043   1.740  51.899  1.00  0.00     0.064 A 
HETATM    2  C8  UNL     1      22.839   1.263  51.657  1.00  0.00     0.007 A 
HETATM    3  C9  UNL     1      21.960   0.140  52.070  1.00  0.00     0.049 A 
HETATM    4  C10 UNL     1      22.689  -0.687  53.077  1.00  0.00     0.086 A 
HETATM    5 BR1  UNL     1      21.635  -0.709  54.721  1.00  0.00    -0.087 Br
HETATM    6  C11 UNL     1      24.044  -0.144  53.345  1.00  0.00     0.028 A 
HETATM    7  C12 UNL     1      24.712   0.897  52.885  1.00  0.00     0.093 A 
ENDROOT
BRANCH   1   8
HETATM    8  N2  UNL     1      24.687   2.858  51.370  1.00  0.00    -0.321 N 
HETATM    9  C6  UNL     1      24.597   3.456  50.099  1.00  0.00     0.245 C 
HETATM   10  O1  UNL     1      23.821   2.936  49.262  1.00  0.00    -0.268 OA
HETATM   11  H11 UNL     1      25.351   3.350  52.006  1.00  0.00     0.169 HD
BRANCH   9  12
HETATM   12  C5  UNL     1      25.366   4.638  49.739  1.00  0.00     0.072 C 
HETATM   13  C4  UNL     1      25.121   5.838  50.222  1.00  0.00     0.008 C 
BRANCH  13  14
HETATM   14  C3  UNL     1      24.178   6.482  51.154  1.00  0.00     0.299 C 
BRANCH  14  15
HETATM   15  N1  UNL     1      23.985   7.880  50.813  1.00  0.00     0.083 N 
HETATM   16  C1  UNL     1      25.147   8.399  50.084  1.00  0.00     0.309 C 
HETATM   17  C2  UNL     1      22.881   7.921  49.848  1.00  0.00     0.309 C 
ENDBRANCH  14  15
ENDBRANCH  13  14
ENDBRANCH   9  12
ENDBRANCH   1   8
BRANCH   7  18
HETATM   18  O2  UNL     1      25.995   1.136  53.351  1.00  0.00    -0.342 OA
BRANCH  18  19
HETATM   19  C13 UNL     1      27.183   0.738  52.744  1.00  0.00     0.154 C 
HETATM   20  C14 UNL     1      28.399   1.441  53.359  1.00  0.00     0.061 C 
HETATM   21  C15 UNL     1      28.665   0.562  54.550  1.00  0.00     0.170 C 
HETATM   22  O3  UNL     1      28.113  -0.666  54.340  1.00  0.00    -0.389 OA
HETATM   23  C16 UNL     1      27.510  -0.697  53.108  1.00  0.00     0.200 C 
ENDBRANCH  18  19
ENDBRANCH   7  18
TORSDOF 6
ENDMDL
MODEL 7
REMARK VINA RESULT:      -6.6      3.870      6.385
REMARK  6 active torsions:
REMARK  status: ('A' for Active; 'I' for Inactive)
REMARK    1  A    between atoms: N1_2  and  C3_4 
REMARK    2  A    between atoms: C3_4  and  C4_5 
REMARK    3  A    between atoms: C5_6  and  C6_7 
REMARK       I    between atoms: C6_7  and  N2_9 
REMARK    4  A    between atoms: N2_9  and  C7_10 
REMARK    5  A    between atoms: C12_16  and  O2_17 
REMARK    6  A    between atoms: O2_17  and  C13_18 
ROOT
HETATM    1  C7  UNL     1      22.940   0.814  52.847  1.00  0.00     0.064 A 
HETATM    2  C8  UNL     1      22.671  -0.158  53.695  1.00  0.00     0.007 A 
HETATM    3  C9  UNL     1      21.523  -0.718  54.450  1.00  0.00     0.049 A 
HETATM    4  C10 UNL     1      20.306   0.085  54.127  1.00  0.00     0.086 A 
HETATM    5 BR1  UNL     1      18.971  -1.119  53.363  1.00  0.00    -0.087 Br
HETATM    6  C11 UNL     1      20.615   1.178  53.172  1.00  0.00     0.028 A 
HETATM    7  C12 UNL     1      21.721   1.567  52.567  1.00  0.00     0.093 A 
ENDROOT
BRANCH   1   8
HETATM    8  N2  UNL     1      24.146   1.168  52.243  1.00  0.00    -0.321 N 
HETATM    9  C6  UNL     1      25.076   2.174  52.563  1.00  0.00     0.245 C 
HETATM   10  O1  UNL     1      24.828   2.906  53.551  1.00  0.00    -0.268 OA
HETATM   11  H11 UNL     1      24.426   0.603  51.410  1.00  0.00     0.169 HD
BRANCH   9  12
HETATM   12  C5  UNL     1      26.293   2.383  51.794  1.00  0.00     0.072 C 
HETATM   13  C4  UNL     1      27.501   2.180  52.277  1.00  0.00     0.008 C 
BRANCH  13  14
HETATM   14  C3  UNL     1      28.127   1.743  53.538  1.00  0.00     0.299 C 
BRANCH  14  15
HETATM   15  N1  UNL     1      27.947   0.316  53.738  1.00  0.00     0.083 N 
HETATM   16  C1  UNL     1      29.202  -0.307  54.174  1.00  0.00     0.309 C 
HETATM   17  C2  UNL     1      27.033   0.170  54.876  1.00  0.00     0.309 C 
ENDBRANCH  14  15
ENDBRANCH  13  14
ENDBRANCH   9  12
ENDBRANCH   1   8
BRANCH   7  18
HETATM   18  O2  UNL     1      21.674   2.655  51.710  1.00  0.00    -0.342 OA
BRANCH  18  19
HETATM   19  C13 UNL     1      21.235   3.938  52.024  1.00  0.00     0.154 C 
HETATM   20  C14 UNL     1      22.400   4.860  52.405  1.00  0.00     0.061 C 
HETATM   21  C15 UNL     1      22.866   5.307  51.047  1.00  0.00     0.170 C 
HETATM   22  O3  UNL     1      21.855   5.152  50.145  1.00  0.00    -0.389 OA
HETATM   23  C16 UNL     1      20.746   4.651  50.779  1.00  0.00     0.200 C 
ENDBRANCH  18  19
ENDBRANCH   7  18
TORSDOF 6
ENDMDL
MODEL 8
REMARK VINA RESULT:      -6.1      4.066      6.385
REMARK  6 active torsions:
REMARK  status: ('A' for Active; 'I' for Inactive)
REMARK    1  A    between atoms: N1_2  and  C3_4 
REMARK    2  A    between atoms: C3_4  and  C4_5 
REMARK    3  A    between atoms: C5_6  and  C6_7 
REMARK       I    between atoms: C6_7  and  N2_9 
REMARK    4  A    between atoms: N2_9  and  C7_10 
REMARK    5  A    between atoms: C12_16  and  O2_17 
REMARK    6  A    between atoms: O2_17  and  C13_18 
ROOT
HETATM    1  C7  UNL     1      23.148   2.295  50.788  1.00  0.00     0.064 A 
HETATM    2  C8  UNL     1      23.355   2.591  49.522  1.00  0.00     0.007 A 
HETATM    3  C9  UNL     1      22.691   2.449  48.201  1.00  0.00     0.049 A 
HETATM    4  C10 UNL     1      21.383   1.756  48.400  1.00  0.00     0.086 A 
HETATM    5 BR1  UNL     1      19.969   2.936  47.749  1.00  0.00    -0.087 Br
HETATM    6  C11 UNL     1      21.156   1.426  49.829  1.00  0.00     0.028 A 
HETATM    7  C12 UNL     1      21.861   1.620  50.927  1.00  0.00     0.093 A 
ENDROOT
BRANCH   1   8
HETATM    8  N2  UNL     1      23.946   2.536  51.906  1.00  0.00    -0.321 N 
HETATM    9  C6  UNL     1      24.958   1.758  52.499  1.00  0.00     0.245 C 
HETATM   10  O1  UNL     1      25.230   0.652  51.972  1.00  0.00    -0.268 OA
HETATM   11  H11 UNL     1      23.782   3.439  52.403  1.00  0.00     0.169 HD
BRANCH   9  12
HETATM   12  C5  UNL     1      25.684   2.196  53.682  1.00  0.00     0.072 C 
HETATM   13  C4  UNL     1      26.550   1.439  54.323  1.00  0.00     0.008 C 
BRANCH  13  14
HETATM   14  C3  UNL     1      27.117   0.082  54.223  1.00  0.00     0.299 C 
BRANCH  14  15
HETATM   15  N1  UNL     1      28.264   0.065  53.332  1.00  0.00     0.083 N 
HETATM   16  C1  UNL     1      29.382   0.816  53.914  1.00  0.00     0.309 C 
HETATM   17  C2  UNL     1      28.725  -1.326  53.281  1.00  0.00     0.309 C 
ENDBRANCH  14  15
ENDBRANCH  13  14
ENDBRANCH   9  12
ENDBRANCH   1   8
BRANCH   7  18
HETATM   18  O2  UNL     1      21.355   1.181  52.140  1.00  0.00    -0.342 OA
BRANCH  18  19
HETATM   19  C13 UNL     1      21.056  -0.135  52.484  1.00  0.00     0.154 C 
HETATM   20  C14 UNL     1      22.292  -0.883  52.997  1.00  0.00     0.061 C 
HETATM   21  C15 UNL     1      22.301  -0.463  54.441  1.00  0.00     0.170 C 
HETATM   22  O3  UNL     1      21.052  -0.055  54.803  1.00  0.00    -0.389 OA
HETATM   23  C16 UNL     1      20.200  -0.174  53.735  1.00  0.00     0.200 C 
ENDBRANCH  18  19
ENDBRANCH   7  18
TORSDOF 6
ENDMDL
MODEL 9
REMARK VINA RESULT:      -6.1      3.475      6.828
REMARK  6 active torsions:
REMARK  status: ('A' for Active; 'I' for Inactive)
REMARK    1  A    between atoms: N1_2  and  C3_4 
REMARK    2  A    between atoms: C3_4  and  C4_5 
REMARK    3  A    between atoms: C5_6  and  C6_7 
REMARK       I    between atoms: C6_7  and  N2_9 
REMARK    4  A    between atoms: N2_9  and  C7_10 
REMARK    5  A    between atoms: C12_16  and  O2_17 
REMARK    6  A    between atoms: O2_17  and  C13_18 
ROOT
HETATM    1  C7  UNL     1      25.455   2.942  50.524  1.00  0.00     0.064 A 
HETATM    2  C8  UNL     1      26.525   3.462  49.960  1.00  0.00     0.007 A 
HETATM    3  C9  UNL     1      26.915   4.633  49.134  1.00  0.00     0.049 A 
HETATM    4  C10 UNL     1      25.700   5.463  48.883  1.00  0.00     0.086 A 
HETATM    5 BR1  UNL     1      26.029   7.251  49.598  1.00  0.00    -0.087 Br
HETATM    6  C11 UNL     1      24.498   4.871  49.522  1.00  0.00     0.028 A 
HETATM    7  C12 UNL     1      24.298   3.788  50.248  1.00  0.00     0.093 A 
ENDROOT
BRANCH   1   8
HETATM    8  N2  UNL     1      25.318   1.782  51.286  1.00  0.00    -0.321 N 
HETATM    9  C6  UNL     1      25.201   1.603  52.677  1.00  0.00     0.245 C 
HETATM   10  O1  UNL     1      25.216   2.628  53.401  1.00  0.00    -0.268 OA
HETATM   11  H11 UNL     1      25.296   0.883  50.756  1.00  0.00     0.169 HD
BRANCH   9  12
HETATM   12  C5  UNL     1      25.066   0.287  53.284  1.00  0.00     0.072 C 
HETATM   13  C4  UNL     1      23.905  -0.275  53.548  1.00  0.00     0.008 C 
BRANCH  13  14
HETATM   14  C3  UNL     1      22.471   0.036  53.409  1.00  0.00     0.299 C 
BRANCH  14  15
HETATM   15  N1  UNL     1      21.718  -0.476  54.540  1.00  0.00     0.083 N 
HETATM   16  C1  UNL     1      20.557  -1.247  54.081  1.00  0.00     0.309 C 
HETATM   17  C2  UNL     1      22.586  -1.453  55.206  1.00  0.00     0.309 C 
ENDBRANCH  14  15
ENDBRANCH  13  14
ENDBRANCH   9  12
ENDBRANCH   1   8
BRANCH   7  18
HETATM   18  O2  UNL     1      23.020   3.509  50.706  1.00  0.00    -0.342 OA
BRANCH  18  19
HETATM   19  C13 UNL     1      22.366   4.135  51.765  1.00  0.00     0.154 C 
HETATM   20  C14 UNL     1      21.624   5.396  51.308  1.00  0.00     0.061 C 
HETATM   21  C15 UNL     1      20.336   4.804  50.807  1.00  0.00     0.170 C 
HETATM   22  O3  UNL     1      20.146   3.581  51.377  1.00  0.00    -0.389 OA
HETATM   23  C16 UNL     1      21.186   3.301  52.226  1.00  0.00     0.200 C 
ENDBRANCH  18  19
ENDBRANCH   7  18
TORSDOF 6
ENDMDL
