MODEL 1
REMARK VINA RESULT:      -8.6      0.000      0.000
REMARK  8 active torsions:
REMARK  status: ('A' for Active; 'I' for Inactive)
REMARK    1  A    between atoms: O1_1  and  C1_2 
REMARK    2  A    between atoms: C6_8  and  C7_9 
REMARK    3  A    between atoms: C7_9  and  N1_10 
REMARK    4  A    between atoms: N1_10  and  C8_11 
REMARK    5  A    between atoms: N1_10  and  C15_19 
REMARK    6  A    between atoms: C8_11  and  C9_12 
REMARK    7  A    between atoms: C15_19  and  N2_21 
REMARK    8  A    between atoms: N2_21  and  C16_22 
ROOT
HETATM    1  N1  UNL     1      24.339   2.218  52.542  1.00  0.00    -0.349 N 
ENDROOT
BRANCH   1   2
HETATM    2  C7  UNL     1      24.042   0.887  52.134  1.00  0.00     0.167 C 
BRANCH   2   3
HETATM    3  C6  UNL     1      23.015   0.182  52.895  1.00  0.00    -0.005 A 
HETATM    4  C1  UNL     1      21.712   0.209  52.448  1.00  0.00     0.095 A 
HETATM    5  C2  UNL     1      20.602  -0.370  52.993  1.00  0.00     0.067 A 
HETATM    6 CL1  UNL     1      19.004  -0.240  52.302  1.00  0.00    -0.081 Cl
HETATM    7  C3  UNL     1      20.856  -1.085  54.169  1.00  0.00     0.026 A 
HETATM    8  C4  UNL     1      22.136  -1.188  54.725  1.00  0.00     0.002 A 
HETATM    9  C5  UNL     1      23.174  -0.542  54.056  1.00  0.00     0.012 A 
BRANCH   4  10
HETATM   10  O1  UNL     1      21.447   0.929  51.262  1.00  0.00    -0.358 OA
HETATM   11  H1  UNL     1      22.005   1.784  51.179  1.00  0.00     0.217 HD
ENDBRANCH   4  10
ENDBRANCH   2   3
ENDBRANCH   1   2
BRANCH   1  12
HETATM   12  C8  UNL     1      25.070   2.537  53.728  1.00  0.00     0.164 C 
BRANCH  12  13
HETATM   13  C9  UNL     1      26.339   1.748  53.870  1.00  0.00    -0.040 A 
HETATM   14  C10 UNL     1      26.536   0.633  54.656  1.00  0.00     0.012 A 
HETATM   15  C11 UNL     1      27.774   0.025  54.678  1.00  0.00     0.043 A 
HETATM   16  C12 UNL     1      28.858   0.476  53.941  1.00  0.00     0.116 A 
HETATM   17  F1  UNL     1      30.046  -0.182  54.020  1.00  0.00    -0.206 F 
HETATM   18  C13 UNL     1      28.687   1.577  53.156  1.00  0.00     0.043 A 
HETATM   19  C14 UNL     1      27.434   2.199  53.128  1.00  0.00     0.012 A 
ENDBRANCH  12  13
ENDBRANCH   1  12
BRANCH   1  20
HETATM   20  C15 UNL     1      23.896   3.307  51.745  1.00  0.00     0.174 C 
HETATM   21  S1  UNL     1      22.873   4.474  52.284  1.00  0.00    -0.041 SA
BRANCH  20  22
HETATM   22  N2  UNL     1      24.236   3.576  50.395  1.00  0.00    -0.333 N 
HETATM   23  H13 UNL     1      23.754   3.147  49.547  1.00  0.00     0.168 HD
BRANCH  22  24
HETATM   24  C16 UNL     1      25.203   4.392  49.746  1.00  0.00     0.034 A 
HETATM   25  C17 UNL     1      25.012   5.717  49.324  1.00  0.00     0.029 A 
HETATM   26  C18 UNL     1      26.052   6.377  48.705  1.00  0.00     0.002 A 
HETATM   27  C19 UNL     1      27.237   5.702  48.528  1.00  0.00     0.000 A 
HETATM   28  C20 UNL     1      27.442   4.409  48.934  1.00  0.00     0.002 A 
HETATM   29  C21 UNL     1      26.417   3.728  49.555  1.00  0.00     0.029 A 
ENDBRANCH  22  24
ENDBRANCH  20  22
ENDBRANCH   1  20
TORSDOF 8
ENDMDL
MODEL 2
REMARK VINA RESULT:      -8.4      3.268      6.654
REMARK  8 active torsions:
REMARK  status: ('A' for Active; 'I' for Inactive)
REMARK    1  A    between atoms: O1_1  and  C1_2 
REMARK    2  A    between atoms: C6_8  and  C7_9 
REMARK    3  A    between atoms: C7_9  and  N1_10 
REMARK    4  A    between atoms: N1_10  and  C8_11 
REMARK    5  A    between atoms: N1_10  and  C15_19 
REMARK    6  A    between atoms: C8_11  and  C9_12 
REMARK    7  A    between atoms: C15_19  and  N2_21 
REMARK    8  A    between atoms: N2_21  and  C16_22 
ROOT
HETATM    1  N1  UNL     1      24.000   2.706  51.792  1.00  0.00    -0.349 N 
ENDROOT
BRANCH   1   2
HETATM    2  C7  UNL     1      24.931   2.623  52.864  1.00  0.00     0.167 C 
BRANCH   2   3
HETATM    3  C6  UNL     1      25.824   1.469  52.870  1.00  0.00    -0.005 A 
HETATM    4  C1  UNL     1      27.079   1.593  53.424  1.00  0.00     0.095 A 
HETATM    5  C2  UNL     1      28.068   0.658  53.534  1.00  0.00     0.067 A 
HETATM    6 CL1  UNL     1      29.622   0.975  54.266  1.00  0.00    -0.081 Cl
HETATM    7  C3  UNL     1      27.729  -0.592  53.004  1.00  0.00     0.026 A 
HETATM    8  C4  UNL     1      26.485  -0.845  52.415  1.00  0.00     0.002 A 
HETATM    9  C5  UNL     1      25.574   0.208  52.373  1.00  0.00     0.012 A 
BRANCH   4  10
HETATM   10  O1  UNL     1      27.430   2.852  53.959  1.00  0.00    -0.358 OA
HETATM   11  H1  UNL     1      27.568   2.832  54.974  1.00  0.00     0.217 HD
ENDBRANCH   4  10
ENDBRANCH   2   3
ENDBRANCH   1   2
BRANCH   1  12
HETATM   12  C8  UNL     1      24.347   2.485  50.423  1.00  0.00     0.164 C 
BRANCH  12  13
HETATM   13  C9  UNL     1      25.113   3.624  49.818  1.00  0.00    -0.040 A 
HETATM   14  C10 UNL     1      24.621   4.868  49.485  1.00  0.00     0.012 A 
HETATM   15  C11 UNL     1      25.462   5.807  48.927  1.00  0.00     0.043 A 
HETATM   16  C12 UNL     1      26.805   5.572  48.673  1.00  0.00     0.116 A 
HETATM   17  F1  UNL     1      27.567   6.554  48.119  1.00  0.00    -0.206 F 
HETATM   18  C13 UNL     1      27.315   4.350  48.993  1.00  0.00     0.043 A 
HETATM   19  C14 UNL     1      26.467   3.392  49.561  1.00  0.00     0.012 A 
ENDBRANCH  12  13
ENDBRANCH   1  12
BRANCH   1  20
HETATM   20  C15 UNL     1      22.644   3.027  52.069  1.00  0.00     0.174 C 
HETATM   21  S1  UNL     1      22.096   4.559  52.293  1.00  0.00    -0.041 SA
BRANCH  20  22
HETATM   22  N2  UNL     1      21.558   2.123  52.200  1.00  0.00    -0.333 N 
HETATM   23  H13 UNL     1      20.619   2.221  51.707  1.00  0.00     0.168 HD
BRANCH  22  24
HETATM   24  C16 UNL     1      21.333   0.923  52.930  1.00  0.00     0.034 A 
HETATM   25  C17 UNL     1      22.265   0.273  53.754  1.00  0.00     0.029 A 
HETATM   26  C18 UNL     1      21.894  -0.888  54.396  1.00  0.00     0.002 A 
HETATM   27  C19 UNL     1      20.618  -1.360  54.198  1.00  0.00     0.000 A 
HETATM   28  C20 UNL     1      19.694  -0.740  53.398  1.00  0.00     0.002 A 
HETATM   29  C21 UNL     1      20.042   0.423  52.745  1.00  0.00     0.029 A 
ENDBRANCH  22  24
ENDBRANCH  20  22
ENDBRANCH   1  20
TORSDOF 8
ENDMDL
MODEL 3
REMARK VINA RESULT:      -8.4      3.483      6.223
REMARK  8 active torsions:
REMARK  status: ('A' for Active; 'I' for Inactive)
REMARK    1  A    between atoms: O1_1  and  C1_2 
REMARK    2  A    between atoms: C6_8  and  C7_9 
REMARK    3  A    between atoms: C7_9  and  N1_10 
REMARK    4  A    between atoms: N1_10  and  C8_11 
REMARK    5  A    between atoms: N1_10  and  C15_19 
REMARK    6  A    between atoms: C8_11  and  C9_12 
REMARK    7  A    between atoms: C15_19  and  N2_21 
REMARK    8  A    between atoms: N2_21  and  C16_22 
ROOT
HETATM    1  N1  UNL     1      24.383   2.678  51.752  1.00  0.00    -0.349 N 
ENDROOT
BRANCH   1   2
HETATM    2  C7  UNL     1      23.757   3.686  52.537  1.00  0.00     0.167 C 
BRANCH   2   3
HETATM    3  C6  UNL     1      22.831   4.577  51.843  1.00  0.00    -0.005 A 
HETATM    4  C1  UNL     1      23.287   5.795  51.387  1.00  0.00     0.095 A 
HETATM    5  C2  UNL     1      22.606   6.775  50.723  1.00  0.00     0.067 A 
HETATM    6 CL1  UNL     1      23.331   8.279  50.210  1.00  0.00    -0.081 Cl
HETATM    7  C3  UNL     1      21.261   6.470  50.485  1.00  0.00     0.026 A 
HETATM    8  C4  UNL     1      20.679   5.266  50.898  1.00  0.00     0.002 A 
HETATM    9  C5  UNL     1      21.499   4.360  51.568  1.00  0.00     0.012 A 
BRANCH   4  10
HETATM   10  O1  UNL     1      24.642   6.111  51.624  1.00  0.00    -0.358 OA
HETATM   11  H1  UNL     1      24.821   6.421  52.583  1.00  0.00     0.217 HD
ENDBRANCH   4  10
ENDBRANCH   2   3
ENDBRANCH   1   2
BRANCH   1  12
HETATM   12  C8  UNL     1      23.686   1.560  51.198  1.00  0.00     0.164 C 
BRANCH  12  13
HETATM   13  C9  UNL     1      23.053   0.684  52.240  1.00  0.00    -0.040 A 
HETATM   14  C10 UNL     1      23.686   0.068  53.298  1.00  0.00     0.012 A 
HETATM   15  C11 UNL     1      22.956  -0.715  54.167  1.00  0.00     0.043 A 
HETATM   16  C12 UNL     1      21.591  -0.924  54.040  1.00  0.00     0.116 A 
HETATM   17  F1  UNL     1      20.945  -1.712  54.942  1.00  0.00    -0.206 F 
HETATM   18  C13 UNL     1      20.942  -0.325  53.002  1.00  0.00     0.043 A 
HETATM   19  C14 UNL     1      21.678   0.471  52.116  1.00  0.00     0.012 A 
ENDBRANCH  12  13
ENDBRANCH   1  12
BRANCH   1  20
HETATM   20  C15 UNL     1      25.777   2.762  51.492  1.00  0.00     0.174 C 
HETATM   21  S1  UNL     1      26.408   3.249  50.056  1.00  0.00    -0.041 SA
BRANCH  20  22
HETATM   22  N2  UNL     1      26.836   2.452  52.382  1.00  0.00    -0.333 N 
HETATM   23  H13 UNL     1      27.368   3.164  52.969  1.00  0.00     0.168 HD
BRANCH  22  24
HETATM   24  C16 UNL     1      27.500   1.258  52.776  1.00  0.00     0.034 A 
HETATM   25  C17 UNL     1      27.078  -0.051  52.492  1.00  0.00     0.029 A 
HETATM   26  C18 UNL     1      27.834  -1.109  52.948  1.00  0.00     0.002 A 
HETATM   27  C19 UNL     1      28.975  -0.833  53.664  1.00  0.00     0.000 A 
HETATM   28  C20 UNL     1      29.403   0.437  53.950  1.00  0.00     0.002 A 
HETATM   29  C21 UNL     1      28.664   1.512  53.506  1.00  0.00     0.029 A 
ENDBRANCH  22  24
ENDBRANCH  20  22
ENDBRANCH   1  20
TORSDOF 8
ENDMDL
MODEL 4
REMARK VINA RESULT:      -8.3      3.411      5.226
REMARK  8 active torsions:
REMARK  status: ('A' for Active; 'I' for Inactive)
REMARK    1  A    between atoms: O1_1  and  C1_2 
REMARK    2  A    between atoms: C6_8  and  C7_9 
REMARK    3  A    between atoms: C7_9  and  N1_10 
REMARK    4  A    between atoms: N1_10  and  C8_11 
REMARK    5  A    between atoms: N1_10  and  C15_19 
REMARK    6  A    between atoms: C8_11  and  C9_12 
REMARK    7  A    between atoms: C15_19  and  N2_21 
REMARK    8  A    between atoms: N2_21  and  C16_22 
ROOT
HETATM    1  N1  UNL     1      24.814   2.593  51.715  1.00  0.00    -0.349 N 
ENDROOT
BRANCH   1   2
HETATM    2  C7  UNL     1      25.677   1.645  51.100  1.00  0.00     0.167 C 
BRANCH   2   3
HETATM    3  C6  UNL     1      26.540   0.871  51.988  1.00  0.00    -0.005 A 
HETATM    4  C1  UNL     1      27.539   1.516  52.682  1.00  0.00     0.095 A 
HETATM    5  C2  UNL     1      28.454   0.998  53.554  1.00  0.00     0.067 A 
HETATM    6 CL1  UNL     1      29.673   1.956  54.359  1.00  0.00    -0.081 Cl
HETATM    7  C3  UNL     1      28.332  -0.382  53.752  1.00  0.00     0.026 A 
HETATM    8  C4  UNL     1      27.356  -1.149  53.106  1.00  0.00     0.002 A 
HETATM    9  C5  UNL     1      26.491  -0.482  52.240  1.00  0.00     0.012 A 
BRANCH   4  10
HETATM   10  O1  UNL     1      27.671   2.908  52.487  1.00  0.00    -0.358 OA
HETATM   11  H1  UNL     1      26.851   3.436  52.801  1.00  0.00     0.217 HD
ENDBRANCH   4  10
ENDBRANCH   2   3
ENDBRANCH   1   2
BRANCH   1  12
HETATM   12  C8  UNL     1      24.228   2.411  53.005  1.00  0.00     0.164 C 
BRANCH  12  13
HETATM   13  C9  UNL     1      23.002   1.545  52.979  1.00  0.00    -0.040 A 
HETATM   14  C10 UNL     1      21.765   1.878  52.468  1.00  0.00     0.012 A 
HETATM   15  C11 UNL     1      20.735   0.964  52.528  1.00  0.00     0.043 A 
HETATM   16  C12 UNL     1      20.868  -0.299  53.085  1.00  0.00     0.116 A 
HETATM   17  F1  UNL     1      19.799  -1.141  53.105  1.00  0.00    -0.206 F 
HETATM   18  C13 UNL     1      22.081  -0.651  53.597  1.00  0.00     0.043 A 
HETATM   19  C14 UNL     1      23.131   0.272  53.539  1.00  0.00     0.012 A 
ENDBRANCH  12  13
ENDBRANCH   1  12
BRANCH   1  20
HETATM   20  C15 UNL     1      24.499   3.797  51.029  1.00  0.00     0.174 C 
HETATM   21  S1  UNL     1      23.610   5.014  51.683  1.00  0.00    -0.041 SA
BRANCH  20  22
HETATM   22  N2  UNL     1      24.873   4.155  49.708  1.00  0.00    -0.333 N 
HETATM   23  H13 UNL     1      24.405   3.794  48.822  1.00  0.00     0.168 HD
BRANCH  22  24
HETATM   24  C16 UNL     1      25.867   4.999  49.140  1.00  0.00     0.034 A 
HETATM   25  C17 UNL     1      25.671   6.316  48.694  1.00  0.00     0.029 A 
HETATM   26  C18 UNL     1      26.739   7.006  48.162  1.00  0.00     0.002 A 
HETATM   27  C19 UNL     1      27.955   6.369  48.094  1.00  0.00     0.000 A 
HETATM   28  C20 UNL     1      28.166   5.085  48.524  1.00  0.00     0.002 A 
HETATM   29  C21 UNL     1      27.113   4.374  49.059  1.00  0.00     0.029 A 
ENDBRANCH  22  24
ENDBRANCH  20  22
ENDBRANCH   1  20
TORSDOF 8
ENDMDL
MODEL 5
REMARK VINA RESULT:      -8.1      2.685      6.515
REMARK  8 active torsions:
REMARK  status: ('A' for Active; 'I' for Inactive)
REMARK    1  A    between atoms: O1_1  and  C1_2 
REMARK    2  A    between atoms: C6_8  and  C7_9 
REMARK    3  A    between atoms: C7_9  and  N1_10 
REMARK    4  A    between atoms: N1_10  and  C8_11 
REMARK    5  A    between atoms: N1_10  and  C15_19 
REMARK    6  A    between atoms: C8_11  and  C9_12 
REMARK    7  A    between atoms: C15_19  and  N2_21 
REMARK    8  A    between atoms: N2_21  and  C16_22 
ROOT
HETATM    1  N1  UNL     1      23.837   3.023  51.085  1.00  0.00    -0.349 N 
ENDROOT
BRANCH   1   2
HETATM    2  C7  UNL     1      24.088   3.180  49.694  1.00  0.00     0.167 C 
BRANCH   2   3
HETATM    3  C6  UNL     1      25.165   4.093  49.320  1.00  0.00    -0.005 A 
HETATM    4  C1  UNL     1      24.861   5.403  49.022  1.00  0.00     0.095 A 
HETATM    5  C2  UNL     1      25.696   6.418  48.650  1.00  0.00     0.067 A 
HETATM    6 CL1  UNL     1      25.152   8.039  48.299  1.00  0.00    -0.081 Cl
HETATM    7  C3  UNL     1      27.043   6.044  48.573  1.00  0.00     0.026 A 
HETATM    8  C4  UNL     1      27.479   4.744  48.853  1.00  0.00     0.002 A 
HETATM    9  C5  UNL     1      26.510   3.812  49.219  1.00  0.00     0.012 A 
BRANCH   4  10
HETATM   10  O1  UNL     1      23.504   5.788  49.096  1.00  0.00    -0.358 OA
HETATM   11  H1  UNL     1      23.373   6.725  49.485  1.00  0.00     0.217 HD
ENDBRANCH   4  10
ENDBRANCH   2   3
ENDBRANCH   1   2
BRANCH   1  12
HETATM   12  C8  UNL     1      24.804   3.303  52.100  1.00  0.00     0.164 C 
BRANCH  12  13
HETATM   13  C9  UNL     1      25.639   2.110  52.463  1.00  0.00    -0.040 A 
HETATM   14  C10 UNL     1      26.016   1.079  51.629  1.00  0.00     0.012 A 
HETATM   15  C11 UNL     1      26.785   0.047  52.125  1.00  0.00     0.043 A 
HETATM   16  C12 UNL     1      27.212  -0.020  53.443  1.00  0.00     0.116 A 
HETATM   17  F1  UNL     1      27.967  -1.074  53.852  1.00  0.00    -0.206 F 
HETATM   18  C13 UNL     1      26.851   0.987  54.287  1.00  0.00     0.043 A 
HETATM   19  C14 UNL     1      26.071   2.038  53.790  1.00  0.00     0.012 A 
ENDBRANCH  12  13
ENDBRANCH   1  12
BRANCH   1  20
HETATM   20  C15 UNL     1      22.564   2.564  51.517  1.00  0.00     0.174 C 
HETATM   21  S1  UNL     1      21.338   3.561  51.963  1.00  0.00    -0.041 SA
BRANCH  20  22
HETATM   22  N2  UNL     1      22.135   1.217  51.640  1.00  0.00    -0.333 N 
HETATM   23  H13 UNL     1      21.788   0.612  50.835  1.00  0.00     0.168 HD
BRANCH  22  24
HETATM   24  C16 UNL     1      22.015   0.296  52.716  1.00  0.00     0.034 A 
HETATM   25  C17 UNL     1      23.060  -0.145  53.543  1.00  0.00     0.029 A 
HETATM   26  C18 UNL     1      22.782  -1.046  54.548  1.00  0.00     0.002 A 
HETATM   27  C19 UNL     1      21.484  -1.475  54.695  1.00  0.00     0.000 A 
HETATM   28  C20 UNL     1      20.450  -1.056  53.898  1.00  0.00     0.002 A 
HETATM   29  C21 UNL     1      20.703  -0.156  52.886  1.00  0.00     0.029 A 
ENDBRANCH  22  24
ENDBRANCH  20  22
ENDBRANCH   1  20
TORSDOF 8
ENDMDL
MODEL 6
REMARK VINA RESULT:      -8.1      3.124      6.556
REMARK  8 active torsions:
REMARK  status: ('A' for Active; 'I' for Inactive)
REMARK    1  A    between atoms: O1_1  and  C1_2 
REMARK    2  A    between atoms: C6_8  and  C7_9 
REMARK    3  A    between atoms: C7_9  and  N1_10 
REMARK    4  A    between atoms: N1_10  and  C8_11 
REMARK    5  A    between atoms: N1_10  and  C15_19 
REMARK    6  A    between atoms: C8_11  and  C9_12 
REMARK    7  A    between atoms: C15_19  and  N2_21 
REMARK    8  A    between atoms: N2_21  and  C16_22 
ROOT
HETATM    1  N1  UNL     1      23.245   2.918  51.042  1.00  0.00    -0.349 N 
ENDROOT
BRANCH   1   2
HETATM    2  C7  UNL     1      23.837   2.799  49.754  1.00  0.00     0.167 C 
BRANCH   2   3
HETATM    3  C6  UNL     1      24.871   3.772  49.414  1.00  0.00    -0.005 A 
HETATM    4  C1  UNL     1      24.499   5.044  49.040  1.00  0.00     0.095 A 
HETATM    5  C2  UNL     1      25.285   6.101  48.681  1.00  0.00     0.067 A 
HETATM    6 CL1  UNL     1      24.655   7.665  48.224  1.00  0.00    -0.081 Cl
HETATM    7  C3  UNL     1      26.656   5.824  48.711  1.00  0.00     0.026 A 
HETATM    8  C4  UNL     1      27.161   4.571  49.076  1.00  0.00     0.002 A 
HETATM    9  C5  UNL     1      26.236   3.586  49.416  1.00  0.00     0.012 A 
BRANCH   4  10
HETATM   10  O1  UNL     1      23.116   5.332  49.005  1.00  0.00    -0.358 OA
HETATM   11  H1  UNL     1      22.803   5.690  48.098  1.00  0.00     0.217 HD
ENDBRANCH   4  10
ENDBRANCH   2   3
ENDBRANCH   1   2
BRANCH   1  12
HETATM   12  C8  UNL     1      21.901   2.528  51.334  1.00  0.00     0.164 C 
BRANCH  12  13
HETATM   13  C9  UNL     1      21.817   1.323  52.225  1.00  0.00    -0.040 A 
HETATM   14  C10 UNL     1      22.554   0.163  52.118  1.00  0.00     0.012 A 
HETATM   15  C11 UNL     1      22.349  -0.860  53.020  1.00  0.00     0.043 A 
HETATM   16  C12 UNL     1      21.427  -0.792  54.053  1.00  0.00     0.116 A 
HETATM   17  F1  UNL     1      21.287  -1.847  54.900  1.00  0.00    -0.206 F 
HETATM   18  C13 UNL     1      20.686   0.346  54.179  1.00  0.00     0.043 A 
HETATM   19  C14 UNL     1      20.889   1.388  53.267  1.00  0.00     0.012 A 
ENDBRANCH  12  13
ENDBRANCH   1  12
BRANCH   1  20
HETATM   20  C15 UNL     1      24.009   3.452  52.114  1.00  0.00     0.174 C 
HETATM   21  S1  UNL     1      23.647   4.861  52.878  1.00  0.00    -0.041 SA
BRANCH  20  22
HETATM   22  N2  UNL     1      25.176   2.895  52.697  1.00  0.00    -0.333 N 
HETATM   23  H13 UNL     1      25.934   3.452  53.196  1.00  0.00     0.168 HD
BRANCH  22  24
HETATM   24  C16 UNL     1      25.708   1.582  52.820  1.00  0.00     0.034 A 
HETATM   25  C17 UNL     1      26.329   0.846  51.798  1.00  0.00     0.029 A 
HETATM   26  C18 UNL     1      26.793  -0.421  52.076  1.00  0.00     0.002 A 
HETATM   27  C19 UNL     1      26.627  -0.909  53.351  1.00  0.00     0.000 A 
HETATM   28  C20 UNL     1      26.025  -0.206  54.361  1.00  0.00     0.002 A 
HETATM   29  C21 UNL     1      25.551   1.064  54.107  1.00  0.00     0.029 A 
ENDBRANCH  22  24
ENDBRANCH  20  22
ENDBRANCH   1  20
TORSDOF 8
ENDMDL
MODEL 7
REMARK VINA RESULT:      -8.0      3.122      5.642
REMARK  8 active torsions:
REMARK  status: ('A' for Active; 'I' for Inactive)
REMARK    1  A    between atoms: O1_1  and  C1_2 
REMARK    2  A    between atoms: C6_8  and  C7_9 
REMARK    3  A    between atoms: C7_9  and  N1_10 
REMARK    4  A    between atoms: N1_10  and  C8_11 
REMARK    5  A    between atoms: N1_10  and  C15_19 
REMARK    6  A    between atoms: C8_11  and  C9_12 
REMARK    7  A    between atoms: C15_19  and  N2_21 
REMARK    8  A    between atoms: N2_21  and  C16_22 
ROOT
HETATM    1  N1  UNL     1      24.303   2.803  51.823  1.00  0.00    -0.349 N 
ENDROOT
BRANCH   1   2
HETATM    2  C7  UNL     1      23.498   1.760  51.286  1.00  0.00     0.167 C 
BRANCH   2   3
HETATM    3  C6  UNL     1      22.868   0.858  52.246  1.00  0.00    -0.005 A 
HETATM    4  C1  UNL     1      21.512   0.630  52.162  1.00  0.00     0.095 A 
HETATM    5  C2  UNL     1      20.722  -0.162  52.945  1.00  0.00     0.067 A 
HETATM    6 CL1  UNL     1      19.001  -0.346  52.710  1.00  0.00    -0.081 Cl
HETATM    7  C3  UNL     1      21.415  -0.823  53.965  1.00  0.00     0.026 A 
HETATM    8  C4  UNL     1      22.794  -0.675  54.154  1.00  0.00     0.002 A 
HETATM    9  C5  UNL     1      23.470   0.170  53.276  1.00  0.00     0.012 A 
BRANCH   4  10
HETATM   10  O1  UNL     1      20.804   1.295  51.136  1.00  0.00    -0.358 OA
HETATM   11  H1  UNL     1      21.202   2.208  50.901  1.00  0.00     0.217 HD
ENDBRANCH   4  10
ENDBRANCH   2   3
ENDBRANCH   1   2
BRANCH   1  12
HETATM   12  C8  UNL     1      23.800   3.829  52.681  1.00  0.00     0.164 C 
BRANCH  12  13
HETATM   13  C9  UNL     1      23.318   5.038  51.934  1.00  0.00    -0.040 A 
HETATM   14  C10 UNL     1      24.078   6.112  51.520  1.00  0.00     0.012 A 
HETATM   15  C11 UNL     1      23.476   7.153  50.845  1.00  0.00     0.043 A 
HETATM   16  C12 UNL     1      22.121   7.188  50.550  1.00  0.00     0.116 A 
HETATM   17  F1  UNL     1      21.606   8.254  49.880  1.00  0.00    -0.206 F 
HETATM   18  C13 UNL     1      21.349   6.137  50.949  1.00  0.00     0.043 A 
HETATM   19  C14 UNL     1      21.954   5.077  51.634  1.00  0.00     0.012 A 
ENDBRANCH  12  13
ENDBRANCH   1  12
BRANCH   1  20
HETATM   20  C15 UNL     1      25.687   2.851  51.503  1.00  0.00     0.174 C 
HETATM   21  S1  UNL     1      26.265   3.234  50.014  1.00  0.00    -0.041 SA
BRANCH  20  22
HETATM   22  N2  UNL     1      26.777   2.586  52.370  1.00  0.00    -0.333 N 
HETATM   23  H13 UNL     1      27.296   3.321  52.941  1.00  0.00     0.168 HD
BRANCH  22  24
HETATM   24  C16 UNL     1      27.495   1.420  52.754  1.00  0.00     0.034 A 
HETATM   25  C17 UNL     1      28.732   1.395  53.417  1.00  0.00     0.029 A 
HETATM   26  C18 UNL     1      29.303   0.178  53.720  1.00  0.00     0.002 A 
HETATM   27  C19 UNL     1      28.630  -0.964  53.357  1.00  0.00     0.000 A 
HETATM   28  C20 UNL     1      27.421  -0.960  52.710  1.00  0.00     0.002 A 
HETATM   29  C21 UNL     1      26.831   0.244  52.395  1.00  0.00     0.029 A 
ENDBRANCH  22  24
ENDBRANCH  20  22
ENDBRANCH   1  20
TORSDOF 8
ENDMDL
MODEL 8
REMARK VINA RESULT:      -7.9      2.840      4.524
REMARK  8 active torsions:
REMARK  status: ('A' for Active; 'I' for Inactive)
REMARK    1  A    between atoms: O1_1  and  C1_2 
REMARK    2  A    between atoms: C6_8  and  C7_9 
REMARK    3  A    between atoms: C7_9  and  N1_10 
REMARK    4  A    between atoms: N1_10  and  C8_11 
REMARK    5  A    between atoms: N1_10  and  C15_19 
REMARK    6  A    between atoms: C8_11  and  C9_12 
REMARK    7  A    between atoms: C15_19  and  N2_21 
REMARK    8  A    between atoms: N2_21  and  C16_22 
ROOT
HETATM    1  N1  UNL     1      23.697   1.044  53.020  1.00  0.00    -0.349 N 
ENDROOT
BRANCH   1   2
HETATM    2  C7  UNL     1      24.410   2.267  53.162  1.00  0.00     0.167 C 
BRANCH   2   3
HETATM    3  C6  UNL     1      24.901   2.886  51.935  1.00  0.00    -0.005 A 
HETATM    4  C1  UNL     1      24.381   4.100  51.541  1.00  0.00     0.095 A 
HETATM    5  C2  UNL     1      24.685   4.851  50.442  1.00  0.00     0.067 A 
HETATM    6 CL1  UNL     1      23.927   6.381  50.076  1.00  0.00    -0.081 Cl
HETATM    7  C3  UNL     1      25.667   4.285  49.622  1.00  0.00     0.026 A 
HETATM    8  C4  UNL     1      26.273   3.058  49.914  1.00  0.00     0.002 A 
HETATM    9  C5  UNL     1      25.860   2.403  51.072  1.00  0.00     0.012 A 
BRANCH   4  10
HETATM   10  O1  UNL     1      23.387   4.677  52.362  1.00  0.00    -0.358 OA
HETATM   11  H1  UNL     1      23.603   4.609  53.361  1.00  0.00     0.217 HD
ENDBRANCH   4  10
ENDBRANCH   2   3
ENDBRANCH   1   2
BRANCH   1  12
HETATM   12  C8  UNL     1      24.177  -0.213  53.504  1.00  0.00     0.164 C 
BRANCH  12  13
HETATM   13  C9  UNL     1      25.663  -0.236  53.711  1.00  0.00    -0.040 A 
HETATM   14  C10 UNL     1      26.359   0.298  54.774  1.00  0.00     0.012 A 
HETATM   15  C11 UNL     1      27.733   0.196  54.810  1.00  0.00     0.043 A 
HETATM   16  C12 UNL     1      28.477  -0.426  53.819  1.00  0.00     0.116 A 
HETATM   17  F1  UNL     1      29.832  -0.483  53.930  1.00  0.00    -0.206 F 
HETATM   18  C13 UNL     1      27.812  -0.963  52.757  1.00  0.00     0.043 A 
HETATM   19  C14 UNL     1      26.416  -0.863  52.715  1.00  0.00     0.012 A 
ENDBRANCH  12  13
ENDBRANCH   1  12
BRANCH   1  20
HETATM   20  C15 UNL     1      22.437   1.043  52.364  1.00  0.00     0.174 C 
HETATM   21  S1  UNL     1      21.000   0.927  53.149  1.00  0.00    -0.041 SA
BRANCH  20  22
HETATM   22  N2  UNL     1      22.197   1.136  50.969  1.00  0.00    -0.333 N 
HETATM   23  H13 UNL     1      22.168   0.309  50.298  1.00  0.00     0.168 HD
BRANCH  22  24
HETATM   24  C16 UNL     1      21.944   2.202  50.062  1.00  0.00     0.034 A 
HETATM   25  C17 UNL     1      21.074   3.282  50.282  1.00  0.00     0.029 A 
HETATM   26  C18 UNL     1      20.935   4.238  49.300  1.00  0.00     0.002 A 
HETATM   27  C19 UNL     1      21.660   4.090  48.141  1.00  0.00     0.000 A 
HETATM   28  C20 UNL     1      22.514   3.044  47.908  1.00  0.00     0.002 A 
HETATM   29  C21 UNL     1      22.670   2.074  48.875  1.00  0.00     0.029 A 
ENDBRANCH  22  24
ENDBRANCH  20  22
ENDBRANCH   1  20
TORSDOF 8
ENDMDL
MODEL 9
REMARK VINA RESULT:      -7.7      1.437      2.163
REMARK  8 active torsions:
REMARK  status: ('A' for Active; 'I' for Inactive)
REMARK    1  A    between atoms: O1_1  and  C1_2 
REMARK    2  A    between atoms: C6_8  and  C7_9 
REMARK    3  A    between atoms: C7_9  and  N1_10 
REMARK    4  A    between atoms: N1_10  and  C8_11 
REMARK    5  A    between atoms: N1_10  and  C15_19 
REMARK    6  A    between atoms: C8_11  and  C9_12 
REMARK    7  A    between atoms: C15_19  and  N2_21 
REMARK    8  A    between atoms: N2_21  and  C16_22 
ROOT
HETATM    1  N1  UNL     1      23.771   2.754  51.829  1.00  0.00    -0.349 N 
ENDROOT
BRANCH   1   2
HETATM    2  C7  UNL     1      23.283   1.519  51.317  1.00  0.00     0.167 C 
BRANCH   2   3
HETATM    3  C6  UNL     1      22.022   1.033  51.870  1.00  0.00    -0.005 A 
HETATM    4  C1  UNL     1      22.042   0.003  52.784  1.00  0.00     0.095 A 
HETATM    5  C2  UNL     1      20.998  -0.605  53.421  1.00  0.00     0.067 A 
HETATM    6 CL1  UNL     1      21.189  -1.913  54.562  1.00  0.00    -0.081 Cl
HETATM    7  C3  UNL     1      19.745  -0.085  53.077  1.00  0.00     0.026 A 
HETATM    8  C4  UNL     1      19.591   0.962  52.161  1.00  0.00     0.002 A 
HETATM    9  C5  UNL     1      20.750   1.483  51.589  1.00  0.00     0.012 A 
BRANCH   4  10
HETATM   10  O1  UNL     1      23.303  -0.528  53.135  1.00  0.00    -0.358 OA
HETATM   11  H1  UNL     1      23.284  -1.541  53.286  1.00  0.00     0.217 HD
ENDBRANCH   4  10
ENDBRANCH   2   3
ENDBRANCH   1   2
BRANCH   1  12
HETATM   12  C8  UNL     1      24.654   2.853  52.948  1.00  0.00     0.164 C 
BRANCH  12  13
HETATM   13  C9  UNL     1      25.674   1.753  52.993  1.00  0.00    -0.040 A 
HETATM   14  C10 UNL     1      26.297   1.158  51.916  1.00  0.00     0.012 A 
HETATM   15  C11 UNL     1      27.213   0.149  52.130  1.00  0.00     0.043 A 
HETATM   16  C12 UNL     1      27.555  -0.314  53.392  1.00  0.00     0.116 A 
HETATM   17  F1  UNL     1      28.468  -1.315  53.516  1.00  0.00    -0.206 F 
HETATM   18  C13 UNL     1      26.952   0.258  54.472  1.00  0.00     0.043 A 
HETATM   19  C14 UNL     1      26.022   1.283  54.262  1.00  0.00     0.012 A 
ENDBRANCH  12  13
ENDBRANCH   1  12
BRANCH   1  20
HETATM   20  C15 UNL     1      23.373   3.970  51.213  1.00  0.00     0.174 C 
HETATM   21  S1  UNL     1      22.235   4.978  51.835  1.00  0.00    -0.041 SA
BRANCH  20  22
HETATM   22  N2  UNL     1      23.860   4.516  49.997  1.00  0.00    -0.333 N 
HETATM   23  H13 UNL     1      23.252   4.810  49.174  1.00  0.00     0.168 HD
BRANCH  22  24
HETATM   24  C16 UNL     1      25.148   4.830  49.482  1.00  0.00     0.034 A 
HETATM   25  C17 UNL     1      26.265   3.979  49.482  1.00  0.00     0.029 A 
HETATM   26  C18 UNL     1      27.450   4.433  48.945  1.00  0.00     0.002 A 
HETATM   27  C19 UNL     1      27.484   5.708  48.430  1.00  0.00     0.000 A 
HETATM   28  C20 UNL     1      26.405   6.553  48.422  1.00  0.00     0.002 A 
HETATM   29  C21 UNL     1      25.209   6.122  48.954  1.00  0.00     0.029 A 
ENDBRANCH  22  24
ENDBRANCH  20  22
ENDBRANCH   1  20
TORSDOF 8
ENDMDL
