MODEL 1
REMARK VINA RESULT:      -7.9      0.000      0.000
REMARK  3 active torsions:
REMARK  status: ('A' for Active; 'I' for Inactive)
REMARK    1  A    between atoms: C3_3  and  C4_4 
REMARK    2  A    between atoms: C4_4  and  C5_5 
REMARK    3  A    between atoms: C5_5  and  C6_6 
ROOT
HETATM    1  C6  UNL     1      29.117   1.663  54.097  1.00  0.00    -0.015 C 
HETATM    2  C7  UNL     1      29.420   0.388  53.936  1.00  0.00     0.213 C 
HETATM    3 CL1  UNL     1      29.889  -1.278  53.786  1.00  0.00    -0.230 Cl
ENDROOT
BRANCH   1   4
HETATM    4  C5  UNL     1      28.038   2.472  53.464  1.00  0.00     0.032 C 
BRANCH   4   5
HETATM    5  C4  UNL     1      27.468   1.857  52.239  1.00  0.00     0.039 C 
BRANCH   5   6
HETATM    6  C3  UNL     1      26.055   1.944  51.952  1.00  0.00    -0.065 A 
HETATM    7  C2  UNL     1      25.381   2.733  51.134  1.00  0.00    -0.057 A 
HETATM    8  C1  UNL     1      25.860   3.790  50.240  1.00  0.00     0.048 C 
HETATM    9  C17 UNL     1      23.914   2.511  51.138  1.00  0.00     0.036 A 
HETATM   10  C16 UNL     1      23.219   1.640  51.841  1.00  0.00     0.036 A 
HETATM   11  C10 UNL     1      23.998   0.801  52.732  1.00  0.00    -0.022 A 
HETATM   12  N3  UNL     1      21.805   1.587  51.696  1.00  0.00    -0.365 N 
HETATM   13  C8  UNL     1      25.460   0.888  52.821  1.00  0.00     0.046 A 
HETATM   14  C11 UNL     1      23.660  -0.134  53.593  1.00  0.00     0.029 C 
HETATM   15  C9  UNL     1      26.064  -0.478  52.462  1.00  0.00     0.020 C 
HETATM   16  C12 UNL     1      22.468  -0.793  54.085  1.00  0.00     0.111 C 
HETATM   17  N1  UNL     1      21.525  -0.286  53.479  1.00  0.00    -0.300 NA
HETATM   18  C13 UNL     1      20.117  -0.494  53.508  1.00  0.00     0.178 C 
HETATM   19  C14 UNL     1      19.501   0.485  52.506  1.00  0.00     0.293 C 
HETATM   20  N2  UNL     1      19.906   0.211  51.150  1.00  0.00     0.102 N 
HETATM   21  C15 UNL     1      21.338   0.403  51.011  1.00  0.00     0.392 C 
HETATM   22  H20 UNL     1      19.687  -0.747  50.848  1.00  0.00     0.318 HD
HETATM   23  H23 UNL     1      21.554   2.481  52.161  1.00  0.00     0.161 HD
ENDBRANCH   5   6
ENDBRANCH   4   5
ENDBRANCH   1   4
TORSDOF 3
ENDMDL
MODEL 2
REMARK VINA RESULT:      -7.8      3.615      7.012
REMARK  3 active torsions:
REMARK  status: ('A' for Active; 'I' for Inactive)
REMARK    1  A    between atoms: C3_3  and  C4_4 
REMARK    2  A    between atoms: C4_4  and  C5_5 
REMARK    3  A    between atoms: C5_5  and  C6_6 
ROOT
HETATM    1  C6  UNL     1      19.328   1.164  50.996  1.00  0.00    -0.015 C 
HETATM    2  C7  UNL     1      19.710   1.646  49.826  1.00  0.00     0.213 C 
HETATM    3 CL1  UNL     1      20.124   2.318  48.280  1.00  0.00    -0.230 Cl
ENDROOT
BRANCH   1   4
HETATM    4  C5  UNL     1      20.089   0.346  51.980  1.00  0.00     0.032 C 
BRANCH   4   5
HETATM    5  C4  UNL     1      21.083   1.121  52.764  1.00  0.00     0.039 C 
BRANCH   5   6
HETATM    6  C3  UNL     1      22.295   0.502  53.249  1.00  0.00    -0.065 A 
HETATM    7  C2  UNL     1      22.485  -0.576  53.990  1.00  0.00    -0.057 A 
HETATM    8  C1  UNL     1      21.509  -1.505  54.564  1.00  0.00     0.048 C 
HETATM    9  C17 UNL     1      23.908  -0.875  54.285  1.00  0.00     0.036 A 
HETATM   10  C16 UNL     1      24.980  -0.210  53.905  1.00  0.00     0.036 A 
HETATM   11  C10 UNL     1      24.724   0.970  53.101  1.00  0.00    -0.022 A 
HETATM   12  N3  UNL     1      26.268  -0.669  54.298  1.00  0.00    -0.365 N 
HETATM   13  C8  UNL     1      23.372   1.380  52.709  1.00  0.00     0.046 A 
HETATM   14  C11 UNL     1      25.520   1.879  52.581  1.00  0.00     0.029 C 
HETATM   15  C9  UNL     1      23.288   1.418  51.176  1.00  0.00     0.020 C 
HETATM   16  C12 UNL     1      26.933   2.189  52.509  1.00  0.00     0.111 C 
HETATM   17  N1  UNL     1      27.508   1.301  53.137  1.00  0.00    -0.300 NA
HETATM   18  C13 UNL     1      28.876   1.037  53.431  1.00  0.00     0.178 C 
HETATM   19  C14 UNL     1      28.912  -0.237  54.279  1.00  0.00     0.293 C 
HETATM   20  N2  UNL     1      28.441  -1.391  53.555  1.00  0.00     0.102 N 
HETATM   21  C15 UNL     1      27.041  -1.225  53.211  1.00  0.00     0.392 C 
HETATM   22  H20 UNL     1      28.960  -1.563  52.684  1.00  0.00     0.318 HD
HETATM   23  H23 UNL     1      26.226  -0.440  55.310  1.00  0.00     0.161 HD
ENDBRANCH   5   6
ENDBRANCH   4   5
ENDBRANCH   1   4
TORSDOF 3
ENDMDL
MODEL 3
REMARK VINA RESULT:      -7.5      1.938      3.871
REMARK  3 active torsions:
REMARK  status: ('A' for Active; 'I' for Inactive)
REMARK    1  A    between atoms: C3_3  and  C4_4 
REMARK    2  A    between atoms: C4_4  and  C5_5 
REMARK    3  A    between atoms: C5_5  and  C6_6 
ROOT
HETATM    1  C6  UNL     1      27.875  -1.004  53.083  1.00  0.00    -0.015 C 
HETATM    2  C7  UNL     1      28.496   0.013  53.654  1.00  0.00     0.213 C 
HETATM    3 CL1  UNL     1      29.394   1.310  54.379  1.00  0.00    -0.230 Cl
ENDROOT
BRANCH   1   4
HETATM    4  C5  UNL     1      26.417  -1.286  52.969  1.00  0.00     0.032 C 
BRANCH   4   5
HETATM    5  C4  UNL     1      25.582  -0.517  53.926  1.00  0.00     0.039 C 
BRANCH   5   6
HETATM    6  C3  UNL     1      24.270  -0.041  53.552  1.00  0.00    -0.065 A 
HETATM    7  C2  UNL     1      23.066  -0.395  53.963  1.00  0.00    -0.057 A 
HETATM    8  C1  UNL     1      22.669  -1.402  54.949  1.00  0.00     0.048 C 
HETATM    9  C17 UNL     1      21.954   0.341  53.312  1.00  0.00     0.036 A 
HETATM   10  C16 UNL     1      22.022   1.285  52.395  1.00  0.00     0.036 A 
HETATM   11  C10 UNL     1      23.363   1.636  51.967  1.00  0.00    -0.022 A 
HETATM   12  N3  UNL     1      20.825   1.869  51.897  1.00  0.00    -0.365 N 
HETATM   13  C8  UNL     1      24.563   1.012  52.536  1.00  0.00     0.046 A 
HETATM   14  C11 UNL     1      23.815   2.486  51.070  1.00  0.00     0.029 C 
HETATM   15  C9  UNL     1      25.444   2.103  53.161  1.00  0.00     0.020 C 
HETATM   16  C12 UNL     1      23.304   3.447  50.116  1.00  0.00     0.111 C 
HETATM   17  N1  UNL     1      22.080   3.418  50.225  1.00  0.00    -0.300 NA
HETATM   18  C13 UNL     1      21.021   4.116  49.577  1.00  0.00     0.178 C 
HETATM   19  C14 UNL     1      19.712   3.593  50.175  1.00  0.00     0.293 C 
HETATM   20  N2  UNL     1      19.584   3.907  51.575  1.00  0.00     0.102 N 
HETATM   21  C15 UNL     1      20.622   3.233  52.332  1.00  0.00     0.392 C 
HETATM   22  H20 UNL     1      19.655   4.914  51.773  1.00  0.00     0.318 HD
HETATM   23  H23 UNL     1      20.463   1.067  51.346  1.00  0.00     0.161 HD
ENDBRANCH   5   6
ENDBRANCH   4   5
ENDBRANCH   1   4
TORSDOF 3
ENDMDL
MODEL 4
REMARK VINA RESULT:      -7.5      3.741      6.368
REMARK  3 active torsions:
REMARK  status: ('A' for Active; 'I' for Inactive)
REMARK    1  A    between atoms: C3_3  and  C4_4 
REMARK    2  A    between atoms: C4_4  and  C5_5 
REMARK    3  A    between atoms: C5_5  and  C6_6 
ROOT
HETATM    1  C6  UNL     1      20.135  -1.724  54.144  1.00  0.00    -0.015 C 
HETATM    2  C7  UNL     1      19.172  -1.177  53.424  1.00  0.00     0.213 C 
HETATM    3 CL1  UNL     1      17.853  -0.536  52.494  1.00  0.00    -0.230 Cl
ENDROOT
BRANCH   1   4
HETATM    4  C5  UNL     1      21.491  -1.202  54.471  1.00  0.00     0.032 C 
BRANCH   4   5
HETATM    5  C4  UNL     1      22.377  -1.052  53.289  1.00  0.00     0.039 C 
BRANCH   5   6
HETATM    6  C3  UNL     1      23.142   0.155  53.081  1.00  0.00    -0.065 A 
HETATM    7  C2  UNL     1      24.411   0.434  53.321  1.00  0.00    -0.057 A 
HETATM    8  C1  UNL     1      25.467  -0.411  53.884  1.00  0.00     0.048 C 
HETATM    9  C17 UNL     1      24.813   1.818  52.971  1.00  0.00     0.036 A 
HETATM   10  C16 UNL     1      24.073   2.781  52.459  1.00  0.00     0.036 A 
HETATM   11  C10 UNL     1      22.684   2.434  52.220  1.00  0.00    -0.022 A 
HETATM   12  N3  UNL     1      24.656   4.051  52.194  1.00  0.00    -0.365 N 
HETATM   13  C8  UNL     1      22.146   1.098  52.495  1.00  0.00     0.046 A 
HETATM   14  C11 UNL     1      21.663   3.126  51.764  1.00  0.00     0.029 C 
HETATM   15  C9  UNL     1      21.582   0.511  51.193  1.00  0.00     0.020 C 
HETATM   16  C12 UNL     1      21.367   4.461  51.288  1.00  0.00     0.111 C 
HETATM   17  N1  UNL     1      22.425   5.086  51.349  1.00  0.00    -0.300 NA
HETATM   18  C13 UNL     1      22.792   6.424  51.029  1.00  0.00     0.178 C 
HETATM   19  C14 UNL     1      24.280   6.568  51.357  1.00  0.00     0.293 C 
HETATM   20  N2  UNL     1      25.109   5.729  50.528  1.00  0.00     0.102 N 
HETATM   21  C15 UNL     1      24.815   4.332  50.785  1.00  0.00     0.392 C 
HETATM   22  H20 UNL     1      24.977   5.898  49.522  1.00  0.00     0.318 HD
HETATM   23  H23 UNL     1      24.789   4.382  53.169  1.00  0.00     0.161 HD
ENDBRANCH   5   6
ENDBRANCH   4   5
ENDBRANCH   1   4
TORSDOF 3
ENDMDL
MODEL 5
REMARK VINA RESULT:      -7.5      3.923      6.574
REMARK  3 active torsions:
REMARK  status: ('A' for Active; 'I' for Inactive)
REMARK    1  A    between atoms: C3_3  and  C4_4 
REMARK    2  A    between atoms: C4_4  and  C5_5 
REMARK    3  A    between atoms: C5_5  and  C6_6 
ROOT
HETATM    1  C6  UNL     1      20.536   1.560  48.861  1.00  0.00    -0.015 C 
HETATM    2  C7  UNL     1      19.604   1.223  49.735  1.00  0.00     0.213 C 
HETATM    3 CL1  UNL     1      18.314   0.791  50.814  1.00  0.00    -0.230 Cl
ENDROOT
BRANCH   1   4
HETATM    4  C5  UNL     1      22.010   1.670  49.038  1.00  0.00     0.032 C 
BRANCH   4   5
HETATM    5  C4  UNL     1      22.416   2.249  50.344  1.00  0.00     0.039 C 
BRANCH   5   6
HETATM    6  C3  UNL     1      23.809   2.349  50.713  1.00  0.00    -0.065 A 
HETATM    7  C2  UNL     1      24.770   3.144  50.277  1.00  0.00    -0.057 A 
HETATM    8  C1  UNL     1      24.727   4.200  49.262  1.00  0.00     0.048 C 
HETATM    9  C17 UNL     1      26.090   2.918  50.914  1.00  0.00     0.036 A 
HETATM   10  C16 UNL     1      26.412   2.040  51.842  1.00  0.00     0.036 A 
HETATM   11  C10 UNL     1      25.330   1.182  52.284  1.00  0.00    -0.022 A 
HETATM   12  N3  UNL     1      27.749   1.986  52.324  1.00  0.00    -0.365 N 
HETATM   13  C8  UNL     1      23.964   1.302  51.764  1.00  0.00     0.046 A 
HETATM   14  C11 UNL     1      25.279   0.191  53.148  1.00  0.00     0.029 C 
HETATM   15  C9  UNL     1      23.009   1.596  52.931  1.00  0.00     0.020 C 
HETATM   16  C12 UNL     1      26.158  -0.525  54.049  1.00  0.00     0.111 C 
HETATM   17  N1  UNL     1      27.265  -0.004  53.930  1.00  0.00    -0.300 NA
HETATM   18  C13 UNL     1      28.532  -0.245  54.532  1.00  0.00     0.178 C 
HETATM   19  C14 UNL     1      29.514   0.760  53.925  1.00  0.00     0.293 C 
HETATM   20  N2  UNL     1      29.180   2.122  54.256  1.00  0.00     0.102 N 
HETATM   21  C15 UNL     1      27.897   2.474  53.677  1.00  0.00     0.392 C 
HETATM   22  H20 UNL     1      29.124   2.291  55.269  1.00  0.00     0.318 HD
HETATM   23  H23 UNL     1      28.214   1.586  51.486  1.00  0.00     0.161 HD
ENDBRANCH   5   6
ENDBRANCH   4   5
ENDBRANCH   1   4
TORSDOF 3
ENDMDL
MODEL 6
REMARK VINA RESULT:      -7.4      3.485      6.515
REMARK  3 active torsions:
REMARK  status: ('A' for Active; 'I' for Inactive)
REMARK    1  A    between atoms: C3_3  and  C4_4 
REMARK    2  A    between atoms: C4_4  and  C5_5 
REMARK    3  A    between atoms: C5_5  and  C6_6 
ROOT
HETATM    1  C6  UNL     1      21.105  -0.073  54.138  1.00  0.00    -0.015 C 
HETATM    2  C7  UNL     1      22.057  -0.703  54.803  1.00  0.00     0.213 C 
HETATM    3 CL1  UNL     1      23.240  -1.579  55.724  1.00  0.00    -0.230 Cl
ENDROOT
BRANCH   1   4
HETATM    4  C5  UNL     1      21.215   0.963  53.074  1.00  0.00     0.032 C 
BRANCH   4   5
HETATM    5  C4  UNL     1      22.187   0.624  52.005  1.00  0.00     0.039 C 
BRANCH   5   6
HETATM    6  C3  UNL     1      23.337   1.463  51.752  1.00  0.00    -0.065 A 
HETATM    7  C2  UNL     1      24.555   1.446  52.263  1.00  0.00    -0.057 A 
HETATM    8  C1  UNL     1      25.140   0.554  53.267  1.00  0.00     0.048 C 
HETATM    9  C17 UNL     1      25.455   2.502  51.739  1.00  0.00     0.036 A 
HETATM   10  C16 UNL     1      25.192   3.433  50.843  1.00  0.00     0.036 A 
HETATM   11  C10 UNL     1      23.840   3.419  50.316  1.00  0.00    -0.022 A 
HETATM   12  N3  UNL     1      26.205   4.359  50.473  1.00  0.00    -0.365 N 
HETATM   13  C8  UNL     1      22.844   2.422  50.721  1.00  0.00     0.046 A 
HETATM   14  C11 UNL     1      23.216   4.193  49.455  1.00  0.00     0.029 C 
HETATM   15  C9  UNL     1      22.377   1.650  49.478  1.00  0.00     0.020 C 
HETATM   16  C12 UNL     1      23.480   5.355  48.632  1.00  0.00     0.111 C 
HETATM   17  N1  UNL     1      24.653   5.660  48.841  1.00  0.00    -0.300 NA
HETATM   18  C13 UNL     1      25.500   6.692  48.346  1.00  0.00     0.178 C 
HETATM   19  C14 UNL     1      26.859   6.519  49.029  1.00  0.00     0.293 C 
HETATM   20  N2  UNL     1      27.502   5.281  48.666  1.00  0.00     0.102 N 
HETATM   21  C15 UNL     1      26.715   4.156  49.136  1.00  0.00     0.392 C 
HETATM   22  H20 UNL     1      27.630   5.173  47.651  1.00  0.00     0.318 HD
HETATM   23  H23 UNL     1      26.251   4.917  51.348  1.00  0.00     0.161 HD
ENDBRANCH   5   6
ENDBRANCH   4   5
ENDBRANCH   1   4
TORSDOF 3
ENDMDL
MODEL 7
REMARK VINA RESULT:      -7.4      3.840      7.069
REMARK  3 active torsions:
REMARK  status: ('A' for Active; 'I' for Inactive)
REMARK    1  A    between atoms: C3_3  and  C4_4 
REMARK    2  A    between atoms: C4_4  and  C5_5 
REMARK    3  A    between atoms: C5_5  and  C6_6 
ROOT
HETATM    1  C6  UNL     1      17.438  -0.459  52.314  1.00  0.00    -0.015 C 
HETATM    2  C7  UNL     1      16.875  -1.631  52.545  1.00  0.00     0.213 C 
HETATM    3 CL1  UNL     1      16.053  -3.127  52.868  1.00  0.00    -0.230 Cl
ENDROOT
BRANCH   1   4
HETATM    4  C5  UNL     1      18.838  -0.138  51.920  1.00  0.00     0.032 C 
BRANCH   4   5
HETATM    5  C4  UNL     1      19.747   0.091  53.070  1.00  0.00     0.039 C 
BRANCH   5   6
HETATM    6  C3  UNL     1      20.981   0.825  52.909  1.00  0.00    -0.065 A 
HETATM    7  C2  UNL     1      21.209   2.078  52.559  1.00  0.00    -0.057 A 
HETATM    8  C1  UNL     1      20.264   3.145  52.219  1.00  0.00     0.048 C 
HETATM    9  C17 UNL     1      22.644   2.448  52.497  1.00  0.00     0.036 A 
HETATM   10  C16 UNL     1      23.696   1.693  52.744  1.00  0.00     0.036 A 
HETATM   11  C10 UNL     1      23.400   0.322  53.116  1.00  0.00    -0.022 A 
HETATM   12  N3  UNL     1      25.001   2.245  52.627  1.00  0.00    -0.365 N 
HETATM   13  C8  UNL     1      22.029  -0.184  53.242  1.00  0.00     0.046 A 
HETATM   14  C11 UNL     1      24.169  -0.707  53.396  1.00  0.00     0.029 C 
HETATM   15  C9  UNL     1      21.816  -0.696  54.675  1.00  0.00     0.020 C 
HETATM   16  C12 UNL     1      25.577  -1.030  53.492  1.00  0.00     0.111 C 
HETATM   17  N1  UNL     1      26.183   0.006  53.224  1.00  0.00    -0.300 NA
HETATM   18  C13 UNL     1      27.564   0.342  53.146  1.00  0.00     0.178 C 
HETATM   19  C14 UNL     1      27.643   1.816  52.742  1.00  0.00     0.293 C 
HETATM   20  N2  UNL     1      27.087   2.690  53.744  1.00  0.00     0.102 N 
HETATM   21  C15 UNL     1      25.667   2.431  53.896  1.00  0.00     0.392 C 
HETATM   22  H20 UNL     1      27.526   2.580  54.667  1.00  0.00     0.318 HD
HETATM   23  H23 UNL     1      25.050   2.342  51.594  1.00  0.00     0.161 HD
ENDBRANCH   5   6
ENDBRANCH   4   5
ENDBRANCH   1   4
TORSDOF 3
ENDMDL
MODEL 8
REMARK VINA RESULT:      -7.4      1.941      2.748
REMARK  3 active torsions:
REMARK  status: ('A' for Active; 'I' for Inactive)
REMARK    1  A    between atoms: C3_3  and  C4_4 
REMARK    2  A    between atoms: C4_4  and  C5_5 
REMARK    3  A    between atoms: C5_5  and  C6_6 
ROOT
HETATM    1  C6  UNL     1      27.642   0.286  54.848  1.00  0.00    -0.015 C 
HETATM    2  C7  UNL     1      28.589  -0.322  54.156  1.00  0.00     0.213 C 
HETATM    3 CL1  UNL     1      29.896  -1.057  53.279  1.00  0.00    -0.230 Cl
ENDROOT
BRANCH   1   4
HETATM    4  C5  UNL     1      26.196  -0.045  54.974  1.00  0.00     0.032 C 
BRANCH   4   5
HETATM    5  C4  UNL     1      25.556  -0.435  53.693  1.00  0.00     0.039 C 
BRANCH   5   6
HETATM    6  C3  UNL     1      24.915   0.549  52.851  1.00  0.00    -0.065 A 
HETATM    7  C2  UNL     1      25.405   1.355  51.927  1.00  0.00    -0.057 A 
HETATM    8  C1  UNL     1      26.781   1.509  51.449  1.00  0.00     0.048 C 
HETATM    9  C17 UNL     1      24.400   2.240  51.288  1.00  0.00     0.036 A 
HETATM   10  C16 UNL     1      23.106   2.315  51.526  1.00  0.00     0.036 A 
HETATM   11  C10 UNL     1      22.613   1.419  52.555  1.00  0.00    -0.022 A 
HETATM   12  N3  UNL     1      22.309   3.240  50.796  1.00  0.00    -0.365 N 
HETATM   13  C8  UNL     1      23.482   0.471  53.259  1.00  0.00     0.046 A 
HETATM   14  C11 UNL     1      21.419   1.239  53.077  1.00  0.00     0.029 C 
HETATM   15  C9  UNL     1      22.956  -0.954  53.027  1.00  0.00     0.020 C 
HETATM   16  C12 UNL     1      20.073   1.755  52.942  1.00  0.00     0.111 C 
HETATM   17  N1  UNL     1      20.124   2.612  52.061  1.00  0.00    -0.300 NA
HETATM   18  C13 UNL     1      19.154   3.471  51.471  1.00  0.00     0.178 C 
HETATM   19  C14 UNL     1      19.885   4.319  50.428  1.00  0.00     0.293 C 
HETATM   20  N2  UNL     1      20.409   3.526  49.345  1.00  0.00     0.102 N 
HETATM   21  C15 UNL     1      21.422   2.613  49.843  1.00  0.00     0.392 C 
HETATM   22  H20 UNL     1      19.690   2.967  48.867  1.00  0.00     0.318 HD
HETATM   23  H23 UNL     1      22.652   4.126  51.215  1.00  0.00     0.161 HD
ENDBRANCH   5   6
ENDBRANCH   4   5
ENDBRANCH   1   4
TORSDOF 3
ENDMDL
MODEL 9
REMARK VINA RESULT:      -7.3      2.662      4.102
REMARK  3 active torsions:
REMARK  status: ('A' for Active; 'I' for Inactive)
REMARK    1  A    between atoms: C3_3  and  C4_4 
REMARK    2  A    between atoms: C4_4  and  C5_5 
REMARK    3  A    between atoms: C5_5  and  C6_6 
ROOT
HETATM    1  C6  UNL     1      26.190   4.368  49.370  1.00  0.00    -0.015 C 
HETATM    2  C7  UNL     1      25.604   5.385  49.977  1.00  0.00     0.213 C 
HETATM    3 CL1  UNL     1      24.847   6.772  50.696  1.00  0.00    -0.230 Cl
ENDROOT
BRANCH   1   4
HETATM    4  C5  UNL     1      26.474   2.996  49.873  1.00  0.00     0.032 C 
BRANCH   4   5
HETATM    5  C4  UNL     1      26.279   2.841  51.337  1.00  0.00     0.039 C 
BRANCH   5   6
HETATM    6  C3  UNL     1      25.493   1.753  51.872  1.00  0.00    -0.065 A 
HETATM    7  C2  UNL     1      25.848   0.567  52.330  1.00  0.00    -0.057 A 
HETATM    8  C1  UNL     1      27.179  -0.036  52.445  1.00  0.00     0.048 C 
HETATM    9  C17 UNL     1      24.718  -0.279  52.785  1.00  0.00     0.036 A 
HETATM   10  C16 UNL     1      23.431   0.006  52.789  1.00  0.00     0.036 A 
HETATM   11  C10 UNL     1      23.086   1.316  52.270  1.00  0.00    -0.022 A 
HETATM   12  N3  UNL     1      22.500  -0.954  53.274  1.00  0.00    -0.365 N 
HETATM   13  C8  UNL     1      24.096   2.272  51.804  1.00  0.00     0.046 A 
HETATM   14  C11 UNL     1      21.933   1.923  52.089  1.00  0.00     0.029 C 
HETATM   15  C9  UNL     1      23.982   3.561  52.631  1.00  0.00     0.020 C 
HETATM   16  C12 UNL     1      20.520   1.675  52.284  1.00  0.00     0.111 C 
HETATM   17  N1  UNL     1      20.436   0.547  52.768  1.00  0.00    -0.300 NA
HETATM   18  C13 UNL     1      19.341  -0.263  53.181  1.00  0.00     0.178 C 
HETATM   19  C14 UNL     1      19.929  -1.583  53.686  1.00  0.00     0.293 C 
HETATM   20  N2  UNL     1      20.746  -1.407  54.860  1.00  0.00     0.102 N 
HETATM   21  C15 UNL     1      21.904  -0.593  54.541  1.00  0.00     0.392 C 
HETATM   22  H20 UNL     1      20.247  -0.952  55.636  1.00  0.00     0.318 HD
HETATM   23  H23 UNL     1      22.559  -1.649  52.505  1.00  0.00     0.161 HD
ENDBRANCH   5   6
ENDBRANCH   4   5
ENDBRANCH   1   4
TORSDOF 3
ENDMDL
