MODEL 1
REMARK VINA RESULT:      -8.2      0.000      0.000
REMARK  8 active torsions:
REMARK  status: ('A' for Active; 'I' for Inactive)
REMARK    1  A    between atoms: N1_1  and  C1_2 
REMARK    2  A    between atoms: C1_2  and  C2_3 
REMARK    3  A    between atoms: C2_3  and  N2_4 
REMARK       I    between atoms: N2_4  and  C3_5 
REMARK    4  A    between atoms: C3_5  and  C4_7 
REMARK    5  A    between atoms: C5_8  and  C6_9 
REMARK    6  A    between atoms: C6_9  and  N3_10 
REMARK    7  A    between atoms: C11_17  and  N6_18 
REMARK    8  A    between atoms: N6_18  and  C12_19 
ROOT
HETATM    1  N3  UNL     1      25.832   2.502  51.027  1.00  0.00    -0.277 N 
HETATM    2  C7  UNL     1      24.824   1.642  51.558  1.00  0.00     0.126 A 
HETATM    3  C8  UNL     1      25.004   0.886  52.629  1.00  0.00     0.033 A 
HETATM    4  C9  UNL     1      26.313   0.928  53.317  1.00  0.00     0.088 A 
HETATM    5  N4  UNL     1      26.463   0.183  54.361  1.00  0.00    -0.240 NA
HETATM    6  C10 UNL     1      25.397  -0.649  54.832  1.00  0.00     0.230 A 
HETATM    7  N5  UNL     1      24.243  -0.710  54.260  1.00  0.00    -0.252 NA
HETATM    8  C11 UNL     1      23.881   0.035  53.095  1.00  0.00     0.245 A 
HETATM    9  C18 UNL     1      27.308   1.818  52.739  1.00  0.00     0.171 A 
HETATM   10  N7  UNL     1      27.083   2.538  51.692  1.00  0.00    -0.183 NA
ENDROOT
BRANCH   1  11
HETATM   11  C6  UNL     1      25.594   3.308  49.843  1.00  0.00     0.177 C 
BRANCH  11  12
HETATM   12  C5  UNL     1      26.807   3.837  49.233  1.00  0.00     0.000 C 
HETATM   13  C4  UNL     1      27.371   4.956  48.819  1.00  0.00     0.072 C 
BRANCH  13  14
HETATM   14  C3  UNL     1      26.708   6.273  48.909  1.00  0.00     0.240 C 
HETATM   15  N2  UNL     1      26.283   6.803  50.151  1.00  0.00    -0.356 N 
HETATM   16  H7  UNL     1      26.457   6.223  51.011  1.00  0.00     0.162 HD
HETATM   17  O1  UNL     1      26.546   6.888  47.828  1.00  0.00    -0.269 OA
BRANCH  15  18
HETATM   18  C2  UNL     1      25.629   8.088  50.299  1.00  0.00     0.152 C 
BRANCH  18  19
HETATM   19  C1  UNL     1      24.231   7.854  50.788  1.00  0.00     0.286 C 
BRANCH  19  20
HETATM   20  N1  UNL     1      24.306   6.868  51.860  1.00  0.00     0.079 N 
HETATM   21  H1  UNL     1      24.128   5.893  51.534  1.00  0.00     0.312 HD
HETATM   22  H2  UNL     1      25.266   6.918  52.298  1.00  0.00     0.312 HD
ENDBRANCH  19  20
ENDBRANCH  18  19
ENDBRANCH  15  18
ENDBRANCH  13  14
ENDBRANCH  11  12
ENDBRANCH   1  11
BRANCH   8  23
HETATM   23  N6  UNL     1      22.646   0.714  53.292  1.00  0.00    -0.363 N 
HETATM   24  H15 UNL     1      22.598   1.465  54.052  1.00  0.00     0.162 HD
BRANCH  23  25
HETATM   25  C12 UNL     1      21.422   0.558  52.627  1.00  0.00     0.031 A 
HETATM   26  C13 UNL     1      21.110   1.136  51.392  1.00  0.00     0.029 A 
HETATM   27  C14 UNL     1      19.893   0.958  50.771  1.00  0.00     0.004 A 
HETATM   28  C15 UNL     1      18.903   0.188  51.341  1.00  0.00     0.019 A 
HETATM   29  C16 UNL     1      19.153  -0.402  52.547  1.00  0.00     0.013 A 
HETATM   30 BR1  UNL     1      17.777  -1.458  53.317  1.00  0.00    -0.051 Br
HETATM   31  C17 UNL     1      20.386  -0.198  53.136  1.00  0.00     0.048 A 
ENDBRANCH  23  25
ENDBRANCH   8  23
TORSDOF 8
ENDMDL
MODEL 2
REMARK VINA RESULT:      -8.0      1.993      2.453
REMARK  8 active torsions:
REMARK  status: ('A' for Active; 'I' for Inactive)
REMARK    1  A    between atoms: N1_1  and  C1_2 
REMARK    2  A    between atoms: C1_2  and  C2_3 
REMARK    3  A    between atoms: C2_3  and  N2_4 
REMARK       I    between atoms: N2_4  and  C3_5 
REMARK    4  A    between atoms: C3_5  and  C4_7 
REMARK    5  A    between atoms: C5_8  and  C6_9 
REMARK    6  A    between atoms: C6_9  and  N3_10 
REMARK    7  A    between atoms: C11_17  and  N6_18 
REMARK    8  A    between atoms: N6_18  and  C12_19 
ROOT
HETATM    1  N3  UNL     1      26.536   1.607  52.315  1.00  0.00    -0.277 N 
HETATM    2  C7  UNL     1      25.259   0.976  52.404  1.00  0.00     0.126 A 
HETATM    3  C8  UNL     1      24.898   0.205  53.417  1.00  0.00     0.033 A 
HETATM    4  C9  UNL     1      25.860  -0.019  54.518  1.00  0.00     0.088 A 
HETATM    5  N4  UNL     1      25.482  -0.772  55.497  1.00  0.00    -0.240 NA
HETATM    6  C10 UNL     1      24.179  -1.365  55.511  1.00  0.00     0.230 A 
HETATM    7  N5  UNL     1      23.314  -1.191  54.570  1.00  0.00    -0.252 NA
HETATM    8  C11 UNL     1      23.539  -0.394  53.406  1.00  0.00     0.245 A 
HETATM    9  C18 UNL     1      27.147   0.645  54.383  1.00  0.00     0.171 A 
HETATM   10  N7  UNL     1      27.452   1.388  53.374  1.00  0.00    -0.183 NA
ENDROOT
BRANCH   1  11
HETATM   11  C6  UNL     1      26.894   2.438  51.180  1.00  0.00     0.177 C 
BRANCH  11  12
HETATM   12  C5  UNL     1      25.749   2.994  50.470  1.00  0.00     0.000 C 
HETATM   13  C4  UNL     1      25.376   4.007  49.711  1.00  0.00     0.072 C 
BRANCH  13  14
HETATM   14  C3  UNL     1      26.293   5.093  49.312  1.00  0.00     0.240 C 
HETATM   15  N2  UNL     1      26.055   6.438  49.686  1.00  0.00    -0.356 N 
HETATM   16  H7  UNL     1      25.196   6.636  50.261  1.00  0.00     0.162 HD
HETATM   17  O1  UNL     1      27.289   4.755  48.627  1.00  0.00    -0.269 OA
BRANCH  15  18
HETATM   18  C2  UNL     1      26.920   7.542  49.322  1.00  0.00     0.152 C 
BRANCH  18  19
HETATM   19  C1  UNL     1      26.487   8.755  50.089  1.00  0.00     0.286 C 
BRANCH  19  20
HETATM   20  N1  UNL     1      27.661   9.271  50.784  1.00  0.00     0.079 N 
HETATM   21  H1  UNL     1      28.020  10.163  50.379  1.00  0.00     0.312 HD
HETATM   22  H2  UNL     1      27.410   9.427  51.799  1.00  0.00     0.312 HD
ENDBRANCH  19  20
ENDBRANCH  18  19
ENDBRANCH  15  18
ENDBRANCH  13  14
ENDBRANCH  11  12
ENDBRANCH   1  11
BRANCH   8  23
HETATM   23  N6  UNL     1      22.472   0.526  53.207  1.00  0.00    -0.363 N 
HETATM   24  H15 UNL     1      22.234   1.203  53.999  1.00  0.00     0.162 HD
BRANCH  23  25
HETATM   25  C12 UNL     1      21.639   0.703  52.093  1.00  0.00     0.031 A 
HETATM   26  C13 UNL     1      20.265   0.444  52.080  1.00  0.00     0.029 A 
HETATM   27  C14 UNL     1      19.480   0.632  50.963  1.00  0.00     0.004 A 
HETATM   28  C15 UNL     1      20.016   1.091  49.780  1.00  0.00     0.019 A 
HETATM   29  C16 UNL     1      21.354   1.362  49.735  1.00  0.00     0.013 A 
HETATM   30 BR1  UNL     1      22.074   1.994  48.097  1.00  0.00    -0.051 Br
HETATM   31  C17 UNL     1      22.104   1.160  50.877  1.00  0.00     0.048 A 
ENDBRANCH  23  25
ENDBRANCH   8  23
TORSDOF 8
ENDMDL
MODEL 3
REMARK VINA RESULT:      -7.9      2.899      5.239
REMARK  8 active torsions:
REMARK  status: ('A' for Active; 'I' for Inactive)
REMARK    1  A    between atoms: N1_1  and  C1_2 
REMARK    2  A    between atoms: C1_2  and  C2_3 
REMARK    3  A    between atoms: C2_3  and  N2_4 
REMARK       I    between atoms: N2_4  and  C3_5 
REMARK    4  A    between atoms: C3_5  and  C4_7 
REMARK    5  A    between atoms: C5_8  and  C6_9 
REMARK    6  A    between atoms: C6_9  and  N3_10 
REMARK    7  A    between atoms: C11_17  and  N6_18 
REMARK    8  A    between atoms: N6_18  and  C12_19 
ROOT
HETATM    1  N3  UNL     1      21.885   2.011  51.005  1.00  0.00    -0.277 N 
HETATM    2  C7  UNL     1      22.722   1.448  52.016  1.00  0.00     0.126 A 
HETATM    3  C8  UNL     1      22.316   0.508  52.854  1.00  0.00     0.033 A 
HETATM    4  C9  UNL     1      20.928   0.009  52.745  1.00  0.00     0.088 A 
HETATM    5  N4  UNL     1      20.558  -0.911  53.572  1.00  0.00    -0.240 NA
HETATM    6  C10 UNL     1      21.462  -1.426  54.555  1.00  0.00     0.230 A 
HETATM    7  N5  UNL     1      22.679  -1.017  54.680  1.00  0.00    -0.252 NA
HETATM    8  C11 UNL     1      23.277  -0.008  53.862  1.00  0.00     0.245 A 
HETATM    9  C18 UNL     1      20.115   0.612  51.700  1.00  0.00     0.171 A 
HETATM   10  N7  UNL     1      20.557   1.527  50.906  1.00  0.00    -0.183 NA
ENDROOT
BRANCH   1  11
HETATM   11  C6  UNL     1      22.370   3.049  50.112  1.00  0.00     0.177 C 
BRANCH  11  12
HETATM   12  C5  UNL     1      23.766   2.893  49.727  1.00  0.00     0.000 C 
HETATM   13  C4  UNL     1      24.845   3.575  49.393  1.00  0.00     0.072 C 
BRANCH  13  14
HETATM   14  C3  UNL     1      24.873   5.050  49.317  1.00  0.00     0.240 C 
HETATM   15  N2  UNL     1      25.638   5.823  50.223  1.00  0.00    -0.356 N 
HETATM   16  H7  UNL     1      26.189   5.306  50.956  1.00  0.00     0.162 HD
HETATM   17  O1  UNL     1      24.183   5.572  48.408  1.00  0.00    -0.269 OA
BRANCH  15  18
HETATM   18  C2  UNL     1      25.702   7.270  50.196  1.00  0.00     0.152 C 
BRANCH  18  19
HETATM   19  C1  UNL     1      24.514   7.811  50.933  1.00  0.00     0.286 C 
BRANCH  19  20
HETATM   20  N1  UNL     1      24.323   6.981  52.117  1.00  0.00     0.079 N 
HETATM   21  H1  UNL     1      23.985   6.020  51.895  1.00  0.00     0.312 HD
HETATM   22  H2  UNL     1      25.242   6.916  52.635  1.00  0.00     0.312 HD
ENDBRANCH  19  20
ENDBRANCH  18  19
ENDBRANCH  15  18
ENDBRANCH  13  14
ENDBRANCH  11  12
ENDBRANCH   1  11
BRANCH   8  23
HETATM   23  N6  UNL     1      24.524  -0.453  53.340  1.00  0.00    -0.363 N 
HETATM   24  H15 UNL     1      24.550  -1.388  52.822  1.00  0.00     0.162 HD
BRANCH  23  25
HETATM   25  C12 UNL     1      25.785   0.157  53.392  1.00  0.00     0.031 A 
HETATM   26  C13 UNL     1      25.998   1.539  53.408  1.00  0.00     0.029 A 
HETATM   27  C14 UNL     1      27.255   2.100  53.460  1.00  0.00     0.004 A 
HETATM   28  C15 UNL     1      28.388   1.316  53.498  1.00  0.00     0.019 A 
HETATM   29  C16 UNL     1      28.240  -0.041  53.485  1.00  0.00     0.013 A 
HETATM   30 BR1  UNL     1      29.811  -1.103  53.538  1.00  0.00    -0.051 Br
HETATM   31  C17 UNL     1      26.962  -0.562  53.433  1.00  0.00     0.048 A 
ENDBRANCH  23  25
ENDBRANCH   8  23
TORSDOF 8
ENDMDL
MODEL 4
REMARK VINA RESULT:      -7.7      3.082      5.352
REMARK  8 active torsions:
REMARK  status: ('A' for Active; 'I' for Inactive)
REMARK    1  A    between atoms: N1_1  and  C1_2 
REMARK    2  A    between atoms: C1_2  and  C2_3 
REMARK    3  A    between atoms: C2_3  and  N2_4 
REMARK       I    between atoms: N2_4  and  C3_5 
REMARK    4  A    between atoms: C3_5  and  C4_7 
REMARK    5  A    between atoms: C5_8  and  C6_9 
REMARK    6  A    between atoms: C6_9  and  N3_10 
REMARK    7  A    between atoms: C11_17  and  N6_18 
REMARK    8  A    between atoms: N6_18  and  C12_19 
ROOT
HETATM    1  N3  UNL     1      23.109   3.353  51.835  1.00  0.00    -0.277 N 
HETATM    2  C7  UNL     1      23.777   2.245  52.441  1.00  0.00     0.126 A 
HETATM    3  C8  UNL     1      23.142   1.195  52.932  1.00  0.00     0.033 A 
HETATM    4  C9  UNL     1      21.665   1.155  52.855  1.00  0.00     0.088 A 
HETATM    5  N4  UNL     1      21.069   0.117  53.339  1.00  0.00    -0.240 NA
HETATM    6  C10 UNL     1      21.815  -0.954  53.926  1.00  0.00     0.230 A 
HETATM    7  N5  UNL     1      23.101  -0.956  54.011  1.00  0.00    -0.252 NA
HETATM    8  C11 UNL     1      23.941   0.097  53.534  1.00  0.00     0.245 A 
HETATM    9  C18 UNL     1      21.030   2.305  52.229  1.00  0.00     0.171 A 
HETATM   10  N7  UNL     1      21.695   3.308  51.763  1.00  0.00    -0.183 NA
ENDROOT
BRANCH   1  11
HETATM   11  C6  UNL     1      23.847   4.490  51.317  1.00  0.00     0.177 C 
BRANCH  11  12
HETATM   12  C5  UNL     1      25.049   4.129  50.577  1.00  0.00     0.000 C 
HETATM   13  C4  UNL     1      25.941   4.604  49.728  1.00  0.00     0.072 C 
BRANCH  13  14
HETATM   14  C3  UNL     1      25.897   5.983  49.203  1.00  0.00     0.240 C 
HETATM   15  N2  UNL     1      26.780   6.984  49.676  1.00  0.00    -0.356 N 
HETATM   16  H7  UNL     1      27.471   6.708  50.420  1.00  0.00     0.162 HD
HETATM   17  O1  UNL     1      25.038   6.213  48.318  1.00  0.00    -0.269 OA
BRANCH  15  18
HETATM   18  C2  UNL     1      26.781   8.351  49.197  1.00  0.00     0.152 C 
BRANCH  18  19
HETATM   19  C1  UNL     1      27.327   9.232  50.279  1.00  0.00     0.286 C 
BRANCH  19  20
HETATM   20  N1  UNL     1      28.767   9.336  50.070  1.00  0.00     0.079 N 
HETATM   21  H1  UNL     1      29.313   8.631  50.611  1.00  0.00     0.312 HD
HETATM   22  H2  UNL     1      28.967   9.216  49.039  1.00  0.00     0.312 HD
ENDBRANCH  19  20
ENDBRANCH  18  19
ENDBRANCH  15  18
ENDBRANCH  13  14
ENDBRANCH  11  12
ENDBRANCH   1  11
BRANCH   8  23
HETATM   23  N6  UNL     1      24.982  -0.417  52.710  1.00  0.00    -0.363 N 
HETATM   24  H15 UNL     1      24.722  -0.793  51.744  1.00  0.00     0.162 HD
BRANCH  23  25
HETATM   25  C12 UNL     1      26.357  -0.520  52.965  1.00  0.00     0.031 A 
HETATM   26  C13 UNL     1      27.109  -1.687  52.803  1.00  0.00     0.029 A 
HETATM   27  C14 UNL     1      28.460  -1.747  53.064  1.00  0.00     0.004 A 
HETATM   28  C15 UNL     1      29.154  -0.642  53.506  1.00  0.00     0.019 A 
HETATM   29  C16 UNL     1      28.470   0.527  53.682  1.00  0.00     0.013 A 
HETATM   30 BR1  UNL     1      29.442   2.038  54.292  1.00  0.00    -0.051 Br
HETATM   31  C17 UNL     1      27.116   0.543  53.408  1.00  0.00     0.048 A 
ENDBRANCH  23  25
ENDBRANCH   8  23
TORSDOF 8
ENDMDL
MODEL 5
REMARK VINA RESULT:      -7.6      3.153      6.014
REMARK  8 active torsions:
REMARK  status: ('A' for Active; 'I' for Inactive)
REMARK    1  A    between atoms: N1_1  and  C1_2 
REMARK    2  A    between atoms: C1_2  and  C2_3 
REMARK    3  A    between atoms: C2_3  and  N2_4 
REMARK       I    between atoms: N2_4  and  C3_5 
REMARK    4  A    between atoms: C3_5  and  C4_7 
REMARK    5  A    between atoms: C5_8  and  C6_9 
REMARK    6  A    between atoms: C6_9  and  N3_10 
REMARK    7  A    between atoms: C11_17  and  N6_18 
REMARK    8  A    between atoms: N6_18  and  C12_19 
ROOT
HETATM    1  N3  UNL     1      25.286   2.551  51.365  1.00  0.00    -0.277 N 
HETATM    2  C7  UNL     1      23.871   2.453  51.202  1.00  0.00     0.126 A 
HETATM    3  C8  UNL     1      23.205   3.074  50.242  1.00  0.00     0.033 A 
HETATM    4  C9  UNL     1      23.957   3.914  49.284  1.00  0.00     0.088 A 
HETATM    5  N4  UNL     1      23.284   4.506  48.354  1.00  0.00    -0.240 NA
HETATM    6  C10 UNL     1      21.864   4.351  48.258  1.00  0.00     0.230 A 
HETATM    7  N5  UNL     1      21.176   3.627  49.074  1.00  0.00    -0.252 NA
HETATM    8  C11 UNL     1      21.733   2.893  50.166  1.00  0.00     0.245 A 
HETATM    9  C18 UNL     1      25.395   3.982  49.490  1.00  0.00     0.171 A 
HETATM   10  N7  UNL     1      25.999   3.356  50.443  1.00  0.00    -0.183 NA
ENDROOT
BRANCH   1  11
HETATM   11  C6  UNL     1      25.974   1.860  52.439  1.00  0.00     0.177 C 
BRANCH  11  12
HETATM   12  C5  UNL     1      25.288   0.663  52.908  1.00  0.00     0.000 C 
HETATM   13  C4  UNL     1      25.470  -0.619  53.165  1.00  0.00     0.072 C 
BRANCH  13  14
HETATM   14  C3  UNL     1      26.767  -1.300  52.978  1.00  0.00     0.240 C 
HETATM   15  N2  UNL     1      27.933  -0.868  53.652  1.00  0.00    -0.356 N 
HETATM   16  H7  UNL     1      27.843  -0.039  54.294  1.00  0.00     0.162 HD
HETATM   17  O1  UNL     1      26.771  -2.278  52.192  1.00  0.00    -0.269 OA
BRANCH  15  18
HETATM   18  C2  UNL     1      29.230  -1.498  53.507  1.00  0.00     0.152 C 
BRANCH  18  19
HETATM   19  C1  UNL     1      30.272  -0.424  53.415  1.00  0.00     0.286 C 
BRANCH  19  20
HETATM   20  N1  UNL     1      29.622   0.840  53.745  1.00  0.00     0.079 N 
HETATM   21  H1  UNL     1      30.291   1.576  54.061  1.00  0.00     0.312 HD
HETATM   22  H2  UNL     1      29.103   1.185  52.892  1.00  0.00     0.312 HD
ENDBRANCH  19  20
ENDBRANCH  18  19
ENDBRANCH  15  18
ENDBRANCH  13  14
ENDBRANCH  11  12
ENDBRANCH   1  11
BRANCH   8  23
HETATM   23  N6  UNL     1      21.288   1.542  50.148  1.00  0.00    -0.363 N 
HETATM   24  H15 UNL     1      21.452   0.968  49.261  1.00  0.00     0.162 HD
BRANCH  23  25
HETATM   25  C12 UNL     1      20.638   0.800  51.144  1.00  0.00     0.031 A 
HETATM   26  C13 UNL     1      19.268   0.522  51.162  1.00  0.00     0.029 A 
HETATM   27  C14 UNL     1      18.667  -0.212  52.161  1.00  0.00     0.004 A 
HETATM   28  C15 UNL     1      19.397  -0.720  53.214  1.00  0.00     0.019 A 
HETATM   29  C16 UNL     1      20.740  -0.480  53.249  1.00  0.00     0.013 A 
HETATM   30 BR1  UNL     1      21.728  -1.187  54.707  1.00  0.00    -0.051 Br
HETATM   31  C17 UNL     1      21.302   0.260  52.227  1.00  0.00     0.048 A 
ENDBRANCH  23  25
ENDBRANCH   8  23
TORSDOF 8
ENDMDL
MODEL 6
REMARK VINA RESULT:      -7.6      3.346      5.876
REMARK  8 active torsions:
REMARK  status: ('A' for Active; 'I' for Inactive)
REMARK    1  A    between atoms: N1_1  and  C1_2 
REMARK    2  A    between atoms: C1_2  and  C2_3 
REMARK    3  A    between atoms: C2_3  and  N2_4 
REMARK       I    between atoms: N2_4  and  C3_5 
REMARK    4  A    between atoms: C3_5  and  C4_7 
REMARK    5  A    between atoms: C5_8  and  C6_9 
REMARK    6  A    between atoms: C6_9  and  N3_10 
REMARK    7  A    between atoms: C11_17  and  N6_18 
REMARK    8  A    between atoms: N6_18  and  C12_19 
ROOT
HETATM    1  N3  UNL     1      26.541   5.219  49.001  1.00  0.00    -0.277 N 
HETATM    2  C7  UNL     1      25.847   4.478  50.005  1.00  0.00     0.126 A 
HETATM    3  C8  UNL     1      24.643   4.803  50.445  1.00  0.00     0.033 A 
HETATM    4  C9  UNL     1      23.974   5.993  49.874  1.00  0.00     0.088 A 
HETATM    5  N4  UNL     1      22.797   6.287  50.318  1.00  0.00    -0.240 NA
HETATM    6  C10 UNL     1      22.168   5.487  51.324  1.00  0.00     0.230 A 
HETATM    7  N5  UNL     1      22.719   4.444  51.845  1.00  0.00    -0.252 NA
HETATM    8  C11 UNL     1      24.013   3.954  51.488  1.00  0.00     0.245 A 
HETATM    9  C18 UNL     1      24.720   6.714  48.855  1.00  0.00     0.171 A 
HETATM   10  N7  UNL     1      25.894   6.356  48.458  1.00  0.00    -0.183 NA
ENDROOT
BRANCH   1  11
HETATM   11  C6  UNL     1      27.867   4.831  48.554  1.00  0.00     0.177 C 
BRANCH  11  12
HETATM   12  C5  UNL     1      28.695   5.948  48.118  1.00  0.00     0.000 C 
HETATM   13  C4  UNL     1      29.949   6.342  48.004  1.00  0.00     0.072 C 
BRANCH  13  14
HETATM   14  C3  UNL     1      31.096   5.503  48.405  1.00  0.00     0.240 C 
HETATM   15  N2  UNL     1      31.810   4.725  47.462  1.00  0.00    -0.356 N 
HETATM   16  H7  UNL     1      31.491   4.766  46.460  1.00  0.00     0.162 HD
HETATM   17  O1  UNL     1      31.399   5.522  49.623  1.00  0.00    -0.269 OA
BRANCH  15  18
HETATM   18  C2  UNL     1      32.941   3.885  47.799  1.00  0.00     0.152 C 
BRANCH  18  19
HETATM   19  C1  UNL     1      32.799   2.583  47.069  1.00  0.00     0.286 C 
BRANCH  19  20
HETATM   20  N1  UNL     1      31.619   2.689  46.219  1.00  0.00     0.079 N 
HETATM   21  H1  UNL     1      30.801   3.121  46.702  1.00  0.00     0.312 HD
HETATM   22  H2  UNL     1      31.867   3.267  45.369  1.00  0.00     0.312 HD
ENDBRANCH  19  20
ENDBRANCH  18  19
ENDBRANCH  15  18
ENDBRANCH  13  14
ENDBRANCH  11  12
ENDBRANCH   1  11
BRANCH   8  23
HETATM   23  N6  UNL     1      23.965   2.563  51.191  1.00  0.00    -0.363 N 
HETATM   24  H15 UNL     1      23.614   2.265  50.226  1.00  0.00     0.162 HD
BRANCH  23  25
HETATM   25  C12 UNL     1      24.317   1.465  51.987  1.00  0.00     0.031 A 
HETATM   26  C13 UNL     1      25.594   0.897  52.038  1.00  0.00     0.029 A 
HETATM   27  C14 UNL     1      25.900  -0.184  52.835  1.00  0.00     0.004 A 
HETATM   28  C15 UNL     1      24.948  -0.773  53.638  1.00  0.00     0.019 A 
HETATM   29  C16 UNL     1      23.683  -0.260  53.630  1.00  0.00     0.013 A 
HETATM   30 BR1  UNL     1      22.386  -1.085  54.743  1.00  0.00    -0.051 Br
HETATM   31  C17 UNL     1      23.419   0.825  52.817  1.00  0.00     0.048 A 
ENDBRANCH  23  25
ENDBRANCH   8  23
TORSDOF 8
ENDMDL
MODEL 7
REMARK VINA RESULT:      -7.5      3.624      6.165
REMARK  8 active torsions:
REMARK  status: ('A' for Active; 'I' for Inactive)
REMARK    1  A    between atoms: N1_1  and  C1_2 
REMARK    2  A    between atoms: C1_2  and  C2_3 
REMARK    3  A    between atoms: C2_3  and  N2_4 
REMARK       I    between atoms: N2_4  and  C3_5 
REMARK    4  A    between atoms: C3_5  and  C4_7 
REMARK    5  A    between atoms: C5_8  and  C6_9 
REMARK    6  A    between atoms: C6_9  and  N3_10 
REMARK    7  A    between atoms: C11_17  and  N6_18 
REMARK    8  A    between atoms: N6_18  and  C12_19 
ROOT
HETATM    1  N3  UNL     1      23.182  -0.113  53.728  1.00  0.00    -0.277 N 
HETATM    2  C7  UNL     1      24.110   0.818  53.170  1.00  0.00     0.126 A 
HETATM    3  C8  UNL     1      25.394   0.841  53.485  1.00  0.00     0.033 A 
HETATM    4  C9  UNL     1      25.905  -0.143  54.464  1.00  0.00     0.088 A 
HETATM    5  N4  UNL     1      27.163  -0.102  54.751  1.00  0.00    -0.240 NA
HETATM    6  C10 UNL     1      28.028   0.863  54.141  1.00  0.00     0.230 A 
HETATM    7  N5  UNL     1      27.619   1.735  53.284  1.00  0.00    -0.252 NA
HETATM    8  C11 UNL     1      26.268   1.852  52.835  1.00  0.00     0.245 A 
HETATM    9  C18 UNL     1      24.923  -1.070  55.004  1.00  0.00     0.171 A 
HETATM   10  N7  UNL     1      23.679  -1.053  54.664  1.00  0.00    -0.183 NA
ENDROOT
BRANCH   1  11
HETATM   11  C6  UNL     1      21.778  -0.096  53.361  1.00  0.00     0.177 C 
BRANCH  11  12
HETATM   12  C5  UNL     1      21.543   0.047  51.930  1.00  0.00     0.000 C 
HETATM   13  C4  UNL     1      21.093   0.890  51.019  1.00  0.00     0.072 C 
BRANCH  13  14
HETATM   14  C3  UNL     1      20.593   2.239  51.350  1.00  0.00     0.240 C 
HETATM   15  N2  UNL     1      21.170   3.401  50.783  1.00  0.00    -0.356 N 
HETATM   16  H7  UNL     1      21.972   3.268  50.115  1.00  0.00     0.162 HD
HETATM   17  O1  UNL     1      19.633   2.294  52.156  1.00  0.00    -0.269 OA
BRANCH  15  18
HETATM   18  C2  UNL     1      20.720   4.749  51.071  1.00  0.00     0.152 C 
BRANCH  18  19
HETATM   19  C1  UNL     1      21.847   5.495  51.720  1.00  0.00     0.286 C 
BRANCH  19  20
HETATM   20  N1  UNL     1      21.808   6.863  51.215  1.00  0.00     0.079 N 
HETATM   21  H1  UNL     1      20.909   7.102  50.743  1.00  0.00     0.312 HD
HETATM   22  H2  UNL     1      21.961   7.526  52.025  1.00  0.00     0.312 HD
ENDBRANCH  19  20
ENDBRANCH  18  19
ENDBRANCH  15  18
ENDBRANCH  13  14
ENDBRANCH  11  12
ENDBRANCH   1  11
BRANCH   8  23
HETATM   23  N6  UNL     1      26.207   1.881  51.413  1.00  0.00    -0.363 N 
HETATM   24  H15 UNL     1      26.416   0.979  50.880  1.00  0.00     0.162 HD
BRANCH  23  25
HETATM   25  C12 UNL     1      25.903   2.946  50.552  1.00  0.00     0.031 A 
HETATM   26  C13 UNL     1      24.609   3.329  50.188  1.00  0.00     0.029 A 
HETATM   27  C14 UNL     1      24.353   4.383  49.339  1.00  0.00     0.004 A 
HETATM   28  C15 UNL     1      25.376   5.127  48.792  1.00  0.00     0.019 A 
HETATM   29  C16 UNL     1      26.662   4.798  49.113  1.00  0.00     0.013 A 
HETATM   30 BR1  UNL     1      28.057   5.834  48.351  1.00  0.00    -0.051 Br
HETATM   31  C17 UNL     1      26.874   3.735  49.969  1.00  0.00     0.048 A 
ENDBRANCH  23  25
ENDBRANCH   8  23
TORSDOF 8
ENDMDL
MODEL 8
REMARK VINA RESULT:      -7.5      3.305      7.338
REMARK  8 active torsions:
REMARK  status: ('A' for Active; 'I' for Inactive)
REMARK    1  A    between atoms: N1_1  and  C1_2 
REMARK    2  A    between atoms: C1_2  and  C2_3 
REMARK    3  A    between atoms: C2_3  and  N2_4 
REMARK       I    between atoms: N2_4  and  C3_5 
REMARK    4  A    between atoms: C3_5  and  C4_7 
REMARK    5  A    between atoms: C5_8  and  C6_9 
REMARK    6  A    between atoms: C6_9  and  N3_10 
REMARK    7  A    between atoms: C11_17  and  N6_18 
REMARK    8  A    between atoms: N6_18  and  C12_19 
ROOT
HETATM    1  N3  UNL     1      22.651   4.933  50.776  1.00  0.00    -0.277 N 
HETATM    2  C7  UNL     1      23.798   4.082  50.762  1.00  0.00     0.126 A 
HETATM    3  C8  UNL     1      24.918   4.384  50.126  1.00  0.00     0.033 A 
HETATM    4  C9  UNL     1      24.996   5.665  49.390  1.00  0.00     0.088 A 
HETATM    5  N4  UNL     1      26.102   5.937  48.780  1.00  0.00    -0.240 NA
HETATM    6  C10 UNL     1      27.208   5.029  48.820  1.00  0.00     0.230 A 
HETATM    7  N5  UNL     1      27.178   3.905  49.451  1.00  0.00    -0.252 NA
HETATM    8  C11 UNL     1      26.050   3.424  50.186  1.00  0.00     0.245 A 
HETATM    9  C18 UNL     1      23.804   6.497  49.434  1.00  0.00     0.171 A 
HETATM   10  N7  UNL     1      22.734   6.159  50.070  1.00  0.00    -0.183 NA
ENDROOT
BRANCH   1  11
HETATM   11  C6  UNL     1      21.438   4.558  51.479  1.00  0.00     0.177 C 
BRANCH  11  12
HETATM   12  C5  UNL     1      20.859   3.299  51.029  1.00  0.00     0.000 C 
HETATM   13  C4  UNL     1      20.698   2.035  51.374  1.00  0.00     0.072 C 
BRANCH  13  14
HETATM   14  C3  UNL     1      21.217   1.474  52.638  1.00  0.00     0.240 C 
HETATM   15  N2  UNL     1      20.372   0.791  53.545  1.00  0.00    -0.356 N 
HETATM   16  H7  UNL     1      19.356   0.698  53.286  1.00  0.00     0.162 HD
HETATM   17  O1  UNL     1      22.441   1.636  52.856  1.00  0.00    -0.269 OA
BRANCH  15  18
HETATM   18  C2  UNL     1      20.826   0.220  54.798  1.00  0.00     0.152 C 
BRANCH  18  19
HETATM   19  C1  UNL     1      21.392  -1.139  54.522  1.00  0.00     0.286 C 
BRANCH  19  20
HETATM   20  N1  UNL     1      22.842  -1.039  54.646  1.00  0.00     0.079 N 
HETATM   21  H1  UNL     1      23.255  -0.294  54.044  1.00  0.00     0.312 HD
HETATM   22  H2  UNL     1      23.081  -0.843  55.656  1.00  0.00     0.312 HD
ENDBRANCH  19  20
ENDBRANCH  18  19
ENDBRANCH  15  18
ENDBRANCH  13  14
ENDBRANCH  11  12
ENDBRANCH   1  11
BRANCH   8  23
HETATM   23  N6  UNL     1      26.433   3.019  51.495  1.00  0.00    -0.363 N 
HETATM   24  H15 UNL     1      26.655   3.779  52.214  1.00  0.00     0.162 HD
BRANCH  23  25
HETATM   25  C12 UNL     1      26.577   1.731  52.028  1.00  0.00     0.031 A 
HETATM   26  C13 UNL     1      25.550   0.785  52.109  1.00  0.00     0.029 A 
HETATM   27  C14 UNL     1      25.732  -0.472  52.640  1.00  0.00     0.004 A 
HETATM   28  C15 UNL     1      26.957  -0.873  53.128  1.00  0.00     0.019 A 
HETATM   29  C16 UNL     1      27.998   0.009  53.074  1.00  0.00     0.013 A 
HETATM   30 BR1  UNL     1      29.676  -0.561  53.751  1.00  0.00    -0.051 Br
HETATM   31  C17 UNL     1      27.772   1.260  52.533  1.00  0.00     0.048 A 
ENDBRANCH  23  25
ENDBRANCH   8  23
TORSDOF 8
ENDMDL
MODEL 9
REMARK VINA RESULT:      -7.5      3.788      6.564
REMARK  8 active torsions:
REMARK  status: ('A' for Active; 'I' for Inactive)
REMARK    1  A    between atoms: N1_1  and  C1_2 
REMARK    2  A    between atoms: C1_2  and  C2_3 
REMARK    3  A    between atoms: C2_3  and  N2_4 
REMARK       I    between atoms: N2_4  and  C3_5 
REMARK    4  A    between atoms: C3_5  and  C4_7 
REMARK    5  A    between atoms: C5_8  and  C6_9 
REMARK    6  A    between atoms: C6_9  and  N3_10 
REMARK    7  A    between atoms: C11_17  and  N6_18 
REMARK    8  A    between atoms: N6_18  and  C12_19 
ROOT
HETATM    1  N3  UNL     1      23.450  -0.504  53.822  1.00  0.00    -0.277 N 
HETATM    2  C7  UNL     1      22.824   0.225  52.766  1.00  0.00     0.126 A 
HETATM    3  C8  UNL     1      21.519   0.218  52.552  1.00  0.00     0.033 A 
HETATM    4  C9  UNL     1      20.655  -0.583  53.447  1.00  0.00     0.088 A 
HETATM    5  N4  UNL     1      19.384  -0.570  53.219  1.00  0.00    -0.240 NA
HETATM    6  C10 UNL     1      18.837   0.193  52.139  1.00  0.00     0.230 A 
HETATM    7  N5  UNL     1      19.557   0.903  51.339  1.00  0.00    -0.252 NA
HETATM    8  C11 UNL     1      20.978   1.021  51.425  1.00  0.00     0.245 A 
HETATM    9  C18 UNL     1      21.338  -1.307  54.508  1.00  0.00     0.171 A 
HETATM   10  N7  UNL     1      22.616  -1.267  54.676  1.00  0.00    -0.183 NA
ENDROOT
BRANCH   1  11
HETATM   11  C6  UNL     1      24.888  -0.474  54.014  1.00  0.00     0.177 C 
BRANCH  11  12
HETATM   12  C5  UNL     1      25.627  -1.316  53.082  1.00  0.00     0.000 C 
HETATM   13  C4  UNL     1      26.848  -1.615  52.680  1.00  0.00     0.072 C 
BRANCH  13  14
HETATM   14  C3  UNL     1      28.058  -0.986  53.245  1.00  0.00     0.240 C 
HETATM   15  N2  UNL     1      28.009   0.285  53.867  1.00  0.00    -0.356 N 
HETATM   16  H7  UNL     1      27.075   0.767  53.913  1.00  0.00     0.162 HD
HETATM   17  O1  UNL     1      29.124  -1.640  53.141  1.00  0.00    -0.269 OA
BRANCH  15  18
HETATM   18  C2  UNL     1      29.164   0.949  54.439  1.00  0.00     0.152 C 
BRANCH  18  19
HETATM   19  C1  UNL     1      29.145   2.384  54.009  1.00  0.00     0.286 C 
BRANCH  19  20
HETATM   20  N1  UNL     1      27.750   2.762  53.815  1.00  0.00     0.079 N 
HETATM   21  H1  UNL     1      27.083   2.157  54.342  1.00  0.00     0.312 HD
HETATM   22  H2  UNL     1      27.626   3.766  54.122  1.00  0.00     0.312 HD
ENDBRANCH  19  20
ENDBRANCH  18  19
ENDBRANCH  15  18
ENDBRANCH  13  14
ENDBRANCH  11  12
ENDBRANCH   1  11
BRANCH   8  23
HETATM   23  N6  UNL     1      21.376   2.387  51.408  1.00  0.00    -0.363 N 
HETATM   24  H15 UNL     1      21.004   3.031  52.176  1.00  0.00     0.162 HD
BRANCH  23  25
HETATM   25  C12 UNL     1      22.214   3.064  50.511  1.00  0.00     0.031 A 
HETATM   26  C13 UNL     1      21.769   3.929  49.506  1.00  0.00     0.029 A 
HETATM   27  C14 UNL     1      22.626   4.576  48.644  1.00  0.00     0.004 A 
HETATM   28  C15 UNL     1      23.990   4.403  48.726  1.00  0.00     0.019 A 
HETATM   29  C16 UNL     1      24.483   3.570  49.690  1.00  0.00     0.013 A 
HETATM   30 BR1  UNL     1      26.364   3.345  49.787  1.00  0.00    -0.051 Br
HETATM   31  C17 UNL     1      23.588   2.941  50.534  1.00  0.00     0.048 A 
ENDBRANCH  23  25
ENDBRANCH   8  23
TORSDOF 8
ENDMDL
