MODEL 1
REMARK VINA RESULT:      -6.9      0.000      0.000
REMARK  4 active torsions:
REMARK  status: ('A' for Active; 'I' for Inactive)
REMARK    1  A    between atoms: O1_2  and  C2_3 
REMARK    2  A    between atoms: C2_3  and  C3_4 
REMARK    3  A    between atoms: C10_12  and  N2_13 
REMARK    4  A    between atoms: C15_19  and  N3_20 
ROOT
HETATM    1  C3  UNL     1      26.443  -0.145  52.625  1.00  0.00    -0.032 A 
HETATM    2  C4  UNL     1      26.795   0.965  51.875  1.00  0.00     0.010 A 
HETATM    3  C5  UNL     1      25.869   1.932  51.543  1.00  0.00     0.016 A 
HETATM    4  C6  UNL     1      24.551   1.852  51.932  1.00  0.00     0.017 A 
HETATM    5  C7  UNL     1      24.172   0.758  52.679  1.00  0.00     0.064 A 
HETATM    6  C8  UNL     1      25.104  -0.222  53.018  1.00  0.00     0.041 A 
HETATM    7  N1  UNL     1      22.936   0.687  53.042  1.00  0.00    -0.283 NA
HETATM    8  C9  UNL     1      22.292   1.871  52.508  1.00  0.00     0.207 A 
HETATM    9  C10 UNL     1      23.426   2.539  51.817  1.00  0.00     0.042 A 
ENDROOT
BRANCH   9  10
HETATM   10  N2  UNL     1      23.368   3.787  51.094  1.00  0.00    -0.349 N 
HETATM   11  C11 UNL     1      23.708   3.623  49.687  1.00  0.00     0.153 A 
HETATM   12  C12 UNL     1      23.684   4.972  49.035  1.00  0.00     0.008 A 
HETATM   13  C13 UNL     1      23.312   6.069  49.688  1.00  0.00    -0.010 A 
HETATM   14 BR1  UNL     1      23.291   7.792  48.820  1.00  0.00    -0.056 Br
HETATM   15  C14 UNL     1      22.875   6.194  51.095  1.00  0.00     0.103 A 
HETATM   16  C15 UNL     1      22.989   4.944  51.898  1.00  0.00     0.324 A 
BRANCH  16  17
HETATM   17  N3  UNL     1      23.891   5.099  53.037  1.00  0.00     0.101 N 
HETATM   18  H17 UNL     1      24.522   5.930  52.926  1.00  0.00     0.315 HD
HETATM   19  H18 UNL     1      23.258   5.307  53.865  1.00  0.00     0.315 HD
ENDBRANCH  16  17
ENDBRANCH   9  10
BRANCH   1  20
HETATM   20  C2  UNL     1      27.439  -1.179  52.978  1.00  0.00     0.205 C 
BRANCH  20  21
HETATM   21  O1  UNL     1      28.202  -0.879  54.086  1.00  0.00    -0.391 OA
HETATM   22  C1  UNL     1      29.555  -0.844  53.760  1.00  0.00     0.201 C 
ENDBRANCH  20  21
ENDBRANCH   1  20
TORSDOF 4
ENDMDL
MODEL 2
REMARK VINA RESULT:      -6.9      3.239      4.820
REMARK  4 active torsions:
REMARK  status: ('A' for Active; 'I' for Inactive)
REMARK    1  A    between atoms: O1_2  and  C2_3 
REMARK    2  A    between atoms: C2_3  and  C3_4 
REMARK    3  A    between atoms: C10_12  and  N2_13 
REMARK    4  A    between atoms: C15_19  and  N3_20 
ROOT
HETATM    1  C3  UNL     1      26.782   0.575  53.375  1.00  0.00    -0.032 A 
HETATM    2  C4  UNL     1      25.837  -0.419  53.561  1.00  0.00     0.010 A 
HETATM    3  C5  UNL     1      24.492  -0.179  53.367  1.00  0.00     0.016 A 
HETATM    4  C6  UNL     1      24.013   1.053  52.980  1.00  0.00     0.017 A 
HETATM    5  C7  UNL     1      24.932   2.061  52.787  1.00  0.00     0.064 A 
HETATM    6  C8  UNL     1      26.292   1.824  52.982  1.00  0.00     0.041 A 
HETATM    7  N1  UNL     1      24.480   3.214  52.424  1.00  0.00    -0.283 NA
HETATM    8  C9  UNL     1      23.041   3.068  52.328  1.00  0.00     0.207 A 
HETATM    9  C10 UNL     1      22.861   1.642  52.707  1.00  0.00     0.042 A 
ENDROOT
BRANCH   9  10
HETATM   10  N2  UNL     1      21.607   0.932  52.784  1.00  0.00    -0.349 N 
HETATM   11  C11 UNL     1      21.416   0.292  54.078  1.00  0.00     0.153 A 
HETATM   12  C12 UNL     1      20.127  -0.470  54.044  1.00  0.00     0.008 A 
HETATM   13  C13 UNL     1      19.310  -0.435  52.994  1.00  0.00    -0.010 A 
HETATM   14 BR1  UNL     1      17.655  -1.426  52.981  1.00  0.00    -0.056 Br
HETATM   15  C14 UNL     1      19.480   0.305  51.726  1.00  0.00     0.103 A 
HETATM   16  C15 UNL     1      20.793   0.993  51.574  1.00  0.00     0.324 A 
BRANCH  16  17
HETATM   17  N3  UNL     1      21.544   0.501  50.421  1.00  0.00     0.101 N 
HETATM   18  H17 UNL     1      22.297   1.171  50.130  1.00  0.00     0.315 HD
HETATM   19  H18 UNL     1      22.036  -0.376  50.766  1.00  0.00     0.315 HD
ENDBRANCH  16  17
ENDBRANCH   9  10
BRANCH   1  20
HETATM   20  C2  UNL     1      28.221   0.313  53.585  1.00  0.00     0.205 C 
BRANCH  20  21
HETATM   21  O1  UNL     1      28.500  -0.913  54.151  1.00  0.00    -0.391 OA
HETATM   22  C1  UNL     1      29.383  -1.636  53.354  1.00  0.00     0.201 C 
ENDBRANCH  20  21
ENDBRANCH   1  20
TORSDOF 4
ENDMDL
MODEL 3
REMARK VINA RESULT:      -6.8      4.089      5.898
REMARK  4 active torsions:
REMARK  status: ('A' for Active; 'I' for Inactive)
REMARK    1  A    between atoms: O1_2  and  C2_3 
REMARK    2  A    between atoms: C2_3  and  C3_4 
REMARK    3  A    between atoms: C10_12  and  N2_13 
REMARK    4  A    between atoms: C15_19  and  N3_20 
ROOT
HETATM    1  C3  UNL     1      27.527   5.688  48.588  1.00  0.00    -0.032 A 
HETATM    2  C4  UNL     1      27.504   4.354  48.958  1.00  0.00     0.010 A 
HETATM    3  C5  UNL     1      26.445   3.821  49.664  1.00  0.00     0.016 A 
HETATM    4  C6  UNL     1      25.358   4.576  50.041  1.00  0.00     0.017 A 
HETATM    5  C7  UNL     1      25.354   5.908  49.687  1.00  0.00     0.064 A 
HETATM    6  C8  UNL     1      26.421   6.451  48.973  1.00  0.00     0.041 A 
HETATM    7  N1  UNL     1      24.334   6.613  50.042  1.00  0.00    -0.283 NA
HETATM    8  C9  UNL     1      23.450   5.711  50.753  1.00  0.00     0.207 A 
HETATM    9  C10 UNL     1      24.213   4.437  50.688  1.00  0.00     0.042 A 
ENDROOT
BRANCH   9  10
HETATM   10  N2  UNL     1      23.804   3.169  51.244  1.00  0.00    -0.349 N 
HETATM   11  C11 UNL     1      22.686   2.584  50.516  1.00  0.00     0.153 A 
HETATM   12  C12 UNL     1      22.293   1.310  51.199  1.00  0.00     0.008 A 
HETATM   13  C13 UNL     1      22.968   0.823  52.236  1.00  0.00    -0.010 A 
HETATM   14 BR1  UNL     1      22.436  -0.822  53.094  1.00  0.00    -0.056 Br
HETATM   15  C14 UNL     1      24.164   1.387  52.897  1.00  0.00     0.103 A 
HETATM   16  C15 UNL     1      24.576   2.731  52.402  1.00  0.00     0.324 A 
BRANCH  16  17
HETATM   17  N3  UNL     1      24.542   3.742  53.458  1.00  0.00     0.101 N 
HETATM   18  H17 UNL     1      23.642   4.279  53.455  1.00  0.00     0.315 HD
HETATM   19  H18 UNL     1      24.566   3.192  54.367  1.00  0.00     0.315 HD
ENDBRANCH  16  17
ENDBRANCH   9  10
BRANCH   1  20
HETATM   20  C2  UNL     1      28.664   6.254  47.833  1.00  0.00     0.205 C 
BRANCH  20  21
HETATM   21  O1  UNL     1      29.838   5.540  47.950  1.00  0.00    -0.391 OA
HETATM   22  C1  UNL     1      30.843   6.328  48.502  1.00  0.00     0.201 C 
ENDBRANCH  20  21
ENDBRANCH   1  20
TORSDOF 4
ENDMDL
MODEL 4
REMARK VINA RESULT:      -6.7      4.089      6.739
REMARK  4 active torsions:
REMARK  status: ('A' for Active; 'I' for Inactive)
REMARK    1  A    between atoms: O1_2  and  C2_3 
REMARK    2  A    between atoms: C2_3  and  C3_4 
REMARK    3  A    between atoms: C10_12  and  N2_13 
REMARK    4  A    between atoms: C15_19  and  N3_20 
ROOT
HETATM    1  C3  UNL     1      24.903   4.986  49.367  1.00  0.00    -0.032 A 
HETATM    2  C4  UNL     1      26.151   4.388  49.411  1.00  0.00     0.010 A 
HETATM    3  C5  UNL     1      26.433   3.375  50.306  1.00  0.00     0.016 A 
HETATM    4  C6  UNL     1      25.499   2.903  51.200  1.00  0.00     0.017 A 
HETATM    5  C7  UNL     1      24.248   3.479  51.178  1.00  0.00     0.064 A 
HETATM    6  C8  UNL     1      23.958   4.502  50.277  1.00  0.00     0.041 A 
HETATM    7  N1  UNL     1      23.375   3.034  52.018  1.00  0.00    -0.283 NA
HETATM    8  C9  UNL     1      24.040   1.989  52.771  1.00  0.00     0.207 A 
HETATM    9  C10 UNL     1      25.394   1.997  52.159  1.00  0.00     0.042 A 
ENDROOT
BRANCH   9  10
HETATM   10  N2  UNL     1      26.500   1.144  52.522  1.00  0.00    -0.349 N 
HETATM   11  C11 UNL     1      26.183  -0.268  52.359  1.00  0.00     0.153 A 
HETATM   12  C12 UNL     1      27.360  -1.073  52.818  1.00  0.00     0.008 A 
HETATM   13  C13 UNL     1      28.499  -0.507  53.207  1.00  0.00    -0.010 A 
HETATM   14 BR1  UNL     1      29.997  -1.572  53.792  1.00  0.00    -0.056 Br
HETATM   15  C14 UNL     1      28.831   0.932  53.270  1.00  0.00     0.103 A 
HETATM   16  C15 UNL     1      27.695   1.850  52.973  1.00  0.00     0.324 A 
BRANCH  16  17
HETATM   17  N3  UNL     1      27.383   2.726  54.101  1.00  0.00     0.101 N 
HETATM   18  H17 UNL     1      27.660   3.719  53.913  1.00  0.00     0.315 HD
HETATM   19  H18 UNL     1      26.323   2.714  54.174  1.00  0.00     0.315 HD
ENDBRANCH  16  17
ENDBRANCH   9  10
BRANCH   1  20
HETATM   20  C2  UNL     1      24.606   6.070  48.409  1.00  0.00     0.205 C 
BRANCH  20  21
HETATM   21  O1  UNL     1      25.716   6.759  47.967  1.00  0.00    -0.391 OA
HETATM   22  C1  UNL     1      25.375   8.054  47.585  1.00  0.00     0.201 C 
ENDBRANCH  20  21
ENDBRANCH   1  20
TORSDOF 4
ENDMDL
MODEL 5
REMARK VINA RESULT:      -6.7      2.394      2.860
REMARK  4 active torsions:
REMARK  status: ('A' for Active; 'I' for Inactive)
REMARK    1  A    between atoms: O1_2  and  C2_3 
REMARK    2  A    between atoms: C2_3  and  C3_4 
REMARK    3  A    between atoms: C10_12  and  N2_13 
REMARK    4  A    between atoms: C15_19  and  N3_20 
ROOT
HETATM    1  C3  UNL     1      25.893   0.495  52.841  1.00  0.00    -0.032 A 
HETATM    2  C4  UNL     1      26.953   1.314  52.490  1.00  0.00     0.010 A 
HETATM    3  C5  UNL     1      26.788   2.371  51.617  1.00  0.00     0.016 A 
HETATM    4  C6  UNL     1      25.571   2.672  51.049  1.00  0.00     0.017 A 
HETATM    5  C7  UNL     1      24.498   1.873  51.381  1.00  0.00     0.064 A 
HETATM    6  C8  UNL     1      24.659   0.804  52.262  1.00  0.00     0.041 A 
HETATM    7  N1  UNL     1      23.358   2.158  50.846  1.00  0.00    -0.283 NA
HETATM    8  C9  UNL     1      23.589   3.315  50.004  1.00  0.00     0.207 A 
HETATM    9  C10 UNL     1      25.041   3.552  50.216  1.00  0.00     0.042 A 
ENDROOT
BRANCH   9  10
HETATM   10  N2  UNL     1      25.831   4.598  49.614  1.00  0.00    -0.349 N 
HETATM   11  C11 UNL     1      27.074   4.093  49.047  1.00  0.00     0.153 A 
HETATM   12  C12 UNL     1      27.852   5.253  48.505  1.00  0.00     0.008 A 
HETATM   13  C13 UNL     1      27.369   6.492  48.501  1.00  0.00    -0.010 A 
HETATM   14 BR1  UNL     1      28.397   7.964  47.795  1.00  0.00    -0.056 Br
HETATM   15  C14 UNL     1      26.059   6.965  48.995  1.00  0.00     0.103 A 
HETATM   16  C15 UNL     1      25.241   5.931  49.689  1.00  0.00     0.324 A 
BRANCH  16  17
HETATM   17  N3  UNL     1      24.957   6.292  51.077  1.00  0.00     0.101 N 
HETATM   18  H17 UNL     1      24.232   5.666  51.503  1.00  0.00     0.315 HD
HETATM   19  H18 UNL     1      25.863   6.108  51.600  1.00  0.00     0.315 HD
ENDBRANCH  16  17
ENDBRANCH   9  10
BRANCH   1  20
HETATM   20  C2  UNL     1      26.076  -0.635  53.775  1.00  0.00     0.205 C 
BRANCH  20  21
HETATM   21  O1  UNL     1      27.215  -1.380  53.552  1.00  0.00    -0.391 OA
HETATM   22  C1  UNL     1      27.032  -2.258  52.488  1.00  0.00     0.201 C 
ENDBRANCH  20  21
ENDBRANCH   1  20
TORSDOF 4
ENDMDL
MODEL 6
REMARK VINA RESULT:      -6.7      1.797      2.416
REMARK  4 active torsions:
REMARK  status: ('A' for Active; 'I' for Inactive)
REMARK    1  A    between atoms: O1_2  and  C2_3 
REMARK    2  A    between atoms: C2_3  and  C3_4 
REMARK    3  A    between atoms: C10_12  and  N2_13 
REMARK    4  A    between atoms: C15_19  and  N3_20 
ROOT
HETATM    1  C3  UNL     1      26.630  -0.206  52.847  1.00  0.00    -0.032 A 
HETATM    2  C4  UNL     1      26.526   0.828  51.932  1.00  0.00     0.010 A 
HETATM    3  C5  UNL     1      25.311   1.418  51.647  1.00  0.00     0.016 A 
HETATM    4  C6  UNL     1      24.140   1.017  52.250  1.00  0.00     0.017 A 
HETATM    5  C7  UNL     1      24.214  -0.010  53.165  1.00  0.00     0.064 A 
HETATM    6  C8  UNL     1      25.439  -0.609  53.457  1.00  0.00     0.041 A 
HETATM    7  N1  UNL     1      23.114  -0.383  53.728  1.00  0.00    -0.283 NA
HETATM    8  C9  UNL     1      22.075   0.462  53.176  1.00  0.00     0.207 A 
HETATM    9  C10 UNL     1      22.852   1.317  52.242  1.00  0.00     0.042 A 
ENDROOT
BRANCH   9  10
HETATM   10  N2  UNL     1      22.322   2.365  51.403  1.00  0.00    -0.349 N 
HETATM   11  C11 UNL     1      21.934   3.541  52.170  1.00  0.00     0.153 A 
HETATM   12  C12 UNL     1      21.339   4.544  51.229  1.00  0.00     0.008 A 
HETATM   13  C13 UNL     1      21.298   4.347  49.914  1.00  0.00    -0.010 A 
HETATM   14 BR1  UNL     1      20.527   5.659  48.729  1.00  0.00    -0.056 Br
HETATM   15  C14 UNL     1      21.790   3.182  49.148  1.00  0.00     0.103 A 
HETATM   16  C15 UNL     1      22.279   2.047  49.979  1.00  0.00     0.324 A 
BRANCH  16  17
HETATM   17  N3  UNL     1      21.515   0.823  49.746  1.00  0.00     0.101 N 
HETATM   18  H17 UNL     1      20.750   0.700  50.452  1.00  0.00     0.315 HD
HETATM   19  H18 UNL     1      21.041   0.969  48.806  1.00  0.00     0.315 HD
ENDBRANCH  16  17
ENDBRANCH   9  10
BRANCH   1  20
HETATM   20  C2  UNL     1      27.933  -0.834  53.148  1.00  0.00     0.205 C 
BRANCH  20  21
HETATM   21  O1  UNL     1      28.315  -0.747  54.470  1.00  0.00    -0.391 OA
HETATM   22  C1  UNL     1      28.833   0.513  54.755  1.00  0.00     0.201 C 
ENDBRANCH  20  21
ENDBRANCH   1  20
TORSDOF 4
ENDMDL
MODEL 7
REMARK VINA RESULT:      -6.5      4.747      6.207
REMARK  4 active torsions:
REMARK  status: ('A' for Active; 'I' for Inactive)
REMARK    1  A    between atoms: O1_2  and  C2_3 
REMARK    2  A    between atoms: C2_3  and  C3_4 
REMARK    3  A    between atoms: C10_12  and  N2_13 
REMARK    4  A    between atoms: C15_19  and  N3_20 
ROOT
HETATM    1  C3  UNL     1      28.909   5.870  48.173  1.00  0.00    -0.032 A 
HETATM    2  C4  UNL     1      28.073   4.843  48.578  1.00  0.00     0.010 A 
HETATM    3  C5  UNL     1      26.775   5.087  48.979  1.00  0.00     0.016 A 
HETATM    4  C6  UNL     1      26.238   6.354  49.000  1.00  0.00     0.017 A 
HETATM    5  C7  UNL     1      27.047   7.396  48.601  1.00  0.00     0.064 A 
HETATM    6  C8  UNL     1      28.359   7.155  48.195  1.00  0.00     0.041 A 
HETATM    7  N1  UNL     1      26.540   8.582  48.622  1.00  0.00    -0.283 NA
HETATM    8  C9  UNL     1      25.178   8.428  49.093  1.00  0.00     0.207 A 
HETATM    9  C10 UNL     1      25.101   6.959  49.303  1.00  0.00     0.042 A 
ENDROOT
BRANCH   9  10
HETATM   10  N2  UNL     1      23.952   6.224  49.775  1.00  0.00    -0.349 N 
HETATM   11  C11 UNL     1      22.925   6.090  48.751  1.00  0.00     0.153 A 
HETATM   12  C12 UNL     1      21.753   5.374  49.348  1.00  0.00     0.008 A 
HETATM   13  C13 UNL     1      21.771   4.893  50.588  1.00  0.00    -0.010 A 
HETATM   14 BR1  UNL     1      20.244   3.975  51.327  1.00  0.00    -0.056 Br
HETATM   15  C14 UNL     1      22.867   4.956  51.578  1.00  0.00     0.103 A 
HETATM   16  C15 UNL     1      24.043   5.768  51.158  1.00  0.00     0.324 A 
BRANCH  16  17
HETATM   17  N3  UNL     1      24.286   6.894  52.058  1.00  0.00     0.101 N 
HETATM   18  H17 UNL     1      23.901   7.791  51.675  1.00  0.00     0.315 HD
HETATM   19  H18 UNL     1      23.727   6.672  52.934  1.00  0.00     0.315 HD
ENDBRANCH  16  17
ENDBRANCH   9  10
BRANCH   1  20
HETATM   20  C2  UNL     1      30.298   5.603  47.745  1.00  0.00     0.205 C 
BRANCH  20  21
HETATM   21  O1  UNL     1      31.107   5.081  48.732  1.00  0.00    -0.391 OA
HETATM   22  C1  UNL     1      31.698   6.097  49.477  1.00  0.00     0.201 C 
ENDBRANCH  20  21
ENDBRANCH   1  20
TORSDOF 4
ENDMDL
MODEL 8
REMARK VINA RESULT:      -6.4      4.318      5.527
REMARK  4 active torsions:
REMARK  status: ('A' for Active; 'I' for Inactive)
REMARK    1  A    between atoms: O1_2  and  C2_3 
REMARK    2  A    between atoms: C2_3  and  C3_4 
REMARK    3  A    between atoms: C10_12  and  N2_13 
REMARK    4  A    between atoms: C15_19  and  N3_20 
ROOT
HETATM    1  C3  UNL     1      28.641   5.901  48.248  1.00  0.00    -0.032 A 
HETATM    2  C4  UNL     1      27.800   6.999  48.202  1.00  0.00     0.010 A 
HETATM    3  C5  UNL     1      26.471   6.904  48.566  1.00  0.00     0.016 A 
HETATM    4  C6  UNL     1      25.909   5.723  48.993  1.00  0.00     0.017 A 
HETATM    5  C7  UNL     1      26.723   4.613  49.050  1.00  0.00     0.064 A 
HETATM    6  C8  UNL     1      28.066   4.703  48.683  1.00  0.00     0.041 A 
HETATM    7  N1  UNL     1      26.193   3.507  49.450  1.00  0.00    -0.283 NA
HETATM    8  C9  UNL     1      24.804   3.810  49.736  1.00  0.00     0.207 A 
HETATM    9  C10 UNL     1      24.741   5.257  49.405  1.00  0.00     0.042 A 
ENDROOT
BRANCH   9  10
HETATM   10  N2  UNL     1      23.577   6.104  49.502  1.00  0.00    -0.349 N 
HETATM   11  C11 UNL     1      23.064   6.487  48.194  1.00  0.00     0.153 A 
HETATM   12  C12 UNL     1      21.902   7.412  48.394  1.00  0.00     0.008 A 
HETATM   13  C13 UNL     1      21.429   7.706  49.602  1.00  0.00    -0.010 A 
HETATM   14 BR1  UNL     1      19.931   8.901  49.825  1.00  0.00    -0.056 Br
HETATM   15  C14 UNL     1      21.908   7.225  50.915  1.00  0.00     0.103 A 
HETATM   16  C15 UNL     1      23.152   6.406  50.865  1.00  0.00     0.324 A 
BRANCH  16  17
HETATM   17  N3  UNL     1      24.243   7.013  51.625  1.00  0.00     0.101 N 
HETATM   18  H17 UNL     1      24.907   6.293  51.999  1.00  0.00     0.315 HD
HETATM   19  H18 UNL     1      24.786   7.588  50.915  1.00  0.00     0.315 HD
ENDBRANCH  16  17
ENDBRANCH   9  10
BRANCH   1  20
HETATM   20  C2  UNL     1      30.062   6.007  47.857  1.00  0.00     0.205 C 
BRANCH  20  21
HETATM   21  O1  UNL     1      30.910   5.178  48.559  1.00  0.00    -0.391 OA
HETATM   22  C1  UNL     1      31.850   5.918  49.270  1.00  0.00     0.201 C 
ENDBRANCH  20  21
ENDBRANCH   1  20
TORSDOF 4
ENDMDL
MODEL 9
REMARK VINA RESULT:      -6.2      2.873      3.066
REMARK  4 active torsions:
REMARK  status: ('A' for Active; 'I' for Inactive)
REMARK    1  A    between atoms: O1_2  and  C2_3 
REMARK    2  A    between atoms: C2_3  and  C3_4 
REMARK    3  A    between atoms: C10_12  and  N2_13 
REMARK    4  A    between atoms: C15_19  and  N3_20 
ROOT
HETATM    1  C3  UNL     1      25.943   0.569  53.247  1.00  0.00    -0.032 A 
HETATM    2  C4  UNL     1      25.592   1.402  52.198  1.00  0.00     0.010 A 
HETATM    3  C5  UNL     1      24.292   1.476  51.742  1.00  0.00     0.016 A 
HETATM    4  C6  UNL     1      23.274   0.734  52.298  1.00  0.00     0.017 A 
HETATM    5  C7  UNL     1      23.595  -0.104  53.344  1.00  0.00     0.064 A 
HETATM    6  C8  UNL     1      24.907  -0.183  53.808  1.00  0.00     0.041 A 
HETATM    7  N1  UNL     1      22.639  -0.798  53.862  1.00  0.00    -0.283 NA
HETATM    8  C9  UNL     1      21.443  -0.448  53.123  1.00  0.00     0.207 A 
HETATM    9  C10 UNL     1      21.974   0.540  52.148  1.00  0.00     0.042 A 
ENDROOT
BRANCH   9  10
HETATM   10  N2  UNL     1      21.214   1.237  51.139  1.00  0.00    -0.349 N 
HETATM   11  C11 UNL     1      21.558   0.802  49.792  1.00  0.00     0.153 A 
HETATM   12  C12 UNL     1      20.770   1.620  48.815  1.00  0.00     0.008 A 
HETATM   13  C13 UNL     1      19.861   2.509  49.205  1.00  0.00    -0.010 A 
HETATM   14 BR1  UNL     1      18.863   3.547  47.921  1.00  0.00    -0.056 Br
HETATM   15  C14 UNL     1      19.458   2.863  50.582  1.00  0.00     0.103 A 
HETATM   16  C15 UNL     1      20.268   2.221  51.655  1.00  0.00     0.324 A 
BRANCH  16  17
HETATM   17  N3  UNL     1      20.951   3.203  52.494  1.00  0.00     0.101 N 
HETATM   18  H17 UNL     1      20.454   4.126  52.500  1.00  0.00     0.315 HD
HETATM   19  H18 UNL     1      20.885   2.816  53.482  1.00  0.00     0.315 HD
ENDBRANCH  16  17
ENDBRANCH   9  10
BRANCH   1  20
HETATM   20  C2  UNL     1      27.338   0.493  53.730  1.00  0.00     0.205 C 
BRANCH  20  21
HETATM   21  O1  UNL     1      27.733  -0.766  54.130  1.00  0.00    -0.391 OA
HETATM   22  C1  UNL     1      28.850  -1.185  53.412  1.00  0.00     0.201 C 
ENDBRANCH  20  21
ENDBRANCH   1  20
TORSDOF 4
ENDMDL
