MODEL 1
REMARK VINA RESULT:      -8.4      0.000      0.000
REMARK  1 active torsions:
REMARK  status: ('A' for Active; 'I' for Inactive)
REMARK    1  A    between atoms: C4_5  and  N1_6 
ROOT
HETATM    1  N1  UNL     1      23.936   1.406  52.019  1.00  0.00    -0.277 N 
HETATM    2  N2  UNL     1      22.684   0.740  52.099  1.00  0.00    -0.291 N 
HETATM    3  C5  UNL     1      22.505  -0.432  52.927  1.00  0.00     0.223 C 
HETATM    4  N3  UNL     1      23.531  -0.865  53.605  1.00  0.00    -0.245 NA
HETATM    5  C6  UNL     1      24.794  -0.201  53.531  1.00  0.00     0.063 C 
HETATM    6  C7  UNL     1      25.672  -0.210  54.523  1.00  0.00     0.041 C 
HETATM    7  C8  UNL     1      26.993   0.465  54.488  1.00  0.00     0.202 C 
HETATM    8  O1  UNL     1      28.001  -0.283  55.022  1.00  0.00    -0.373 OA
HETATM    9  C9  UNL     1      29.124  -0.450  54.254  1.00  0.00     0.195 C 
HETATM   10  C10 UNL     1      29.601   0.852  53.626  1.00  0.00     0.201 C 
HETATM   11  O2  UNL     1      28.492   1.504  52.988  1.00  0.00    -0.351 OA
HETATM   12  C11 UNL     1      27.213   0.990  53.142  1.00  0.00     0.077 C 
HETATM   13  C12 UNL     1      26.368   1.025  52.105  1.00  0.00     0.041 C 
HETATM   14  C13 UNL     1      24.999   0.489  52.224  1.00  0.00     0.185 C 
HETATM   15  H3  UNL     1      21.773   0.970  51.621  1.00  0.00     0.188 HD
ENDROOT
BRANCH   1  16
HETATM   16  C4  UNL     1      23.845   2.791  51.752  1.00  0.00     0.053 A 
HETATM   17  C3  UNL     1      23.673   3.707  52.759  1.00  0.00     0.034 A 
HETATM   18  C2  UNL     1      23.591   5.059  52.517  1.00  0.00     0.046 A 
HETATM   19  C1  UNL     1      23.677   5.582  51.243  1.00  0.00     0.138 A 
HETATM   20  F1  UNL     1      23.597   6.912  50.995  1.00  0.00    -0.204 F 
HETATM   21  C15 UNL     1      23.852   4.686  50.196  1.00  0.00     0.074 A 
HETATM   22  C14 UNL     1      23.927   3.341  50.494  1.00  0.00     0.058 A 
HETATM   23 CL1  UNL     1      23.965   5.321  48.571  1.00  0.00    -0.081 Cl
ENDBRANCH   1  16
TORSDOF 1
ENDMDL
MODEL 2
REMARK VINA RESULT:      -8.2      2.494      3.147
REMARK  1 active torsions:
REMARK  status: ('A' for Active; 'I' for Inactive)
REMARK    1  A    between atoms: C4_5  and  N1_6 
ROOT
HETATM    1  N1  UNL     1      25.035   3.380  50.300  1.00  0.00    -0.277 N 
HETATM    2  N2  UNL     1      23.654   3.313  49.973  1.00  0.00    -0.291 N 
HETATM    3  C5  UNL     1      22.713   2.607  50.814  1.00  0.00     0.223 C 
HETATM    4  N3  UNL     1      23.168   2.028  51.890  1.00  0.00    -0.245 NA
HETATM    5  C6  UNL     1      24.556   2.090  52.227  1.00  0.00     0.063 C 
HETATM    6  C7  UNL     1      24.997   2.031  53.474  1.00  0.00     0.041 C 
HETATM    7  C8  UNL     1      26.427   2.092  53.867  1.00  0.00     0.202 C 
HETATM    8  O1  UNL     1      26.760   1.202  54.847  1.00  0.00    -0.373 OA
HETATM    9  C9  UNL     1      27.837   0.391  54.608  1.00  0.00     0.195 C 
HETATM   10  C10 UNL     1      29.031   1.152  54.048  1.00  0.00     0.201 C 
HETATM   11  O2  UNL     1      28.598   1.967  52.947  1.00  0.00    -0.351 OA
HETATM   12  C11 UNL     1      27.245   2.065  52.657  1.00  0.00     0.077 C 
HETATM   13  C12 UNL     1      26.856   2.120  51.378  1.00  0.00     0.041 C 
HETATM   14  C13 UNL     1      25.428   2.225  51.023  1.00  0.00     0.185 C 
HETATM   15  H3  UNL     1      23.140   3.730  49.151  1.00  0.00     0.188 HD
ENDROOT
BRANCH   1  16
HETATM   16  C4  UNL     1      25.689   4.543  49.836  1.00  0.00     0.053 A 
HETATM   17  C3  UNL     1      26.792   4.470  49.022  1.00  0.00     0.034 A 
HETATM   18  C2  UNL     1      27.436   5.593  48.554  1.00  0.00     0.046 A 
HETATM   19  C1  UNL     1      27.012   6.866  48.873  1.00  0.00     0.138 A 
HETATM   20  F1  UNL     1      27.640   7.977  48.417  1.00  0.00    -0.204 F 
HETATM   21  C15 UNL     1      25.898   6.982  49.694  1.00  0.00     0.074 A 
HETATM   22  C14 UNL     1      25.291   5.824  50.136  1.00  0.00     0.058 A 
HETATM   23 CL1  UNL     1      25.339   8.585  50.114  1.00  0.00    -0.081 Cl
ENDBRANCH   1  16
TORSDOF 1
ENDMDL
MODEL 3
REMARK VINA RESULT:      -8.2      3.636      5.976
REMARK  1 active torsions:
REMARK  status: ('A' for Active; 'I' for Inactive)
REMARK    1  A    between atoms: C4_5  and  N1_6 
ROOT
HETATM    1  N1  UNL     1      24.539   0.336  53.450  1.00  0.00    -0.277 N 
HETATM    2  N2  UNL     1      23.734  -0.706  53.982  1.00  0.00    -0.291 N 
HETATM    3  C5  UNL     1      22.375  -0.914  53.532  1.00  0.00     0.223 C 
HETATM    4  N3  UNL     1      21.903  -0.113  52.618  1.00  0.00    -0.245 NA
HETATM    5  C6  UNL     1      22.706   0.938  52.076  1.00  0.00     0.063 C 
HETATM    6  C7  UNL     1      22.543   1.410  50.850  1.00  0.00     0.041 C 
HETATM    7  C8  UNL     1      23.353   2.499  50.250  1.00  0.00     0.202 C 
HETATM    8  O1  UNL     1      22.614   3.396  49.535  1.00  0.00    -0.373 OA
HETATM    9  C9  UNL     1      22.784   4.721  49.839  1.00  0.00     0.195 C 
HETATM   10  C10 UNL     1      24.250   5.110  49.969  1.00  0.00     0.201 C 
HETATM   11  O2  UNL     1      24.912   4.174  50.835  1.00  0.00    -0.351 OA
HETATM   12  C11 UNL     1      24.230   3.051  51.281  1.00  0.00     0.077 C 
HETATM   13  C12 UNL     1      24.434   2.619  52.531  1.00  0.00     0.041 C 
HETATM   14  C13 UNL     1      23.730   1.429  53.045  1.00  0.00     0.185 C 
HETATM   15  H3  UNL     1      23.972  -1.429  54.712  1.00  0.00     0.188 HD
ENDROOT
BRANCH   1  16
HETATM   16  C4  UNL     1      25.925   0.062  53.452  1.00  0.00     0.053 A 
HETATM   17  C3  UNL     1      26.426  -1.113  52.951  1.00  0.00     0.034 A 
HETATM   18  C2  UNL     1      27.773  -1.393  52.937  1.00  0.00     0.046 A 
HETATM   19  C1  UNL     1      28.710  -0.505  53.426  1.00  0.00     0.138 A 
HETATM   20  F1  UNL     1      30.038  -0.771  53.417  1.00  0.00    -0.204 F 
HETATM   21  C15 UNL     1      28.243   0.697  53.942  1.00  0.00     0.074 A 
HETATM   22  C14 UNL     1      26.882   0.926  53.931  1.00  0.00     0.058 A 
HETATM   23 CL1  UNL     1      29.408   1.840  54.568  1.00  0.00    -0.081 Cl
ENDBRANCH   1  16
TORSDOF 1
ENDMDL
MODEL 4
REMARK VINA RESULT:      -8.0      4.121      6.556
REMARK  1 active torsions:
REMARK  status: ('A' for Active; 'I' for Inactive)
REMARK    1  A    between atoms: C4_5  and  N1_6 
ROOT
HETATM    1  N1  UNL     1      25.989   2.653  50.910  1.00  0.00    -0.277 N 
HETATM    2  N2  UNL     1      26.810   3.530  50.152  1.00  0.00    -0.291 N 
HETATM    3  C5  UNL     1      26.323   4.811  49.692  1.00  0.00     0.223 C 
HETATM    4  N3  UNL     1      25.099   5.146  49.994  1.00  0.00    -0.245 NA
HETATM    5  C6  UNL     1      24.266   4.270  50.757  1.00  0.00     0.063 C 
HETATM    6  C7  UNL     1      23.289   4.706  51.538  1.00  0.00     0.041 C 
HETATM    7  C8  UNL     1      22.401   3.833  52.345  1.00  0.00     0.202 C 
HETATM    8  O1  UNL     1      21.090   4.212  52.314  1.00  0.00    -0.373 OA
HETATM    9  C9  UNL     1      20.173   3.246  51.992  1.00  0.00     0.195 C 
HETATM   10  C10 UNL     1      20.410   1.941  52.739  1.00  0.00     0.201 C 
HETATM   11  O2  UNL     1      21.790   1.567  52.611  1.00  0.00    -0.351 OA
HETATM   12  C11 UNL     1      22.685   2.439  52.008  1.00  0.00     0.077 C 
HETATM   13  C12 UNL     1      23.652   1.943  51.228  1.00  0.00     0.041 C 
HETATM   14  C13 UNL     1      24.624   2.834  50.567  1.00  0.00     0.185 C 
HETATM   15  H3  UNL     1      27.809   3.405  49.837  1.00  0.00     0.188 HD
ENDROOT
BRANCH   1  16
HETATM   16  C4  UNL     1      26.696   1.816  51.802  1.00  0.00     0.053 A 
HETATM   17  C3  UNL     1      27.540   2.331  52.753  1.00  0.00     0.034 A 
HETATM   18  C2  UNL     1      28.229   1.531  53.636  1.00  0.00     0.046 A 
HETATM   19  C1  UNL     1      28.114   0.156  53.621  1.00  0.00     0.138 A 
HETATM   20  F1  UNL     1      28.789  -0.640  54.485  1.00  0.00    -0.204 F 
HETATM   21  C15 UNL     1      27.268  -0.404  52.672  1.00  0.00     0.074 A 
HETATM   22  C14 UNL     1      26.602   0.444  51.811  1.00  0.00     0.058 A 
HETATM   23 CL1  UNL     1      27.104  -2.144  52.630  1.00  0.00    -0.081 Cl
ENDBRANCH   1  16
TORSDOF 1
ENDMDL
MODEL 5
REMARK VINA RESULT:      -7.7      4.072      6.218
REMARK  1 active torsions:
REMARK  status: ('A' for Active; 'I' for Inactive)
REMARK    1  A    between atoms: C4_5  and  N1_6 
ROOT
HETATM    1  N1  UNL     1      23.358   0.588  53.358  1.00  0.00    -0.277 N 
HETATM    2  N2  UNL     1      22.682  -0.137  54.375  1.00  0.00    -0.291 N 
HETATM    3  C5  UNL     1      21.315  -0.577  54.206  1.00  0.00     0.223 C 
HETATM    4  N3  UNL     1      20.713  -0.289  53.086  1.00  0.00    -0.245 NA
HETATM    5  C6  UNL     1      21.386   0.440  52.057  1.00  0.00     0.063 C 
HETATM    6  C7  UNL     1      21.094   0.307  50.773  1.00  0.00     0.041 C 
HETATM    7  C8  UNL     1      21.766   1.044  49.673  1.00  0.00     0.202 C 
HETATM    8  O1  UNL     1      20.906   1.498  48.716  1.00  0.00    -0.373 OA
HETATM    9  C9  UNL     1      20.989   2.824  48.385  1.00  0.00     0.195 C 
HETATM   10  C10 UNL     1      22.425   3.287  48.179  1.00  0.00     0.201 C 
HETATM   11  O2  UNL     1      23.223   2.864  49.296  1.00  0.00    -0.351 OA
HETATM   12  C11 UNL     1      22.669   2.033  50.259  1.00  0.00     0.077 C 
HETATM   13  C12 UNL     1      23.000   2.213  51.543  1.00  0.00     0.041 C 
HETATM   14  C13 UNL     1      22.435   1.352  52.599  1.00  0.00     0.185 C 
HETATM   15  H3  UNL     1      23.032  -0.447  55.321  1.00  0.00     0.188 HD
ENDROOT
BRANCH   1  16
HETATM   16  C4  UNL     1      24.758   0.399  53.339  1.00  0.00     0.053 A 
HETATM   17  C3  UNL     1      25.625   1.415  53.655  1.00  0.00     0.034 A 
HETATM   18  C2  UNL     1      26.991   1.246  53.650  1.00  0.00     0.046 A 
HETATM   19  C1  UNL     1      27.577   0.039  53.326  1.00  0.00     0.138 A 
HETATM   20  F1  UNL     1      28.921  -0.137  53.317  1.00  0.00    -0.204 F 
HETATM   21  C15 UNL     1      26.733  -1.014  53.000  1.00  0.00     0.074 A 
HETATM   22  C14 UNL     1      25.372  -0.790  53.021  1.00  0.00     0.058 A 
HETATM   23 CL1  UNL     1      27.450  -2.554  52.585  1.00  0.00    -0.081 Cl
ENDBRANCH   1  16
TORSDOF 1
ENDMDL
MODEL 6
REMARK VINA RESULT:      -7.5      3.309      4.779
REMARK  1 active torsions:
REMARK  status: ('A' for Active; 'I' for Inactive)
REMARK    1  A    between atoms: C4_5  and  N1_6 
ROOT
HETATM    1  N1  UNL     1      23.046   2.387  52.209  1.00  0.00    -0.277 N 
HETATM    2  N2  UNL     1      22.422   3.096  51.148  1.00  0.00    -0.291 N 
HETATM    3  C5  UNL     1      23.198   3.799  50.151  1.00  0.00     0.223 C 
HETATM    4  N3  UNL     1      24.498   3.766  50.251  1.00  0.00    -0.245 NA
HETATM    5  C6  UNL     1      25.135   3.054  51.314  1.00  0.00     0.063 C 
HETATM    6  C7  UNL     1      26.343   2.523  51.203  1.00  0.00     0.041 C 
HETATM    7  C8  UNL     1      27.040   1.778  52.281  1.00  0.00     0.202 C 
HETATM    8  O1  UNL     1      28.364   2.091  52.390  1.00  0.00    -0.373 OA
HETATM    9  C9  UNL     1      28.818   2.440  53.634  1.00  0.00     0.195 C 
HETATM   10  C10 UNL     1      28.325   1.498  54.724  1.00  0.00     0.201 C 
HETATM   11  O2  UNL     1      26.905   1.329  54.596  1.00  0.00    -0.351 OA
HETATM   12  C11 UNL     1      26.245   1.874  53.504  1.00  0.00     0.077 C 
HETATM   13  C12 UNL     1      25.026   2.398  53.675  1.00  0.00     0.041 C 
HETATM   14  C13 UNL     1      24.288   2.987  52.541  1.00  0.00     0.185 C 
HETATM   15  H3  UNL     1      21.396   3.209  50.932  1.00  0.00     0.188 HD
ENDROOT
BRANCH   1  16
HETATM   16  C4  UNL     1      22.308   1.282  52.687  1.00  0.00     0.053 A 
HETATM   17  C3  UNL     1      22.873   0.342  53.511  1.00  0.00     0.034 A 
HETATM   18  C2  UNL     1      22.166  -0.736  53.993  1.00  0.00     0.046 A 
HETATM   19  C1  UNL     1      20.839  -0.941  53.677  1.00  0.00     0.138 A 
HETATM   20  F1  UNL     1      20.134  -1.999  54.147  1.00  0.00    -0.204 F 
HETATM   21  C15 UNL     1      20.229  -0.011  52.845  1.00  0.00     0.074 A 
HETATM   22  C14 UNL     1      20.985   1.051  52.390  1.00  0.00     0.058 A 
HETATM   23 CL1  UNL     1      18.548  -0.246  52.429  1.00  0.00    -0.081 Cl
ENDBRANCH   1  16
TORSDOF 1
ENDMDL
MODEL 7
REMARK VINA RESULT:      -7.5      2.856      4.341
REMARK  1 active torsions:
REMARK  status: ('A' for Active; 'I' for Inactive)
REMARK    1  A    between atoms: C4_5  and  N1_6 
ROOT
HETATM    1  N1  UNL     1      25.174   3.001  51.708  1.00  0.00    -0.277 N 
HETATM    2  N2  UNL     1      26.594   3.055  51.704  1.00  0.00    -0.291 N 
HETATM    3  C5  UNL     1      27.389   2.042  52.361  1.00  0.00     0.223 C 
HETATM    4  N3  UNL     1      26.766   1.069  52.963  1.00  0.00    -0.245 NA
HETATM    5  C6  UNL     1      25.338   1.005  52.972  1.00  0.00     0.063 C 
HETATM    6  C7  UNL     1      24.668  -0.134  53.053  1.00  0.00     0.041 C 
HETATM    7  C8  UNL     1      23.188  -0.244  53.066  1.00  0.00     0.202 C 
HETATM    8  O1  UNL     1      22.718  -1.150  53.972  1.00  0.00    -0.373 OA
HETATM    9  C9  UNL     1      21.749  -0.716  54.838  1.00  0.00     0.195 C 
HETATM   10  C10 UNL     1      20.648   0.070  54.139  1.00  0.00     0.201 C 
HETATM   11  O2  UNL     1      21.244   1.075  53.303  1.00  0.00    -0.351 OA
HETATM   12  C11 UNL     1      22.621   1.101  53.135  1.00  0.00     0.077 C 
HETATM   13  C12 UNL     1      23.245   2.282  53.060  1.00  0.00     0.041 C 
HETATM   14  C13 UNL     1      24.708   2.356  52.882  1.00  0.00     0.185 C 
HETATM   15  H3  UNL     1      27.235   3.767  51.261  1.00  0.00     0.188 HD
ENDROOT
BRANCH   1  16
HETATM   16  C4  UNL     1      24.564   3.594  50.581  1.00  0.00     0.053 A 
HETATM   17  C3  UNL     1      24.700   4.932  50.311  1.00  0.00     0.034 A 
HETATM   18  C2  UNL     1      24.119   5.525  49.212  1.00  0.00     0.046 A 
HETATM   19  C1  UNL     1      23.363   4.807  48.309  1.00  0.00     0.138 A 
HETATM   20  F1  UNL     1      22.787   5.381  47.224  1.00  0.00    -0.204 F 
HETATM   21  C15 UNL     1      23.202   3.448  48.546  1.00  0.00     0.074 A 
HETATM   22  C14 UNL     1      23.805   2.906  49.663  1.00  0.00     0.058 A 
HETATM   23 CL1  UNL     1      22.247   2.515  47.417  1.00  0.00    -0.081 Cl
ENDBRANCH   1  16
TORSDOF 1
ENDMDL
MODEL 8
REMARK VINA RESULT:      -7.4      4.342      6.641
REMARK  1 active torsions:
REMARK  status: ('A' for Active; 'I' for Inactive)
REMARK    1  A    between atoms: C4_5  and  N1_6 
ROOT
HETATM    1  N1  UNL     1      24.579   2.784  51.447  1.00  0.00    -0.277 N 
HETATM    2  N2  UNL     1      25.264   3.939  50.983  1.00  0.00    -0.291 N 
HETATM    3  C5  UNL     1      24.553   5.153  50.647  1.00  0.00     0.223 C 
HETATM    4  N3  UNL     1      23.256   5.160  50.782  1.00  0.00    -0.245 NA
HETATM    5  C6  UNL     1      22.559   4.003  51.249  1.00  0.00     0.063 C 
HETATM    6  C7  UNL     1      21.413   4.069  51.907  1.00  0.00     0.041 C 
HETATM    7  C8  UNL     1      20.657   2.894  52.408  1.00  0.00     0.202 C 
HETATM    8  O1  UNL     1      19.310   2.988  52.211  1.00  0.00    -0.373 OA
HETATM    9  C9  UNL     1      18.698   1.930  51.593  1.00  0.00     0.195 C 
HETATM   10  C10 UNL     1      19.135   0.587  52.162  1.00  0.00     0.201 C 
HETATM   11  O2  UNL     1      20.569   0.541  52.217  1.00  0.00    -0.351 OA
HETATM   12  C11 UNL     1      21.304   1.679  51.916  1.00  0.00     0.077 C 
HETATM   13  C12 UNL     1      22.456   1.552  51.247  1.00  0.00     0.041 C 
HETATM   14  C13 UNL     1      23.269   2.735  50.906  1.00  0.00     0.185 C 
HETATM   15  H3  UNL     1      26.296   4.089  50.829  1.00  0.00     0.188 HD
ENDROOT
BRANCH   1  16
HETATM   16  C4  UNL     1      25.339   1.962  52.308  1.00  0.00     0.053 A 
HETATM   17  C3  UNL     1      25.744   2.398  53.545  1.00  0.00     0.034 A 
HETATM   18  C2  UNL     1      26.477   1.608  54.401  1.00  0.00     0.046 A 
HETATM   19  C1  UNL     1      26.852   0.322  54.069  1.00  0.00     0.138 A 
HETATM   20  F1  UNL     1      27.574  -0.464  54.905  1.00  0.00    -0.204 F 
HETATM   21  C15 UNL     1      26.462  -0.157  52.825  1.00  0.00     0.074 A 
HETATM   22  C14 UNL     1      25.728   0.678  52.006  1.00  0.00     0.058 A 
HETATM   23 CL1  UNL     1      26.924  -1.783  52.379  1.00  0.00    -0.081 Cl
ENDBRANCH   1  16
TORSDOF 1
ENDMDL
MODEL 9
REMARK VINA RESULT:      -7.1      4.045      6.519
REMARK  1 active torsions:
REMARK  status: ('A' for Active; 'I' for Inactive)
REMARK    1  A    between atoms: C4_5  and  N1_6 
ROOT
HETATM    1  N1  UNL     1      22.333   1.731  50.827  1.00  0.00    -0.277 N 
HETATM    2  N2  UNL     1      21.643   0.822  49.980  1.00  0.00    -0.291 N 
HETATM    3  C5  UNL     1      21.306   1.168  48.617  1.00  0.00     0.223 C 
HETATM    4  N3  UNL     1      21.654   2.346  48.181  1.00  0.00    -0.245 NA
HETATM    5  C6  UNL     1      22.348   3.267  49.025  1.00  0.00     0.063 C 
HETATM    6  C7  UNL     1      23.179   4.187  48.559  1.00  0.00     0.041 C 
HETATM    7  C8  UNL     1      23.918   5.161  49.399  1.00  0.00     0.202 C 
HETATM    8  O1  UNL     1      23.940   6.423  48.878  1.00  0.00    -0.373 OA
HETATM    9  C9  UNL     1      23.547   7.442  49.705  1.00  0.00     0.195 C 
HETATM   10  C10 UNL     1      24.172   7.346  51.091  1.00  0.00     0.201 C 
HETATM   11  O2  UNL     1      23.991   6.015  51.600  1.00  0.00    -0.351 OA
HETATM   12  C11 UNL     1      23.454   5.033  50.779  1.00  0.00     0.077 C 
HETATM   13  C12 UNL     1      22.620   4.130  51.305  1.00  0.00     0.041 C 
HETATM   14  C13 UNL     1      22.027   3.069  50.469  1.00  0.00     0.185 C 
HETATM   15  H3  UNL     1      21.305  -0.156  50.184  1.00  0.00     0.188 HD
ENDROOT
BRANCH   1  16
HETATM   16  C4  UNL     1      23.137   1.116  51.813  1.00  0.00     0.053 A 
HETATM   17  C3  UNL     1      24.499   1.277  51.832  1.00  0.00     0.034 A 
HETATM   18  C2  UNL     1      25.296   0.693  52.789  1.00  0.00     0.046 A 
HETATM   19  C1  UNL     1      24.774  -0.094  53.795  1.00  0.00     0.138 A 
HETATM   20  F1  UNL     1      25.551  -0.674  54.742  1.00  0.00    -0.204 F 
HETATM   21  C15 UNL     1      23.398  -0.282  53.811  1.00  0.00     0.074 A 
HETATM   22  C14 UNL     1      22.646   0.326  52.826  1.00  0.00     0.058 A 
HETATM   23 CL1  UNL     1      22.711  -1.276  55.074  1.00  0.00    -0.081 Cl
ENDBRANCH   1  16
TORSDOF 1
ENDMDL
