MODEL 1
REMARK VINA RESULT:      -6.9      0.000      0.000
REMARK  5 active torsions:
REMARK  status: ('A' for Active; 'I' for Inactive)
REMARK    1  A    between atoms: O1_2  and  C2_3 
REMARK    2  A    between atoms: C5_6  and  N1_7 
REMARK    3  A    between atoms: N1_7  and  C6_8 
REMARK    4  A    between atoms: C6_8  and  C7_9 
REMARK    5  A    between atoms: C8_10  and  C10_12 
ROOT
HETATM    1  C2  UNL     1      21.423   0.161  52.736  1.00  0.00     0.062 C 
HETATM    2  C3  UNL     1      22.551   0.832  52.625  1.00  0.00     0.083 C 
HETATM    3  C4  UNL     1      23.867   1.437  52.748  1.00  0.00     0.036 C 
HETATM    4  C5  UNL     1      24.260   2.303  51.783  1.00  0.00     0.121 C 
HETATM    5  N2  UNL     1      24.341   3.120  50.630  1.00  0.00    -0.227 NA
HETATM    6  C11 UNL     1      24.338   4.380  50.759  1.00  0.00     0.114 C 
HETATM    7  P1  UNL     1      23.206   5.042  51.792  1.00  0.00     0.059 P 
HETATM    8  N3  UNL     1      21.854   3.967  52.213  1.00  0.00    -0.276 NA
HETATM    9  C12 UNL     1      21.509   3.145  51.296  1.00  0.00     0.243 C 
HETATM   10  S1  UNL     1      21.085   2.013  49.944  1.00  0.00    -0.198 SA
HETATM   11  C13 UNL     1      19.884   0.853  50.630  1.00  0.00     0.208 A 
HETATM   12  C14 UNL     1      20.413   0.344  51.726  1.00  0.00    -0.003 A 
HETATM   13  O2  UNL     1      19.177  -0.139  51.467  1.00  0.00     0.000 OA
HETATM   14  C15 UNL     1      18.103  -0.292  52.374  1.00  0.00     0.000 C 
ENDROOT
BRANCH   4  15
HETATM   15  N1  UNL     1      25.606   2.702  52.220  1.00  0.00    -0.372 N 
HETATM   16  H6  UNL     1      25.472   3.680  52.641  1.00  0.00     0.161 HD
BRANCH  15  17
HETATM   17  C6  UNL     1      26.983   2.249  52.277  1.00  0.00     0.148 C 
BRANCH  17  18
HETATM   18  C7  UNL     1      27.069   0.781  52.222  1.00  0.00    -0.003 C 
HETATM   19  C8  UNL     1      27.260  -0.196  53.138  1.00  0.00    -0.058 C 
HETATM   20  C9  UNL     1      27.301  -1.641  52.780  1.00  0.00     0.045 C 
BRANCH  19  21
HETATM   21  C10 UNL     1      27.445   0.080  54.590  1.00  0.00     0.256 C 
HETATM   22  F1  UNL     1      26.216   0.523  55.082  1.00  0.00    -0.251 F 
ENDBRANCH  19  21
ENDBRANCH  17  18
ENDBRANCH  15  17
ENDBRANCH   4  15
BRANCH   1  23
HETATM   23  O1  UNL     1      20.693  -0.768  53.513  1.00  0.00    -0.359 OA
HETATM   24  C1  UNL     1      21.447  -1.612  54.348  1.00  0.00     0.209 C 
ENDBRANCH   1  23
TORSDOF 5
ENDMDL
MODEL 2
REMARK VINA RESULT:      -6.9      3.842      5.674
REMARK  5 active torsions:
REMARK  status: ('A' for Active; 'I' for Inactive)
REMARK    1  A    between atoms: O1_2  and  C2_3 
REMARK    2  A    between atoms: C5_6  and  N1_7 
REMARK    3  A    between atoms: N1_7  and  C6_8 
REMARK    4  A    between atoms: C6_8  and  C7_9 
REMARK    5  A    between atoms: C8_10  and  C10_12 
ROOT
HETATM    1  C2  UNL     1      26.157   4.577  49.577  1.00  0.00     0.062 C 
HETATM    2  C3  UNL     1      26.050   3.502  50.330  1.00  0.00     0.083 C 
HETATM    3  C4  UNL     1      26.145   2.212  50.993  1.00  0.00     0.036 C 
HETATM    4  C5  UNL     1      25.317   1.974  52.040  1.00  0.00     0.121 C 
HETATM    5  N2  UNL     1      24.343   2.073  53.061  1.00  0.00    -0.227 NA
HETATM    6  C11 UNL     1      23.297   1.360  52.995  1.00  0.00     0.114 C 
HETATM    7  P1  UNL     1      22.510   1.292  51.525  1.00  0.00     0.059 P 
HETATM    8  N3  UNL     1      22.947   2.576  50.377  1.00  0.00    -0.276 NA
HETATM    9  C12 UNL     1      23.252   3.698  50.909  1.00  0.00     0.243 C 
HETATM   10  S1  UNL     1      23.671   5.252  51.745  1.00  0.00    -0.198 SA
HETATM   11  C13 UNL     1      24.319   6.344  50.462  1.00  0.00     0.208 A 
HETATM   12  C14 UNL     1      25.282   5.691  49.842  1.00  0.00    -0.003 A 
HETATM   13  O2  UNL     1      25.082   6.930  49.339  1.00  0.00     0.000 OA
HETATM   14  C15 UNL     1      24.983   7.303  47.979  1.00  0.00     0.000 C 
ENDROOT
BRANCH   4  15
HETATM   15  N1  UNL     1      25.687   0.613  52.455  1.00  0.00    -0.372 N 
HETATM   16  H6  UNL     1      25.594   0.026  51.561  1.00  0.00     0.161 HD
BRANCH  15  17
HETATM   17  C6  UNL     1      26.113  -0.169  53.600  1.00  0.00     0.148 C 
BRANCH  17  18
HETATM   18  C7  UNL     1      27.509  -0.612  53.458  1.00  0.00    -0.003 C 
HETATM   19  C8  UNL     1      28.716  -0.040  53.675  1.00  0.00    -0.058 C 
HETATM   20  C9  UNL     1      30.001  -0.754  53.438  1.00  0.00     0.045 C 
BRANCH  19  21
HETATM   21  C10 UNL     1      28.874   1.354  54.173  1.00  0.00     0.256 C 
HETATM   22  F1  UNL     1      28.624   2.205  53.094  1.00  0.00    -0.251 F 
ENDBRANCH  19  21
ENDBRANCH  17  18
ENDBRANCH  15  17
ENDBRANCH   4  15
BRANCH   1  23
HETATM   23  O1  UNL     1      26.839   5.176  48.493  1.00  0.00    -0.359 OA
HETATM   24  C1  UNL     1      28.243   5.088  48.515  1.00  0.00     0.209 C 
ENDBRANCH   1  23
TORSDOF 5
ENDMDL
MODEL 3
REMARK VINA RESULT:      -6.8      3.319      4.845
REMARK  5 active torsions:
REMARK  status: ('A' for Active; 'I' for Inactive)
REMARK    1  A    between atoms: O1_2  and  C2_3 
REMARK    2  A    between atoms: C5_6  and  N1_7 
REMARK    3  A    between atoms: N1_7  and  C6_8 
REMARK    4  A    between atoms: C6_8  and  C7_9 
REMARK    5  A    between atoms: C8_10  and  C10_12 
ROOT
HETATM    1  C2  UNL     1      24.625   0.435  53.118  1.00  0.00     0.062 C 
HETATM    2  C3  UNL     1      24.986   1.397  52.294  1.00  0.00     0.083 C 
HETATM    3  C4  UNL     1      25.640   2.440  51.520  1.00  0.00     0.036 C 
HETATM    4  C5  UNL     1      24.921   3.053  50.548  1.00  0.00     0.121 C 
HETATM    5  N2  UNL     1      23.911   3.453  49.642  1.00  0.00    -0.227 NA
HETATM    6  C11 UNL     1      23.394   4.605  49.756  1.00  0.00     0.114 C 
HETATM    7  P1  UNL     1      22.951   5.097  51.288  1.00  0.00     0.059 P 
HETATM    8  N3  UNL     1      22.815   3.792  52.487  1.00  0.00    -0.276 NA
HETATM    9  C12 UNL     1      22.432   2.665  52.020  1.00  0.00     0.243 C 
HETATM   10  S1  UNL     1      21.886   1.103  51.277  1.00  0.00    -0.198 SA
HETATM   11  C13 UNL     1      22.046  -0.143  52.572  1.00  0.00     0.208 A 
HETATM   12  C14 UNL     1      23.279  -0.071  53.035  1.00  0.00    -0.003 A 
HETATM   13  O2  UNL     1      22.540  -1.019  53.656  1.00  0.00     0.000 OA
HETATM   14  C15 UNL     1      22.442  -1.263  55.046  1.00  0.00     0.000 C 
ENDROOT
BRANCH   4  15
HETATM   15  N1  UNL     1      25.877   4.019  49.987  1.00  0.00    -0.372 N 
HETATM   16  H6  UNL     1      25.509   4.975  50.305  1.00  0.00     0.161 HD
BRANCH  15  17
HETATM   17  C6  UNL     1      27.086   4.118  49.192  1.00  0.00     0.148 C 
BRANCH  17  18
HETATM   18  C7  UNL     1      27.194   5.431  48.537  1.00  0.00    -0.003 C 
HETATM   19  C8  UNL     1      28.222   6.227  48.164  1.00  0.00    -0.058 C 
HETATM   20  C9  UNL     1      28.022   7.544  47.499  1.00  0.00     0.045 C 
BRANCH  19  21
HETATM   21  C10 UNL     1      29.649   5.862  48.381  1.00  0.00     0.256 C 
HETATM   22  F1  UNL     1      29.883   4.685  47.666  1.00  0.00    -0.251 F 
ENDBRANCH  19  21
ENDBRANCH  17  18
ENDBRANCH  15  17
ENDBRANCH   4  15
BRANCH   1  23
HETATM   23  O1  UNL     1      25.039  -0.411  54.172  1.00  0.00    -0.359 OA
HETATM   24  C1  UNL     1      26.193  -0.016  54.873  1.00  0.00     0.209 C 
ENDBRANCH   1  23
TORSDOF 5
ENDMDL
MODEL 4
REMARK VINA RESULT:      -6.3      8.759     11.404
REMARK  5 active torsions:
REMARK  status: ('A' for Active; 'I' for Inactive)
REMARK    1  A    between atoms: O1_2  and  C2_3 
REMARK    2  A    between atoms: C5_6  and  N1_7 
REMARK    3  A    between atoms: N1_7  and  C6_8 
REMARK    4  A    between atoms: C6_8  and  C7_9 
REMARK    5  A    between atoms: C8_10  and  C10_12 
ROOT
HETATM    1  C2  UNL     1      32.287   4.236  46.920  1.00  0.00     0.062 C 
HETATM    2  C3  UNL     1      31.298   4.939  47.432  1.00  0.00     0.083 C 
HETATM    3  C4  UNL     1      30.042   5.491  47.911  1.00  0.00     0.036 C 
HETATM    4  C5  UNL     1      30.074   6.701  48.522  1.00  0.00     0.121 C 
HETATM    5  N2  UNL     1      30.470   7.932  49.097  1.00  0.00    -0.227 NA
HETATM    6  C11 UNL     1      30.120   9.018  48.545  1.00  0.00     0.114 C 
HETATM    7  P1  UNL     1      30.303   9.129  46.890  1.00  0.00     0.059 P 
HETATM    8  N3  UNL     1      31.388   7.920  46.169  1.00  0.00    -0.276 NA
HETATM    9  C12 UNL     1      32.358   7.550  46.916  1.00  0.00     0.243 C 
HETATM   10  S1  UNL     1      33.703   7.079  48.039  1.00  0.00    -0.198 SA
HETATM   11  C13 UNL     1      34.539   5.686  47.252  1.00  0.00     0.208 A 
HETATM   12  C14 UNL     1      33.618   4.785  46.970  1.00  0.00    -0.003 A 
HETATM   13  O2  UNL     1      34.859   4.403  46.590  1.00  0.00     0.000 OA
HETATM   14  C15 UNL     1      35.246   3.834  45.355  1.00  0.00     0.000 C 
ENDROOT
BRANCH   4  15
HETATM   15  N1  UNL     1      28.665   6.935  48.870  1.00  0.00    -0.372 N 
HETATM   16  H6  UNL     1      28.704   7.473  49.798  1.00  0.00     0.161 HD
BRANCH  15  17
HETATM   17  C6  UNL     1      27.308   6.701  48.413  1.00  0.00     0.148 C 
BRANCH  17  18
HETATM   18  C7  UNL     1      26.794   5.409  48.893  1.00  0.00    -0.003 C 
HETATM   19  C8  UNL     1      25.566   4.921  49.180  1.00  0.00    -0.058 C 
HETATM   20  C9  UNL     1      25.343   3.530  49.662  1.00  0.00     0.045 C 
BRANCH  19  21
HETATM   21  C10 UNL     1      24.321   5.725  49.039  1.00  0.00     0.256 C 
HETATM   22  F1  UNL     1      23.657   5.256  47.903  1.00  0.00    -0.251 F 
ENDBRANCH  19  21
ENDBRANCH  17  18
ENDBRANCH  15  17
ENDBRANCH   4  15
BRANCH   1  23
HETATM   23  O1  UNL     1      32.645   3.034  46.265  1.00  0.00    -0.359 OA
HETATM   24  C1  UNL     1      32.526   1.854  47.021  1.00  0.00     0.209 C 
ENDBRANCH   1  23
TORSDOF 5
ENDMDL
MODEL 5
REMARK VINA RESULT:      -6.3      7.659      9.215
REMARK  5 active torsions:
REMARK  status: ('A' for Active; 'I' for Inactive)
REMARK    1  A    between atoms: O1_2  and  C2_3 
REMARK    2  A    between atoms: C5_6  and  N1_7 
REMARK    3  A    between atoms: N1_7  and  C6_8 
REMARK    4  A    between atoms: C6_8  and  C7_9 
REMARK    5  A    between atoms: C8_10  and  C10_12 
ROOT
HETATM    1  C2  UNL     1      27.112   5.569  48.722  1.00  0.00     0.062 C 
HETATM    2  C3  UNL     1      28.361   5.686  48.322  1.00  0.00     0.083 C 
HETATM    3  C4  UNL     1      29.779   5.564  48.024  1.00  0.00     0.036 C 
HETATM    4  C5  UNL     1      30.353   6.533  47.269  1.00  0.00     0.121 C 
HETATM    5  N2  UNL     1      30.607   7.678  46.478  1.00  0.00    -0.227 NA
HETATM    6  C11 UNL     1      31.332   8.608  46.943  1.00  0.00     0.114 C 
HETATM    7  P1  UNL     1      31.025   9.108  48.506  1.00  0.00     0.059 P 
HETATM    8  N3  UNL     1      29.444   8.622  49.154  1.00  0.00    -0.276 NA
HETATM    9  C12 UNL     1      28.504   8.546  48.290  1.00  0.00     0.243 C 
HETATM   10  S1  UNL     1      27.230   8.462  47.002  1.00  0.00    -0.198 SA
HETATM   11  C13 UNL     1      25.782   7.724  47.786  1.00  0.00     0.208 A 
HETATM   12  C14 UNL     1      26.173   6.598  48.350  1.00  0.00    -0.003 A 
HETATM   13  O2  UNL     1      24.856   6.845  48.533  1.00  0.00     0.000 OA
HETATM   14  C15 UNL     1      24.118   6.741  49.734  1.00  0.00     0.000 C 
ENDROOT
BRANCH   4  15
HETATM   15  N1  UNL     1      31.752   6.091  47.168  1.00  0.00    -0.372 N 
HETATM   16  H6  UNL     1      32.219   6.477  48.054  1.00  0.00     0.161 HD
BRANCH  15  17
HETATM   17  C6  UNL     1      32.669   5.349  46.325  1.00  0.00     0.148 C 
BRANCH  17  18
HETATM   18  C7  UNL     1      32.427   3.900  46.413  1.00  0.00    -0.003 C 
HETATM   19  C8  UNL     1      33.044   2.868  47.034  1.00  0.00    -0.058 C 
HETATM   20  C9  UNL     1      32.557   1.463  46.941  1.00  0.00     0.045 C 
BRANCH  19  21
HETATM   21  C10 UNL     1      34.263   3.037  47.871  1.00  0.00     0.256 C 
HETATM   22  F1  UNL     1      35.346   3.156  46.996  1.00  0.00    -0.251 F 
ENDBRANCH  19  21
ENDBRANCH  17  18
ENDBRANCH  15  17
ENDBRANCH   4  15
BRANCH   1  23
HETATM   23  O1  UNL     1      26.189   4.778  49.444  1.00  0.00    -0.359 OA
HETATM   24  C1  UNL     1      26.520   3.420  49.600  1.00  0.00     0.209 C 
ENDBRANCH   1  23
TORSDOF 5
ENDMDL
MODEL 6
REMARK VINA RESULT:      -6.2      4.974      7.270
REMARK  5 active torsions:
REMARK  status: ('A' for Active; 'I' for Inactive)
REMARK    1  A    between atoms: O1_2  and  C2_3 
REMARK    2  A    between atoms: C5_6  and  N1_7 
REMARK    3  A    between atoms: N1_7  and  C6_8 
REMARK    4  A    between atoms: C6_8  and  C7_9 
REMARK    5  A    between atoms: C8_10  and  C10_12 
ROOT
HETATM    1  C2  UNL     1      27.702   5.876  48.482  1.00  0.00     0.062 C 
HETATM    2  C3  UNL     1      27.014   4.956  49.125  1.00  0.00     0.083 C 
HETATM    3  C4  UNL     1      26.443   3.755  49.713  1.00  0.00     0.036 C 
HETATM    4  C5  UNL     1      25.368   3.897  50.526  1.00  0.00     0.121 C 
HETATM    5  N2  UNL     1      24.300   4.403  51.303  1.00  0.00    -0.227 NA
HETATM    6  C11 UNL     1      23.107   4.156  50.957  1.00  0.00     0.114 C 
HETATM    7  P1  UNL     1      22.721   4.350  49.345  1.00  0.00     0.059 P 
HETATM    8  N3  UNL     1      23.877   5.321  48.407  1.00  0.00    -0.276 NA
HETATM    9  C12 UNL     1      24.460   6.251  49.063  1.00  0.00     0.243 C 
HETATM   10  S1  UNL     1      25.242   7.545  50.065  1.00  0.00    -0.198 SA
HETATM   11  C13 UNL     1      26.543   8.252  49.032  1.00  0.00     0.208 A 
HETATM   12  C14 UNL     1      27.293   7.252  48.609  1.00  0.00    -0.003 A 
HETATM   13  O2  UNL     1      27.713   8.453  48.150  1.00  0.00     0.000 OA
HETATM   14  C15 UNL     1      28.087   8.788  46.828  1.00  0.00     0.000 C 
ENDROOT
BRANCH   4  15
HETATM   15  N1  UNL     1      25.073   2.514  50.931  1.00  0.00    -0.372 N 
HETATM   16  H6  UNL     1      24.258   2.218  50.298  1.00  0.00     0.161 HD
BRANCH  15  17
HETATM   17  C6  UNL     1      25.484   1.467  51.846  1.00  0.00     0.148 C 
BRANCH  17  18
HETATM   18  C7  UNL     1      24.323   0.789  52.444  1.00  0.00    -0.003 C 
HETATM   19  C8  UNL     1      24.154  -0.099  53.451  1.00  0.00    -0.058 C 
HETATM   20  C9  UNL     1      22.818  -0.626  53.846  1.00  0.00     0.045 C 
BRANCH  19  21
HETATM   21  C10 UNL     1      25.284  -0.631  54.260  1.00  0.00     0.256 C 
HETATM   22  F1  UNL     1      26.061  -1.421  53.409  1.00  0.00    -0.251 F 
ENDBRANCH  19  21
ENDBRANCH  17  18
ENDBRANCH  15  17
ENDBRANCH   4  15
BRANCH   1  23
HETATM   23  O1  UNL     1      28.796   6.124  47.621  1.00  0.00    -0.359 OA
HETATM   24  C1  UNL     1      30.045   5.637  48.045  1.00  0.00     0.209 C 
ENDBRANCH   1  23
TORSDOF 5
ENDMDL
MODEL 7
REMARK VINA RESULT:      -6.1      6.115      8.602
REMARK  5 active torsions:
REMARK  status: ('A' for Active; 'I' for Inactive)
REMARK    1  A    between atoms: O1_2  and  C2_3 
REMARK    2  A    between atoms: C5_6  and  N1_7 
REMARK    3  A    between atoms: N1_7  and  C6_8 
REMARK    4  A    between atoms: C6_8  and  C7_9 
REMARK    5  A    between atoms: C8_10  and  C10_12 
ROOT
HETATM    1  C2  UNL     1      28.717   6.691  48.142  1.00  0.00     0.062 C 
HETATM    2  C3  UNL     1      27.608   6.145  48.598  1.00  0.00     0.083 C 
HETATM    3  C4  UNL     1      26.468   5.313  48.945  1.00  0.00     0.036 C 
HETATM    4  C5  UNL     1      25.532   5.835  49.775  1.00  0.00     0.121 C 
HETATM    5  N2  UNL     1      24.785   6.669  50.640  1.00  0.00    -0.227 NA
HETATM    6  C11 UNL     1      23.662   7.116  50.257  1.00  0.00     0.114 C 
HETATM    7  P1  UNL     1      23.575   7.747  48.715  1.00  0.00     0.059 P 
HETATM    8  N3  UNL     1      25.141   8.149  47.977  1.00  0.00    -0.276 NA
HETATM    9  C12 UNL     1      26.043   8.536  48.797  1.00  0.00     0.243 C 
HETATM   10  S1  UNL     1      27.263   9.073  50.027  1.00  0.00    -0.198 SA
HETATM   11  C13 UNL     1      28.833   9.194  49.144  1.00  0.00     0.208 A 
HETATM   12  C14 UNL     1      29.029   8.041  48.534  1.00  0.00    -0.003 A 
HETATM   13  O2  UNL     1      30.027   8.928  48.313  1.00  0.00     0.000 OA
HETATM   14  C15 UNL     1      30.639   9.248  47.079  1.00  0.00     0.000 C 
ENDROOT
BRANCH   4  15
HETATM   15  N1  UNL     1      24.557   4.742  49.907  1.00  0.00    -0.372 N 
HETATM   16  H6  UNL     1      23.745   5.173  50.460  1.00  0.00     0.161 HD
BRANCH  15  17
HETATM   17  C6  UNL     1      24.329   3.351  49.564  1.00  0.00     0.148 C 
BRANCH  17  18
HETATM   18  C7  UNL     1      24.105   2.530  50.764  1.00  0.00    -0.003 C 
HETATM   19  C8  UNL     1      24.909   1.867  51.626  1.00  0.00    -0.058 C 
HETATM   20  C9  UNL     1      24.384   1.096  52.788  1.00  0.00     0.045 C 
BRANCH  19  21
HETATM   21  C10 UNL     1      26.392   1.845  51.499  1.00  0.00     0.256 C 
HETATM   22  F1  UNL     1      26.780   0.503  51.462  1.00  0.00    -0.251 F 
ENDBRANCH  19  21
ENDBRANCH  17  18
ENDBRANCH  15  17
ENDBRANCH   4  15
BRANCH   1  23
HETATM   23  O1  UNL     1      29.866   6.497  47.340  1.00  0.00    -0.359 OA
HETATM   24  C1  UNL     1      30.757   5.493  47.760  1.00  0.00     0.209 C 
ENDBRANCH   1  23
TORSDOF 5
ENDMDL
MODEL 8
REMARK VINA RESULT:      -6.0      6.758      9.210
REMARK  5 active torsions:
REMARK  status: ('A' for Active; 'I' for Inactive)
REMARK    1  A    between atoms: O1_2  and  C2_3 
REMARK    2  A    between atoms: C5_6  and  N1_7 
REMARK    3  A    between atoms: N1_7  and  C6_8 
REMARK    4  A    between atoms: C6_8  and  C7_9 
REMARK    5  A    between atoms: C8_10  and  C10_12 
ROOT
HETATM    1  C2  UNL     1      30.126   6.112  47.900  1.00  0.00     0.062 C 
HETATM    2  C3  UNL     1      28.909   5.761  48.259  1.00  0.00     0.083 C 
HETATM    3  C4  UNL     1      27.639   5.114  48.546  1.00  0.00     0.036 C 
HETATM    4  C5  UNL     1      26.675   5.851  49.150  1.00  0.00     0.121 C 
HETATM    5  N2  UNL     1      25.931   6.881  49.774  1.00  0.00    -0.227 NA
HETATM    6  C11 UNL     1      24.932   7.378  49.172  1.00  0.00     0.114 C 
HETATM    7  P1  UNL     1      25.125   7.771  47.562  1.00  0.00     0.059 P 
HETATM    8  N3  UNL     1      26.811   7.891  47.014  1.00  0.00    -0.276 NA
HETATM    9  C12 UNL     1      27.640   8.303  47.897  1.00  0.00     0.243 C 
HETATM   10  S1  UNL     1      28.747   8.892  49.207  1.00  0.00    -0.198 SA
HETATM   11  C13 UNL     1      30.421   8.713  48.556  1.00  0.00     0.208 A 
HETATM   12  C14 UNL     1      30.550   7.467  48.144  1.00  0.00    -0.003 A 
HETATM   13  O2  UNL     1      31.670   8.201  47.953  1.00  0.00     0.000 OA
HETATM   14  C15 UNL     1      32.472   8.263  46.790  1.00  0.00     0.000 C 
ENDROOT
BRANCH   4  15
HETATM   15  N1  UNL     1      25.564   4.898  49.287  1.00  0.00    -0.372 N 
HETATM   16  H6  UNL     1      25.177   4.794  48.291  1.00  0.00     0.161 HD
BRANCH  15  17
HETATM   17  C6  UNL     1      24.848   4.091  50.256  1.00  0.00     0.148 C 
BRANCH  17  18
HETATM   18  C7  UNL     1      25.648   2.936  50.691  1.00  0.00    -0.003 C 
HETATM   19  C8  UNL     1      25.580   2.065  51.724  1.00  0.00    -0.058 C 
HETATM   20  C9  UNL     1      26.560   0.960  51.914  1.00  0.00     0.045 C 
BRANCH  19  21
HETATM   21  C10 UNL     1      24.520   2.127  52.767  1.00  0.00     0.256 C 
HETATM   22  F1  UNL     1      24.977   2.991  53.765  1.00  0.00    -0.251 F 
ENDBRANCH  19  21
ENDBRANCH  17  18
ENDBRANCH  15  17
ENDBRANCH   4  15
BRANCH   1  23
HETATM   23  O1  UNL     1      31.337   5.680  47.310  1.00  0.00    -0.359 OA
HETATM   24  C1  UNL     1      31.995   4.613  47.947  1.00  0.00     0.209 C 
ENDBRANCH   1  23
TORSDOF 5
ENDMDL
MODEL 9
REMARK VINA RESULT:      -6.0      3.425      6.806
REMARK  5 active torsions:
REMARK  status: ('A' for Active; 'I' for Inactive)
REMARK    1  A    between atoms: O1_2  and  C2_3 
REMARK    2  A    between atoms: C5_6  and  N1_7 
REMARK    3  A    between atoms: N1_7  and  C6_8 
REMARK    4  A    between atoms: C6_8  and  C7_9 
REMARK    5  A    between atoms: C8_10  and  C10_12 
ROOT
HETATM    1  C2  UNL     1      25.353  -0.355  53.573  1.00  0.00     0.062 C 
HETATM    2  C3  UNL     1      24.072  -0.268  53.280  1.00  0.00     0.083 C 
HETATM    3  C4  UNL     1      22.669  -0.461  52.952  1.00  0.00     0.036 C 
HETATM    4  C5  UNL     1      21.894   0.642  52.810  1.00  0.00     0.121 C 
HETATM    5  N2  UNL     1      21.399   1.966  52.750  1.00  0.00    -0.227 NA
HETATM    6  C11 UNL     1      21.041   2.447  51.634  1.00  0.00     0.114 C 
HETATM    7  P1  UNL     1      22.063   2.209  50.335  1.00  0.00     0.059 P 
HETATM    8  N3  UNL     1      23.723   1.737  50.761  1.00  0.00    -0.276 NA
HETATM    9  C12 UNL     1      24.158   2.219  51.862  1.00  0.00     0.243 C 
HETATM   10  S1  UNL     1      24.696   2.944  53.435  1.00  0.00    -0.198 SA
HETATM   11  C13 UNL     1      26.279   2.168  53.821  1.00  0.00     0.208 A 
HETATM   12  C14 UNL     1      26.098   0.862  53.766  1.00  0.00    -0.003 A 
HETATM   13  O2  UNL     1      27.370   1.203  54.078  1.00  0.00     0.000 OA
HETATM   14  C15 UNL     1      28.562   0.675  53.533  1.00  0.00     0.000 C 
ENDROOT
BRANCH   4  15
HETATM   15  N1  UNL     1      20.571   0.081  52.495  1.00  0.00    -0.372 N 
HETATM   16  H6  UNL     1      20.545   0.044  51.423  1.00  0.00     0.161 HD
BRANCH  15  17
HETATM   17  C6  UNL     1      19.353  -0.416  53.106  1.00  0.00     0.148 C 
BRANCH  17  18
HETATM   18  C7  UNL     1      18.317  -0.684  52.096  1.00  0.00    -0.003 C 
HETATM   19  C8  UNL     1      17.492   0.088  51.351  1.00  0.00    -0.058 C 
HETATM   20  C9  UNL     1      16.515  -0.479  50.380  1.00  0.00     0.045 C 
BRANCH  19  21
HETATM   21  C10 UNL     1      17.484   1.575  51.428  1.00  0.00     0.256 C 
HETATM   22  F1  UNL     1      18.088   2.048  50.260  1.00  0.00    -0.251 F 
ENDBRANCH  19  21
ENDBRANCH  17  18
ENDBRANCH  15  17
ENDBRANCH   4  15
BRANCH   1  23
HETATM   23  O1  UNL     1      26.437  -1.233  53.805  1.00  0.00    -0.359 OA
HETATM   24  C1  UNL     1      26.821  -2.049  52.725  1.00  0.00     0.209 C 
ENDBRANCH   1  23
TORSDOF 5
ENDMDL
