MODEL 1
REMARK VINA RESULT:      -8.9      0.000      0.000
REMARK  7 active torsions:
REMARK  status: ('A' for Active; 'I' for Inactive)
REMARK    1  A    between atoms: C2_2  and  N1_3 
REMARK    2  A    between atoms: C2_2  and  N2_13 
REMARK       I    between atoms: N1_3  and  C3_4 
REMARK    3  A    between atoms: C3_4  and  O2_6 
REMARK    4  A    between atoms: O2_6  and  C4_7 
REMARK    5  A    between atoms: N2_13  and  C10_14 
REMARK    6  A    between atoms: C15_21  and  N5_22 
REMARK    7  A    between atoms: N5_22  and  C16_23 
ROOT
HETATM    1  C10 UNL     1      23.902   4.731  50.727  1.00  0.00     0.038 C 
HETATM    2  C11 UNL     1      23.543   5.852  50.085  1.00  0.00     0.026 C 
HETATM    3  C12 UNL     1      22.219   6.325  49.621  1.00  0.00     0.203 C 
HETATM    4  N3  UNL     1      21.140   6.029  50.491  1.00  0.00    -0.189 NA
HETATM    5  N4  UNL     1      20.866   5.009  51.190  1.00  0.00    -0.157 NA
HETATM    6  C13 UNL     1      21.600   3.824  51.300  1.00  0.00     0.094 A 
HETATM    7  C14 UNL     1      22.908   3.705  51.101  1.00  0.00     0.025 A 
HETATM    8  C15 UNL     1      22.198   2.465  51.467  1.00  0.00     0.174 A 
ENDROOT
BRANCH   1   9
HETATM    9  N2  UNL     1      25.276   4.587  51.028  1.00  0.00    -0.369 N 
HETATM   10  H11 UNL     1      25.831   5.302  51.566  1.00  0.00     0.161 HD
BRANCH   9  11
HETATM   11  C2  UNL     1      25.977   3.381  50.574  1.00  0.00     0.182 C 
HETATM   12  C1  UNL     1      26.797   3.762  49.365  1.00  0.00     0.055 C 
BRANCH  11  13
HETATM   13  N1  UNL     1      26.885   2.910  51.600  1.00  0.00    -0.316 N 
HETATM   14  C3  UNL     1      26.407   2.479  52.881  1.00  0.00     0.367 C 
HETATM   15  O1  UNL     1      25.250   2.431  53.315  1.00  0.00    -0.238 OA
HETATM   16  H5  UNL     1      27.904   2.891  51.382  1.00  0.00     0.166 HD
BRANCH  14  17
HETATM   17  O2  UNL     1      27.370   2.052  53.779  1.00  0.00    -0.262 OA
BRANCH  17  18
HETATM   18  C4  UNL     1      28.004   0.828  53.611  1.00  0.00     0.081 A 
HETATM   19  C5  UNL     1      27.270  -0.280  53.241  1.00  0.00     0.037 A 
HETATM   20  C6  UNL     1      27.882  -1.526  53.064  1.00  0.00     0.003 A 
HETATM   21  C7  UNL     1      29.255  -1.638  53.265  1.00  0.00     0.000 A 
HETATM   22  C8  UNL     1      29.974  -0.518  53.635  1.00  0.00     0.003 A 
HETATM   23  C9  UNL     1      29.376   0.717  53.812  1.00  0.00     0.037 A 
ENDBRANCH  17  18
ENDBRANCH  14  17
ENDBRANCH  11  13
ENDBRANCH   9  11
ENDBRANCH   1   9
BRANCH   8  24
HETATM   24  N5  UNL     1      22.461   1.970  52.780  1.00  0.00    -0.375 N 
HETATM   25  H16 UNL     1      23.086   2.484  53.443  1.00  0.00     0.160 HD
BRANCH  24  26
HETATM   26  C16 UNL     1      21.893   0.771  53.239  1.00  0.00     0.030 A 
HETATM   27  C17 UNL     1      22.608  -0.191  53.938  1.00  0.00     0.029 A 
HETATM   28  C18 UNL     1      22.090  -1.376  54.404  1.00  0.00     0.004 A 
HETATM   29  C19 UNL     1      20.766  -1.659  54.177  1.00  0.00     0.019 A 
HETATM   30  C20 UNL     1      20.005  -0.741  53.489  1.00  0.00     0.013 A 
HETATM   31 BR1  UNL     1      18.149  -1.101  53.153  1.00  0.00    -0.051 Br
HETATM   32  C21 UNL     1      20.574   0.430  53.043  1.00  0.00     0.048 A 
ENDBRANCH  24  26
ENDBRANCH   8  24
TORSDOF 7
ENDMDL
MODEL 2
REMARK VINA RESULT:      -8.6      2.544      6.036
REMARK  7 active torsions:
REMARK  status: ('A' for Active; 'I' for Inactive)
REMARK    1  A    between atoms: C2_2  and  N1_3 
REMARK    2  A    between atoms: C2_2  and  N2_13 
REMARK       I    between atoms: N1_3  and  C3_4 
REMARK    3  A    between atoms: C3_4  and  O2_6 
REMARK    4  A    between atoms: O2_6  and  C4_7 
REMARK    5  A    between atoms: N2_13  and  C10_14 
REMARK    6  A    between atoms: C15_21  and  N5_22 
REMARK    7  A    between atoms: N5_22  and  C16_23 
ROOT
HETATM    1  C10 UNL     1      26.651   1.805  53.635  1.00  0.00     0.038 C 
HETATM    2  C11 UNL     1      27.963   1.997  53.832  1.00  0.00     0.026 C 
HETATM    3  C12 UNL     1      29.011   1.092  54.357  1.00  0.00     0.203 C 
HETATM    4  N3  UNL     1      28.886  -0.262  53.957  1.00  0.00    -0.189 NA
HETATM    5  N4  UNL     1      27.881  -1.018  53.817  1.00  0.00    -0.157 NA
HETATM    6  C13 UNL     1      26.535  -0.702  54.031  1.00  0.00     0.094 A 
HETATM    7  C14 UNL     1      26.006   0.514  53.952  1.00  0.00     0.025 A 
HETATM    8  C15 UNL     1      25.070  -0.573  54.296  1.00  0.00     0.174 A 
ENDROOT
BRANCH   1   9
HETATM    9  N2  UNL     1      25.923   2.896  53.110  1.00  0.00    -0.369 N 
HETATM   10  H11 UNL     1      26.184   3.903  53.277  1.00  0.00     0.161 HD
BRANCH   9  11
HETATM   11  C2  UNL     1      24.739   2.627  52.286  1.00  0.00     0.182 C 
HETATM   12  C1  UNL     1      23.549   3.229  52.993  1.00  0.00     0.055 C 
BRANCH  11  13
HETATM   13  N1  UNL     1      24.867   3.273  50.995  1.00  0.00    -0.316 N 
HETATM   14  C3  UNL     1      26.117   3.302  50.295  1.00  0.00     0.367 C 
HETATM   15  O1  UNL     1      27.214   2.832  50.620  1.00  0.00    -0.238 OA
HETATM   16  H5  UNL     1      24.020   3.720  50.585  1.00  0.00     0.166 HD
BRANCH  14  17
HETATM   17  O2  UNL     1      26.115   3.949  49.070  1.00  0.00    -0.262 OA
BRANCH  17  18
HETATM   18  C4  UNL     1      26.738   5.181  48.918  1.00  0.00     0.081 A 
HETATM   19  C5  UNL     1      26.080   6.334  49.294  1.00  0.00     0.037 A 
HETATM   20  C6  UNL     1      26.683   7.589  49.152  1.00  0.00     0.003 A 
HETATM   21  C7  UNL     1      27.969   7.664  48.623  1.00  0.00     0.000 A 
HETATM   22  C8  UNL     1      28.612   6.499  48.252  1.00  0.00     0.003 A 
HETATM   23  C9  UNL     1      28.023   5.255  48.389  1.00  0.00     0.037 A 
ENDBRANCH  17  18
ENDBRANCH  14  17
ENDBRANCH  11  13
ENDBRANCH   9  11
ENDBRANCH   1   9
BRANCH   8  24
HETATM   24  N5  UNL     1      24.138  -0.928  53.275  1.00  0.00    -0.375 N 
HETATM   25  H16 UNL     1      24.408  -1.553  52.482  1.00  0.00     0.160 HD
BRANCH  24  26
HETATM   26  C16 UNL     1      22.817  -0.453  53.292  1.00  0.00     0.030 A 
HETATM   27  C17 UNL     1      22.065  -0.335  54.453  1.00  0.00     0.029 A 
HETATM   28  C18 UNL     1      20.771   0.124  54.512  1.00  0.00     0.004 A 
HETATM   29  C19 UNL     1      20.145   0.504  53.351  1.00  0.00     0.019 A 
HETATM   30  C20 UNL     1      20.841   0.410  52.167  1.00  0.00     0.013 A 
HETATM   31 BR1  UNL     1      20.000   0.932  50.522  1.00  0.00    -0.051 Br
HETATM   32  C21 UNL     1      22.135  -0.058  52.163  1.00  0.00     0.048 A 
ENDBRANCH  24  26
ENDBRANCH   8  24
TORSDOF 7
ENDMDL
MODEL 3
REMARK VINA RESULT:      -8.3      2.999      7.086
REMARK  7 active torsions:
REMARK  status: ('A' for Active; 'I' for Inactive)
REMARK    1  A    between atoms: C2_2  and  N1_3 
REMARK    2  A    between atoms: C2_2  and  N2_13 
REMARK       I    between atoms: N1_3  and  C3_4 
REMARK    3  A    between atoms: C3_4  and  O2_6 
REMARK    4  A    between atoms: O2_6  and  C4_7 
REMARK    5  A    between atoms: N2_13  and  C10_14 
REMARK    6  A    between atoms: C15_21  and  N5_22 
REMARK    7  A    between atoms: N5_22  and  C16_23 
ROOT
HETATM    1  C10 UNL     1      21.635   0.257  52.857  1.00  0.00     0.038 C 
HETATM    2  C11 UNL     1      20.714  -0.504  53.466  1.00  0.00     0.026 C 
HETATM    3  C12 UNL     1      20.857  -1.679  54.355  1.00  0.00     0.203 C 
HETATM    4  N3  UNL     1      21.947  -1.615  55.259  1.00  0.00    -0.189 NA
HETATM    5  N4  UNL     1      23.132  -1.189  55.133  1.00  0.00    -0.157 NA
HETATM    6  C13 UNL     1      23.725  -0.630  53.996  1.00  0.00     0.094 A 
HETATM    7  C14 UNL     1      23.080  -0.007  53.016  1.00  0.00     0.025 A 
HETATM    8  C15 UNL     1      24.543  -0.100  52.863  1.00  0.00     0.174 A 
ENDROOT
BRANCH   1   9
HETATM    9  N2  UNL     1      21.152   1.321  52.062  1.00  0.00    -0.369 N 
HETATM   10  H11 UNL     1      20.361   1.952  52.354  1.00  0.00     0.161 HD
BRANCH   9  11
HETATM   11  C2  UNL     1      21.776   1.571  50.758  1.00  0.00     0.182 C 
HETATM   12  C1  UNL     1      20.839   1.044  49.699  1.00  0.00     0.055 C 
BRANCH  11  13
HETATM   13  N1  UNL     1      21.939   2.994  50.543  1.00  0.00    -0.316 N 
HETATM   14  C3  UNL     1      22.853   3.769  51.330  1.00  0.00     0.367 C 
HETATM   15  O1  UNL     1      23.601   3.414  52.248  1.00  0.00    -0.238 OA
HETATM   16  H5  UNL     1      21.371   3.445  49.794  1.00  0.00     0.166 HD
BRANCH  14  17
HETATM   17  O2  UNL     1      22.921   5.120  51.031  1.00  0.00    -0.262 OA
BRANCH  17  18
HETATM   18  C4  UNL     1      24.061   5.663  50.453  1.00  0.00     0.081 A 
HETATM   19  C5  UNL     1      24.568   6.856  50.926  1.00  0.00     0.037 A 
HETATM   20  C6  UNL     1      25.715   7.427  50.363  1.00  0.00     0.003 A 
HETATM   21  C7  UNL     1      26.348   6.771  49.310  1.00  0.00     0.000 A 
HETATM   22  C8  UNL     1      25.826   5.577  48.851  1.00  0.00     0.003 A 
HETATM   23  C9  UNL     1      24.693   5.007  49.402  1.00  0.00     0.037 A 
ENDBRANCH  17  18
ENDBRANCH  14  17
ENDBRANCH  11  13
ENDBRANCH   9  11
ENDBRANCH   1   9
BRANCH   8  24
HETATM   24  N5  UNL     1      25.259   1.124  53.026  1.00  0.00    -0.375 N 
HETATM   25  H16 UNL     1      24.778   2.051  52.959  1.00  0.00     0.160 HD
BRANCH  24  26
HETATM   26  C16 UNL     1      26.639   1.138  53.281  1.00  0.00     0.030 A 
HETATM   27  C17 UNL     1      27.348   2.296  53.568  1.00  0.00     0.029 A 
HETATM   28  C18 UNL     1      28.697   2.353  53.823  1.00  0.00     0.004 A 
HETATM   29  C19 UNL     1      29.429   1.191  53.802  1.00  0.00     0.019 A 
HETATM   30  C20 UNL     1      28.779   0.009  53.525  1.00  0.00     0.013 A 
HETATM   31 BR1  UNL     1      29.768  -1.636  53.487  1.00  0.00    -0.051 Br
HETATM   32  C21 UNL     1      27.426   0.009  53.275  1.00  0.00     0.048 A 
ENDBRANCH  24  26
ENDBRANCH   8  24
TORSDOF 7
ENDMDL
MODEL 4
REMARK VINA RESULT:      -8.3      1.776      2.235
REMARK  7 active torsions:
REMARK  status: ('A' for Active; 'I' for Inactive)
REMARK    1  A    between atoms: C2_2  and  N1_3 
REMARK    2  A    between atoms: C2_2  and  N2_13 
REMARK       I    between atoms: N1_3  and  C3_4 
REMARK    3  A    between atoms: C3_4  and  O2_6 
REMARK    4  A    between atoms: O2_6  and  C4_7 
REMARK    5  A    between atoms: N2_13  and  C10_14 
REMARK    6  A    between atoms: C15_21  and  N5_22 
REMARK    7  A    between atoms: N5_22  and  C16_23 
ROOT
HETATM    1  C10 UNL     1      24.212   6.399  50.154  1.00  0.00     0.038 C 
HETATM    2  C11 UNL     1      23.878   7.623  49.722  1.00  0.00     0.026 C 
HETATM    3  C12 UNL     1      22.554   8.246  49.492  1.00  0.00     0.203 C 
HETATM    4  N3  UNL     1      21.557   7.896  50.438  1.00  0.00    -0.189 NA
HETATM    5  N4  UNL     1      21.279   6.806  51.017  1.00  0.00    -0.157 NA
HETATM    6  C13 UNL     1      21.921   5.571  50.872  1.00  0.00     0.094 A 
HETATM    7  C14 UNL     1      23.184   5.397  50.500  1.00  0.00     0.025 A 
HETATM    8  C15 UNL     1      22.420   4.166  50.775  1.00  0.00     0.174 A 
ENDROOT
BRANCH   1   9
HETATM    9  N2  UNL     1      25.594   6.122  50.263  1.00  0.00    -0.369 N 
HETATM   10  H11 UNL     1      26.239   6.633  50.921  1.00  0.00     0.161 HD
BRANCH   9  11
HETATM   11  C2  UNL     1      26.174   5.070  49.421  1.00  0.00     0.182 C 
HETATM   12  C1  UNL     1      27.068   5.742  48.407  1.00  0.00     0.055 C 
BRANCH  11  13
HETATM   13  N1  UNL     1      26.992   4.180  50.219  1.00  0.00    -0.316 N 
HETATM   14  C3  UNL     1      26.456   2.976  50.783  1.00  0.00     0.367 C 
HETATM   15  O1  UNL     1      25.313   2.511  50.707  1.00  0.00    -0.238 OA
HETATM   16  H5  UNL     1      27.990   4.439  50.374  1.00  0.00     0.166 HD
BRANCH  14  17
HETATM   17  O2  UNL     1      27.335   2.207  51.528  1.00  0.00    -0.262 OA
BRANCH  17  18
HETATM   18  C4  UNL     1      26.863   1.256  52.422  1.00  0.00     0.081 A 
HETATM   19  C5  UNL     1      26.691   1.589  53.750  1.00  0.00     0.037 A 
HETATM   20  C6  UNL     1      26.217   0.651  54.674  1.00  0.00     0.003 A 
HETATM   21  C7  UNL     1      25.917  -0.636  54.236  1.00  0.00     0.000 A 
HETATM   22  C8  UNL     1      26.096  -0.951  52.903  1.00  0.00     0.003 A 
HETATM   23  C9  UNL     1      26.563  -0.029  51.984  1.00  0.00     0.037 A 
ENDBRANCH  17  18
ENDBRANCH  14  17
ENDBRANCH  11  13
ENDBRANCH   9  11
ENDBRANCH   1   9
BRANCH   8  24
HETATM   24  N5  UNL     1      22.785   3.467  51.965  1.00  0.00    -0.375 N 
HETATM   25  H16 UNL     1      23.481   3.862  52.639  1.00  0.00     0.160 HD
BRANCH  24  26
HETATM   26  C16 UNL     1      22.227   2.219  52.283  1.00  0.00     0.030 A 
HETATM   27  C17 UNL     1      22.883   1.265  53.047  1.00  0.00     0.029 A 
HETATM   28  C18 UNL     1      22.372   0.033  53.381  1.00  0.00     0.004 A 
HETATM   29  C19 UNL     1      21.118  -0.310  52.940  1.00  0.00     0.019 A 
HETATM   30  C20 UNL     1      20.417   0.598  52.178  1.00  0.00     0.013 A 
HETATM   31 BR1  UNL     1      18.660   0.156  51.543  1.00  0.00    -0.051 Br
HETATM   32  C21 UNL     1      20.976   1.818  51.872  1.00  0.00     0.048 A 
ENDBRANCH  24  26
ENDBRANCH   8  24
TORSDOF 7
ENDMDL
MODEL 5
REMARK VINA RESULT:      -8.2      1.491      1.942
REMARK  7 active torsions:
REMARK  status: ('A' for Active; 'I' for Inactive)
REMARK    1  A    between atoms: C2_2  and  N1_3 
REMARK    2  A    between atoms: C2_2  and  N2_13 
REMARK       I    between atoms: N1_3  and  C3_4 
REMARK    3  A    between atoms: C3_4  and  O2_6 
REMARK    4  A    between atoms: O2_6  and  C4_7 
REMARK    5  A    between atoms: N2_13  and  C10_14 
REMARK    6  A    between atoms: C15_21  and  N5_22 
REMARK    7  A    between atoms: N5_22  and  C16_23 
ROOT
HETATM    1  C10 UNL     1      23.846   4.424  49.546  1.00  0.00     0.038 C 
HETATM    2  C11 UNL     1      23.688   5.225  48.482  1.00  0.00     0.026 C 
HETATM    3  C12 UNL     1      22.558   5.377  47.537  1.00  0.00     0.203 C 
HETATM    4  N3  UNL     1      21.272   5.275  48.124  1.00  0.00    -0.189 NA
HETATM    5  N4  UNL     1      20.806   4.522  49.029  1.00  0.00    -0.157 NA
HETATM    6  C13 UNL     1      21.479   3.523  49.741  1.00  0.00     0.094 A 
HETATM    7  C14 UNL     1      22.787   3.482  49.964  1.00  0.00     0.025 A 
HETATM    8  C15 UNL     1      22.005   2.367  50.527  1.00  0.00     0.174 A 
ENDROOT
BRANCH   1   9
HETATM    9  N2  UNL     1      25.070   4.532  50.243  1.00  0.00    -0.369 N 
HETATM   10  H11 UNL     1      25.254   5.256  50.985  1.00  0.00     0.161 HD
BRANCH   9  11
HETATM   11  C2  UNL     1      26.150   3.590  49.927  1.00  0.00     0.182 C 
HETATM   12  C1  UNL     1      27.144   4.318  49.055  1.00  0.00     0.055 C 
BRANCH  11  13
HETATM   13  N1  UNL     1      26.832   3.181  51.138  1.00  0.00    -0.316 N 
HETATM   14  C3  UNL     1      26.159   2.433  52.158  1.00  0.00     0.367 C 
HETATM   15  O1  UNL     1      24.989   2.034  52.201  1.00  0.00    -0.238 OA
HETATM   16  H5  UNL     1      27.834   3.446  51.250  1.00  0.00     0.166 HD
BRANCH  14  17
HETATM   17  O2  UNL     1      26.915   2.101  53.271  1.00  0.00    -0.262 OA
BRANCH  17  18
HETATM   18  C4  UNL     1      27.687   0.947  53.285  1.00  0.00     0.081 A 
HETATM   19  C5  UNL     1      29.033   1.026  53.577  1.00  0.00     0.037 A 
HETATM   20  C6  UNL     1      29.836  -0.120  53.598  1.00  0.00     0.003 A 
HETATM   21  C7  UNL     1      29.256  -1.356  53.320  1.00  0.00     0.000 A 
HETATM   22  C8  UNL     1      27.907  -1.415  53.030  1.00  0.00     0.003 A 
HETATM   23  C9  UNL     1      27.107  -0.287  53.007  1.00  0.00     0.037 A 
ENDBRANCH  17  18
ENDBRANCH  14  17
ENDBRANCH  11  13
ENDBRANCH   9  11
ENDBRANCH   1   9
BRANCH   8  24
HETATM   24  N5  UNL     1      21.871   2.364  51.948  1.00  0.00    -0.375 N 
HETATM   25  H16 UNL     1      22.074   3.218  52.518  1.00  0.00     0.160 HD
BRANCH  24  26
HETATM   26  C16 UNL     1      21.462   1.216  52.645  1.00  0.00     0.030 A 
HETATM   27  C17 UNL     1      20.199   0.657  52.514  1.00  0.00     0.029 A 
HETATM   28  C18 UNL     1      19.760  -0.464  53.176  1.00  0.00     0.004 A 
HETATM   29  C19 UNL     1      20.613  -1.104  54.041  1.00  0.00     0.019 A 
HETATM   30  C20 UNL     1      21.881  -0.596  54.211  1.00  0.00     0.013 A 
HETATM   31 BR1  UNL     1      23.103  -1.463  55.411  1.00  0.00    -0.051 Br
HETATM   32  C21 UNL     1      22.270   0.531  53.524  1.00  0.00     0.048 A 
ENDBRANCH  24  26
ENDBRANCH   8  24
TORSDOF 7
ENDMDL
MODEL 6
REMARK VINA RESULT:      -8.2      3.091      6.189
REMARK  7 active torsions:
REMARK  status: ('A' for Active; 'I' for Inactive)
REMARK    1  A    between atoms: C2_2  and  N1_3 
REMARK    2  A    between atoms: C2_2  and  N2_13 
REMARK       I    between atoms: N1_3  and  C3_4 
REMARK    3  A    between atoms: C3_4  and  O2_6 
REMARK    4  A    between atoms: O2_6  and  C4_7 
REMARK    5  A    between atoms: N2_13  and  C10_14 
REMARK    6  A    between atoms: C15_21  and  N5_22 
REMARK    7  A    between atoms: N5_22  and  C16_23 
ROOT
HETATM    1  C10 UNL     1      23.586   0.084  53.468  1.00  0.00     0.038 C 
HETATM    2  C11 UNL     1      24.253  -0.639  54.378  1.00  0.00     0.026 C 
HETATM    3  C12 UNL     1      23.789  -1.329  55.604  1.00  0.00     0.203 C 
HETATM    4  N3  UNL     1      22.515  -1.941  55.498  1.00  0.00    -0.189 NA
HETATM    5  N4  UNL     1      21.442  -1.580  54.933  1.00  0.00    -0.157 NA
HETATM    6  C13 UNL     1      21.207  -0.404  54.213  1.00  0.00     0.094 A 
HETATM    7  C14 UNL     1      22.131   0.312  53.582  1.00  0.00     0.025 A 
HETATM    8  C15 UNL     1      20.751   0.826  53.498  1.00  0.00     0.174 A 
ENDROOT
BRANCH   1   9
HETATM    9  N2  UNL     1      24.345   0.613  52.399  1.00  0.00    -0.369 N 
HETATM   10  H11 UNL     1      24.656   0.042  51.571  1.00  0.00     0.161 HD
BRANCH   9  11
HETATM   11  C2  UNL     1      24.725   2.029  52.432  1.00  0.00     0.182 C 
HETATM   12  C1  UNL     1      26.093   2.116  53.065  1.00  0.00     0.055 C 
BRANCH  11  13
HETATM   13  N1  UNL     1      24.820   2.557  51.087  1.00  0.00    -0.316 N 
HETATM   14  C3  UNL     1      24.522   3.929  50.800  1.00  0.00     0.367 C 
HETATM   15  O1  UNL     1      24.163   4.834  51.562  1.00  0.00    -0.238 OA
HETATM   16  H5  UNL     1      25.114   1.909  50.325  1.00  0.00     0.166 HD
BRANCH  14  17
HETATM   17  O2  UNL     1      24.648   4.317  49.476  1.00  0.00    -0.262 OA
BRANCH  17  18
HETATM   18  C4  UNL     1      25.774   5.003  49.041  1.00  0.00     0.081 A 
HETATM   19  C5  UNL     1      25.662   6.317  48.635  1.00  0.00     0.037 A 
HETATM   20  C6  UNL     1      26.779   7.034  48.193  1.00  0.00     0.003 A 
HETATM   21  C7  UNL     1      28.020   6.402  48.167  1.00  0.00     0.000 A 
HETATM   22  C8  UNL     1      28.112   5.086  48.577  1.00  0.00     0.003 A 
HETATM   23  C9  UNL     1      27.013   4.371  49.016  1.00  0.00     0.037 A 
ENDBRANCH  17  18
ENDBRANCH  14  17
ENDBRANCH  11  13
ENDBRANCH   9  11
ENDBRANCH   1   9
BRANCH   8  24
HETATM   24  N5  UNL     1      20.126   0.705  52.220  1.00  0.00    -0.375 N 
HETATM   25  H16 UNL     1      19.271   0.119  52.083  1.00  0.00     0.160 HD
BRANCH  24  26
HETATM   26  C16 UNL     1      20.631   1.369  51.091  1.00  0.00     0.030 A 
HETATM   27  C17 UNL     1      21.233   0.711  50.027  1.00  0.00     0.029 A 
HETATM   28  C18 UNL     1      21.739   1.323  48.906  1.00  0.00     0.004 A 
HETATM   29  C19 UNL     1      21.658   2.689  48.797  1.00  0.00     0.019 A 
HETATM   30  C20 UNL     1      21.070   3.397  49.822  1.00  0.00     0.013 A 
HETATM   31 BR1  UNL     1      20.938   5.309  49.707  1.00  0.00    -0.051 Br
HETATM   32  C21 UNL     1      20.580   2.734  50.924  1.00  0.00     0.048 A 
ENDBRANCH  24  26
ENDBRANCH   8  24
TORSDOF 7
ENDMDL
MODEL 7
REMARK VINA RESULT:      -8.1      2.618      6.476
REMARK  7 active torsions:
REMARK  status: ('A' for Active; 'I' for Inactive)
REMARK    1  A    between atoms: C2_2  and  N1_3 
REMARK    2  A    between atoms: C2_2  and  N2_13 
REMARK       I    between atoms: N1_3  and  C3_4 
REMARK    3  A    between atoms: C3_4  and  O2_6 
REMARK    4  A    between atoms: O2_6  and  C4_7 
REMARK    5  A    between atoms: N2_13  and  C10_14 
REMARK    6  A    between atoms: C15_21  and  N5_22 
REMARK    7  A    between atoms: N5_22  and  C16_23 
ROOT
HETATM    1  C10 UNL     1      27.026   2.034  53.287  1.00  0.00     0.038 C 
HETATM    2  C11 UNL     1      28.299   2.420  53.460  1.00  0.00     0.026 C 
HETATM    3  C12 UNL     1      29.377   1.864  54.307  1.00  0.00     0.203 C 
HETATM    4  N3  UNL     1      29.400   0.449  54.393  1.00  0.00    -0.189 NA
HETATM    5  N4  UNL     1      28.477  -0.412  54.479  1.00  0.00    -0.157 NA
HETATM    6  C13 UNL     1      27.096  -0.188  54.515  1.00  0.00     0.094 A 
HETATM    7  C14 UNL     1      26.472   0.866  54.001  1.00  0.00     0.025 A 
HETATM    8  C15 UNL     1      25.610  -0.134  54.657  1.00  0.00     0.174 A 
ENDROOT
BRANCH   1   9
HETATM    9  N2  UNL     1      26.249   2.800  52.388  1.00  0.00    -0.369 N 
HETATM   10  H11 UNL     1      26.649   3.555  51.772  1.00  0.00     0.161 HD
BRANCH   9  11
HETATM   11  C2  UNL     1      24.809   2.538  52.297  1.00  0.00     0.182 C 
HETATM   12  C1  UNL     1      24.104   3.593  53.116  1.00  0.00     0.055 C 
BRANCH  11  13
HETATM   13  N1  UNL     1      24.359   2.664  50.925  1.00  0.00    -0.316 N 
HETATM   14  C3  UNL     1      24.796   3.745  50.092  1.00  0.00     0.367 C 
HETATM   15  O1  UNL     1      25.559   4.683  50.352  1.00  0.00    -0.238 OA
HETATM   16  H5  UNL     1      23.706   1.941  50.556  1.00  0.00     0.166 HD
BRANCH  14  17
HETATM   17  O2  UNL     1      24.297   3.759  48.800  1.00  0.00    -0.262 OA
BRANCH  17  18
HETATM   18  C4  UNL     1      22.935   3.625  48.563  1.00  0.00     0.081 A 
HETATM   19  C5  UNL     1      22.066   4.610  48.985  1.00  0.00     0.037 A 
HETATM   20  C6  UNL     1      20.689   4.503  48.760  1.00  0.00     0.003 A 
HETATM   21  C7  UNL     1      20.199   3.380  48.098  1.00  0.00     0.000 A 
HETATM   22  C8  UNL     1      21.085   2.404  47.683  1.00  0.00     0.003 A 
HETATM   23  C9  UNL     1      22.447   2.504  47.902  1.00  0.00     0.037 A 
ENDBRANCH  17  18
ENDBRANCH  14  17
ENDBRANCH  11  13
ENDBRANCH   9  11
ENDBRANCH   1   9
BRANCH   8  24
HETATM   24  N5  UNL     1      24.791  -0.910  53.783  1.00  0.00    -0.375 N 
HETATM   25  H16 UNL     1      25.202  -1.637  53.152  1.00  0.00     0.160 HD
BRANCH  24  26
HETATM   26  C16 UNL     1      23.400  -0.733  53.731  1.00  0.00     0.030 A 
HETATM   27  C17 UNL     1      22.550  -1.079  54.772  1.00  0.00     0.029 A 
HETATM   28  C18 UNL     1      21.184  -0.922  54.761  1.00  0.00     0.004 A 
HETATM   29  C19 UNL     1      20.584  -0.384  53.650  1.00  0.00     0.019 A 
HETATM   30  C20 UNL     1      21.377  -0.020  52.585  1.00  0.00     0.013 A 
HETATM   31 BR1  UNL     1      20.575   0.736  51.013  1.00  0.00    -0.051 Br
HETATM   32  C21 UNL     1      22.740  -0.200  52.647  1.00  0.00     0.048 A 
ENDBRANCH  24  26
ENDBRANCH   8  24
TORSDOF 7
ENDMDL
MODEL 8
REMARK VINA RESULT:      -8.0      5.033      6.500
REMARK  7 active torsions:
REMARK  status: ('A' for Active; 'I' for Inactive)
REMARK    1  A    between atoms: C2_2  and  N1_3 
REMARK    2  A    between atoms: C2_2  and  N2_13 
REMARK       I    between atoms: N1_3  and  C3_4 
REMARK    3  A    between atoms: C3_4  and  O2_6 
REMARK    4  A    between atoms: O2_6  and  C4_7 
REMARK    5  A    between atoms: N2_13  and  C10_14 
REMARK    6  A    between atoms: C15_21  and  N5_22 
REMARK    7  A    between atoms: N5_22  and  C16_23 
ROOT
HETATM    1  C10 UNL     1      27.202   6.689  48.612  1.00  0.00     0.038 C 
HETATM    2  C11 UNL     1      26.528   7.601  47.898  1.00  0.00     0.026 C 
HETATM    3  C12 UNL     1      25.153   7.585  47.348  1.00  0.00     0.203 C 
HETATM    4  N3  UNL     1      24.185   6.971  48.182  1.00  0.00    -0.189 NA
HETATM    5  N4  UNL     1      24.225   5.942  48.918  1.00  0.00    -0.157 NA
HETATM    6  C13 UNL     1      25.306   5.078  49.123  1.00  0.00     0.094 A 
HETATM    7  C14 UNL     1      26.588   5.400  48.991  1.00  0.00     0.025 A 
HETATM    8  C15 UNL     1      26.314   4.007  49.387  1.00  0.00     0.174 A 
ENDROOT
BRANCH   1   9
HETATM    9  N2  UNL     1      28.524   7.026  48.984  1.00  0.00    -0.369 N 
HETATM   10  H11 UNL     1      29.056   6.533  49.747  1.00  0.00     0.161 HD
BRANCH   9  11
HETATM   11  C2  UNL     1      29.202   8.117  48.276  1.00  0.00     0.182 C 
HETATM   12  C1  UNL     1      29.656   9.116  49.312  1.00  0.00     0.055 C 
BRANCH  11  13
HETATM   13  N1  UNL     1      30.377   7.619  47.590  1.00  0.00    -0.316 N 
HETATM   14  C3  UNL     1      31.257   6.671  48.208  1.00  0.00     0.367 C 
HETATM   15  O1  UNL     1      31.193   6.149  49.327  1.00  0.00    -0.238 OA
HETATM   16  H5  UNL     1      30.568   7.970  46.627  1.00  0.00     0.166 HD
BRANCH  14  17
HETATM   17  O2  UNL     1      32.348   6.271  47.454  1.00  0.00    -0.262 OA
BRANCH  17  18
HETATM   18  C4  UNL     1      32.694   4.929  47.365  1.00  0.00     0.081 A 
HETATM   19  C5  UNL     1      33.916   4.502  47.843  1.00  0.00     0.037 A 
HETATM   20  C6  UNL     1      34.292   3.157  47.766  1.00  0.00     0.003 A 
HETATM   21  C7  UNL     1      33.411   2.241  47.198  1.00  0.00     0.000 A 
HETATM   22  C8  UNL     1      32.191   2.686  46.725  1.00  0.00     0.003 A 
HETATM   23  C9  UNL     1      31.813   4.015  46.797  1.00  0.00     0.037 A 
ENDBRANCH  17  18
ENDBRANCH  14  17
ENDBRANCH  11  13
ENDBRANCH   9  11
ENDBRANCH   1   9
BRANCH   8  24
HETATM   24  N5  UNL     1      26.647   3.672  50.735  1.00  0.00    -0.375 N 
HETATM   25  H16 UNL     1      27.387   4.192  51.260  1.00  0.00     0.160 HD
BRANCH  24  26
HETATM   26  C16 UNL     1      25.994   2.632  51.415  1.00  0.00     0.030 A 
HETATM   27  C17 UNL     1      24.700   2.737  51.905  1.00  0.00     0.029 A 
HETATM   28  C18 UNL     1      24.027   1.743  52.575  1.00  0.00     0.004 A 
HETATM   29  C19 UNL     1      24.655   0.542  52.791  1.00  0.00     0.019 A 
HETATM   30  C20 UNL     1      25.941   0.378  52.326  1.00  0.00     0.013 A 
HETATM   31 BR1  UNL     1      26.852  -1.288  52.609  1.00  0.00    -0.051 Br
HETATM   32  C21 UNL     1      26.570   1.406  51.662  1.00  0.00     0.048 A 
ENDBRANCH  24  26
ENDBRANCH   8  24
TORSDOF 7
ENDMDL
MODEL 9
REMARK VINA RESULT:      -7.8      3.029      7.639
REMARK  7 active torsions:
REMARK  status: ('A' for Active; 'I' for Inactive)
REMARK    1  A    between atoms: C2_2  and  N1_3 
REMARK    2  A    between atoms: C2_2  and  N2_13 
REMARK       I    between atoms: N1_3  and  C3_4 
REMARK    3  A    between atoms: C3_4  and  O2_6 
REMARK    4  A    between atoms: O2_6  and  C4_7 
REMARK    5  A    between atoms: N2_13  and  C10_14 
REMARK    6  A    between atoms: C15_21  and  N5_22 
REMARK    7  A    between atoms: N5_22  and  C16_23 
ROOT
HETATM    1  C10 UNL     1      24.766   0.312  53.114  1.00  0.00     0.038 C 
HETATM    2  C11 UNL     1      25.540  -0.714  53.496  1.00  0.00     0.026 C 
HETATM    3  C12 UNL     1      26.938  -1.059  53.150  1.00  0.00     0.203 C 
HETATM    4  N3  UNL     1      27.815   0.049  53.032  1.00  0.00    -0.189 NA
HETATM    5  N4  UNL     1      27.662   1.206  52.542  1.00  0.00    -0.157 NA
HETATM    6  C13 UNL     1      26.514   1.740  51.947  1.00  0.00     0.094 A 
HETATM    7  C14 UNL     1      25.267   1.355  52.195  1.00  0.00     0.025 A 
HETATM    8  C15 UNL     1      25.420   2.437  51.206  1.00  0.00     0.174 A 
ENDROOT
BRANCH   1   9
HETATM    9  N2  UNL     1      23.454   0.344  53.638  1.00  0.00    -0.369 N 
HETATM   10  H11 UNL     1      23.124   1.062  54.334  1.00  0.00     0.161 HD
BRANCH   9  11
HETATM   11  C2  UNL     1      22.490  -0.670  53.197  1.00  0.00     0.182 C 
HETATM   12  C1  UNL     1      21.530  -0.908  54.337  1.00  0.00     0.055 C 
BRANCH  11  13
HETATM   13  N1  UNL     1      21.729  -0.183  52.065  1.00  0.00    -0.316 N 
HETATM   14  C3  UNL     1      21.358   1.197  51.952  1.00  0.00     0.367 C 
HETATM   15  O1  UNL     1      21.589   2.140  52.717  1.00  0.00    -0.238 OA
HETATM   16  H5  UNL     1      21.456  -0.867  51.327  1.00  0.00     0.166 HD
BRANCH  14  17
HETATM   17  O2  UNL     1      20.629   1.542  50.826  1.00  0.00    -0.262 OA
BRANCH  17  18
HETATM   18  C4  UNL     1      21.191   2.334  49.833  1.00  0.00     0.081 A 
HETATM   19  C5  UNL     1      20.605   3.539  49.503  1.00  0.00     0.037 A 
HETATM   20  C6  UNL     1      21.149   4.357  48.507  1.00  0.00     0.003 A 
HETATM   21  C7  UNL     1      22.301   3.940  47.845  1.00  0.00     0.000 A 
HETATM   22  C8  UNL     1      22.874   2.731  48.189  1.00  0.00     0.003 A 
HETATM   23  C9  UNL     1      22.342   1.917  49.172  1.00  0.00     0.037 A 
ENDBRANCH  17  18
ENDBRANCH  14  17
ENDBRANCH  11  13
ENDBRANCH   9  11
ENDBRANCH   1   9
BRANCH   8  24
HETATM   24  N5  UNL     1      24.993   3.730  51.636  1.00  0.00    -0.375 N 
HETATM   25  H16 UNL     1      24.808   3.936  52.645  1.00  0.00     0.160 HD
BRANCH  24  26
HETATM   26  C16 UNL     1      24.803   4.780  50.725  1.00  0.00     0.030 A 
HETATM   27  C17 UNL     1      25.661   5.031  49.664  1.00  0.00     0.029 A 
HETATM   28  C18 UNL     1      25.511   6.047  48.751  1.00  0.00     0.004 A 
HETATM   29  C19 UNL     1      24.439   6.897  48.869  1.00  0.00     0.019 A 
HETATM   30  C20 UNL     1      23.552   6.697  49.904  1.00  0.00     0.013 A 
HETATM   31 BR1  UNL     1      22.040   7.864  50.103  1.00  0.00    -0.051 Br
HETATM   32  C21 UNL     1      23.750   5.664  50.791  1.00  0.00     0.048 A 
ENDBRANCH  24  26
ENDBRANCH   8  24
TORSDOF 7
ENDMDL
