MODEL 1
REMARK VINA RESULT:      -8.8      0.000      0.000
REMARK  3 active torsions:
REMARK  status: ('A' for Active; 'I' for Inactive)
REMARK       I    between atoms: C1_2  and  N1_3 
REMARK    1  A    between atoms: C1_2  and  C8_10 
REMARK    2  A    between atoms: N1_3  and  C2_4 
REMARK    3  A    between atoms: C16_19  and  C17_20 
ROOT
HETATM    1  C8  UNL     1      26.048   1.117  52.004  1.00  0.00     0.114 A 
HETATM    2  C9  UNL     1      26.884   1.869  53.266  1.00  0.00     0.011 A 
HETATM    3  C10 UNL     1      28.223   1.557  53.036  1.00  0.00     0.028 C 
HETATM    4  C11 UNL     1      28.287   0.932  54.469  1.00  0.00     0.096 C 
HETATM    5  N2  UNL     1      26.837   0.747  54.840  1.00  0.00    -0.407 N 
HETATM    6  C12 UNL     1      26.282   1.163  53.328  1.00  0.00     0.040 A 
HETATM    7  C13 UNL     1      25.613   2.384  53.504  1.00  0.00     0.033 A 
HETATM    8  C14 UNL     1      26.760  -0.049  52.514  1.00  0.00     0.015 A 
HETATM    9  C15 UNL     1      27.386  -0.914  53.271  1.00  0.00     0.019 C 
HETATM   10  C16 UNL     1      28.510  -0.583  54.259  1.00  0.00     0.121 C 
HETATM   11  H10 UNL     1      26.956   0.442  55.894  1.00  0.00     0.154 HD
ENDROOT
BRANCH   1  12
HETATM   12  C1  UNL     1      24.673   1.129  51.977  1.00  0.00     0.229 C 
HETATM   13  O1  UNL     1      24.160   0.286  52.790  1.00  0.00    -0.273 OA
HETATM   14  N1  UNL     1      23.733   1.883  51.234  1.00  0.00    -0.327 N 
HETATM   15  H1  UNL     1      24.138   2.563  50.566  1.00  0.00     0.169 HD
BRANCH  14  16
HETATM   16  C2  UNL     1      22.349   1.599  51.499  1.00  0.00     0.034 A 
HETATM   17  C3  UNL     1      21.663   0.531  50.954  1.00  0.00     0.029 A 
HETATM   18  C4  UNL     1      20.332   0.355  51.280  1.00  0.00     0.002 A 
HETATM   19  C5  UNL     1      19.737   1.260  52.146  1.00  0.00     0.000 A 
HETATM   20  C6  UNL     1      20.433   2.324  52.684  1.00  0.00     0.002 A 
HETATM   21  C7  UNL     1      21.756   2.506  52.365  1.00  0.00     0.029 A 
ENDBRANCH  14  16
ENDBRANCH   1  12
BRANCH  10  22
HETATM   22  C17 UNL     1      29.783  -0.889  53.550  1.00  0.00     0.393 C 
HETATM   23  F1  UNL     1      30.562   0.214  53.306  1.00  0.00    -0.171 F 
HETATM   24  F2  UNL     1      30.521  -1.700  54.412  1.00  0.00    -0.171 F 
HETATM   25  F3  UNL     1      29.550  -1.668  52.435  1.00  0.00    -0.171 F 
ENDBRANCH  10  22
TORSDOF 3
ENDMDL
MODEL 2
REMARK VINA RESULT:      -8.2      1.915      2.608
REMARK  3 active torsions:
REMARK  status: ('A' for Active; 'I' for Inactive)
REMARK       I    between atoms: C1_2  and  N1_3 
REMARK    1  A    between atoms: C1_2  and  C8_10 
REMARK    2  A    between atoms: N1_3  and  C2_4 
REMARK    3  A    between atoms: C16_19  and  C17_20 
ROOT
HETATM    1  C8  UNL     1      24.748   1.897  53.089  1.00  0.00     0.114 A 
HETATM    2  C9  UNL     1      25.034   0.367  53.748  1.00  0.00     0.011 A 
HETATM    3  C10 UNL     1      26.134   0.545  54.585  1.00  0.00     0.028 C 
HETATM    4  C11 UNL     1      26.882  -0.570  53.782  1.00  0.00     0.096 C 
HETATM    5  N2  UNL     1      26.080  -0.690  52.511  1.00  0.00    -0.407 N 
HETATM    6  C12 UNL     1      25.124   0.626  52.859  1.00  0.00     0.040 A 
HETATM    7  C13 UNL     1      23.842   0.102  53.081  1.00  0.00     0.033 A 
HETATM    8  C14 UNL     1      26.149   1.761  52.711  1.00  0.00     0.015 A 
HETATM    9  C15 UNL     1      27.327   1.297  52.378  1.00  0.00     0.019 C 
HETATM   10  C16 UNL     1      28.056   0.139  53.071  1.00  0.00     0.121 C 
HETATM   11  H10 UNL     1      26.572  -1.573  52.068  1.00  0.00     0.154 HD
ENDROOT
BRANCH   1  12
HETATM   12  C1  UNL     1      23.786   2.069  52.121  1.00  0.00     0.229 C 
HETATM   13  O1  UNL     1      22.734   2.639  52.572  1.00  0.00    -0.273 OA
HETATM   14  N1  UNL     1      23.737   1.740  50.745  1.00  0.00    -0.327 N 
HETATM   15  H1  UNL     1      24.582   1.271  50.372  1.00  0.00     0.169 HD
BRANCH  14  16
HETATM   16  C2  UNL     1      22.527   2.094  50.056  1.00  0.00     0.034 A 
HETATM   17  C3  UNL     1      22.279   3.345  49.525  1.00  0.00     0.029 A 
HETATM   18  C4  UNL     1      21.078   3.572  48.882  1.00  0.00     0.002 A 
HETATM   19  C5  UNL     1      20.166   2.531  48.794  1.00  0.00     0.000 A 
HETATM   20  C6  UNL     1      20.425   1.285  49.329  1.00  0.00     0.002 A 
HETATM   21  C7  UNL     1      21.617   1.050  49.970  1.00  0.00     0.029 A 
ENDBRANCH  14  16
ENDBRANCH   1  12
BRANCH  10  22
HETATM   22  C17 UNL     1      29.016   0.767  54.019  1.00  0.00     0.393 C 
HETATM   23  F1  UNL     1      28.903   0.311  55.308  1.00  0.00    -0.171 F 
HETATM   24  F2  UNL     1      30.289   0.391  53.587  1.00  0.00    -0.171 F 
HETATM   25  F3  UNL     1      28.991   2.143  53.906  1.00  0.00    -0.171 F 
ENDBRANCH  10  22
TORSDOF 3
ENDMDL
MODEL 3
REMARK VINA RESULT:      -8.2      4.440      7.205
REMARK  3 active torsions:
REMARK  status: ('A' for Active; 'I' for Inactive)
REMARK       I    between atoms: C1_2  and  N1_3 
REMARK    1  A    between atoms: C1_2  and  C8_10 
REMARK    2  A    between atoms: N1_3  and  C2_4 
REMARK    3  A    between atoms: C16_19  and  C17_20 
ROOT
HETATM    1  C8  UNL     1      24.332   1.854  51.382  1.00  0.00     0.114 A 
HETATM    2  C9  UNL     1      23.622   3.253  52.009  1.00  0.00     0.011 A 
HETATM    3  C10 UNL     1      22.630   3.586  51.088  1.00  0.00     0.028 C 
HETATM    4  C11 UNL     1      23.298   4.991  50.928  1.00  0.00     0.096 C 
HETATM    5  N2  UNL     1      24.674   4.798  51.513  1.00  0.00    -0.407 N 
HETATM    6  C12 UNL     1      24.489   3.154  51.689  1.00  0.00     0.040 A 
HETATM    7  C13 UNL     1      24.458   2.932  53.074  1.00  0.00     0.033 A 
HETATM    8  C14 UNL     1      24.493   2.715  50.217  1.00  0.00     0.015 A 
HETATM    9  C15 UNL     1      24.639   3.740  49.415  1.00  0.00     0.019 C 
HETATM   10  C16 UNL     1      23.831   5.042  49.479  1.00  0.00     0.121 C 
HETATM   11  H10 UNL     1      25.029   5.843  51.495  1.00  0.00     0.154 HD
ENDROOT
BRANCH   1  12
HETATM   12  C1  UNL     1      25.436   1.302  51.990  1.00  0.00     0.229 C 
HETATM   13  O1  UNL     1      26.533   1.699  51.466  1.00  0.00    -0.273 OA
HETATM   14  N1  UNL     1      25.588   0.396  53.067  1.00  0.00    -0.327 N 
HETATM   15  H1  UNL     1      24.705   0.063  53.493  1.00  0.00     0.169 HD
BRANCH  14  16
HETATM   16  C2  UNL     1      26.940   0.056  53.416  1.00  0.00     0.034 A 
HETATM   17  C3  UNL     1      27.744   0.831  54.229  1.00  0.00     0.029 A 
HETATM   18  C4  UNL     1      29.030   0.405  54.499  1.00  0.00     0.002 A 
HETATM   19  C5  UNL     1      29.464  -0.789  53.941  1.00  0.00     0.000 A 
HETATM   20  C6  UNL     1      28.651  -1.555  53.130  1.00  0.00     0.002 A 
HETATM   21  C7  UNL     1      27.371  -1.139  52.857  1.00  0.00     0.029 A 
ENDBRANCH  14  16
ENDBRANCH   1  12
BRANCH  10  22
HETATM   22  C17 UNL     1      22.756   4.908  48.459  1.00  0.00     0.393 C 
HETATM   23  F1  UNL     1      21.527   5.345  48.887  1.00  0.00    -0.171 F 
HETATM   24  F2  UNL     1      23.117   5.746  47.403  1.00  0.00    -0.171 F 
HETATM   25  F3  UNL     1      22.743   3.638  47.920  1.00  0.00    -0.171 F 
ENDBRANCH  10  22
TORSDOF 3
ENDMDL
MODEL 4
REMARK VINA RESULT:      -8.1      2.203      2.456
REMARK  3 active torsions:
REMARK  status: ('A' for Active; 'I' for Inactive)
REMARK       I    between atoms: C1_2  and  N1_3 
REMARK    1  A    between atoms: C1_2  and  C8_10 
REMARK    2  A    between atoms: N1_3  and  C2_4 
REMARK    3  A    between atoms: C16_19  and  C17_20 
ROOT
HETATM    1  C8  UNL     1      25.703   2.514  51.705  1.00  0.00     0.114 A 
HETATM    2  C9  UNL     1      25.505   2.218  53.357  1.00  0.00     0.011 A 
HETATM    3  C10 UNL     1      26.794   1.971  53.826  1.00  0.00     0.028 C 
HETATM    4  C11 UNL     1      26.297   0.587  54.361  1.00  0.00     0.096 C 
HETATM    5  N2  UNL     1      24.994   0.373  53.633  1.00  0.00    -0.407 N 
HETATM    6  C12 UNL     1      25.199   1.699  52.649  1.00  0.00     0.040 A 
HETATM    7  C13 UNL     1      24.207   2.608  53.044  1.00  0.00     0.033 A 
HETATM    8  C14 UNL     1      26.362   1.215  51.769  1.00  0.00     0.015 A 
HETATM    9  C15 UNL     1      26.735   0.004  52.098  1.00  0.00     0.019 C 
HETATM   10  C16 UNL     1      27.036  -0.479  53.522  1.00  0.00     0.121 C 
HETATM   11  H10 UNL     1      24.641  -0.533  54.154  1.00  0.00     0.154 HD
ENDROOT
BRANCH   1  12
HETATM   12  C1  UNL     1      24.606   2.692  50.894  1.00  0.00     0.229 C 
HETATM   13  O1  UNL     1      24.565   3.859  50.374  1.00  0.00    -0.273 OA
HETATM   14  N1  UNL     1      23.532   1.844  50.531  1.00  0.00    -0.327 N 
HETATM   15  H1  UNL     1      23.552   0.898  50.953  1.00  0.00     0.169 HD
BRANCH  14  16
HETATM   16  C2  UNL     1      22.560   2.409  49.636  1.00  0.00     0.034 A 
HETATM   17  C3  UNL     1      22.683   2.403  48.260  1.00  0.00     0.029 A 
HETATM   18  C4  UNL     1      21.684   2.976  47.497  1.00  0.00     0.002 A 
HETATM   19  C5  UNL     1      20.593   3.535  48.146  1.00  0.00     0.000 A 
HETATM   20  C6  UNL     1      20.481   3.536  49.522  1.00  0.00     0.002 A 
HETATM   21  C7  UNL     1      21.470   2.968  50.288  1.00  0.00     0.029 A 
ENDBRANCH  14  16
ENDBRANCH   1  12
BRANCH  10  22
HETATM   22  C17 UNL     1      28.515  -0.414  53.673  1.00  0.00     0.393 C 
HETATM   23  F1  UNL     1      29.090   0.668  53.055  1.00  0.00    -0.171 F 
HETATM   24  F2  UNL     1      28.758  -0.253  55.038  1.00  0.00    -0.171 F 
HETATM   25  F3  UNL     1      29.097  -1.621  53.345  1.00  0.00    -0.171 F 
ENDBRANCH  10  22
TORSDOF 3
ENDMDL
MODEL 5
REMARK VINA RESULT:      -8.0      4.021      4.861
REMARK  3 active torsions:
REMARK  status: ('A' for Active; 'I' for Inactive)
REMARK       I    between atoms: C1_2  and  N1_3 
REMARK    1  A    between atoms: C1_2  and  C8_10 
REMARK    2  A    between atoms: N1_3  and  C2_4 
REMARK    3  A    between atoms: C16_19  and  C17_20 
ROOT
HETATM    1  C8  UNL     1      24.805   2.781  51.026  1.00  0.00     0.114 A 
HETATM    2  C9  UNL     1      26.375   2.157  50.966  1.00  0.00     0.011 A 
HETATM    3  C10 UNL     1      26.260   0.867  51.479  1.00  0.00     0.028 C 
HETATM    4  C11 UNL     1      27.334   1.236  52.555  1.00  0.00     0.096 C 
HETATM    5  N2  UNL     1      27.369   2.743  52.518  1.00  0.00    -0.407 N 
HETATM    6  C12 UNL     1      26.065   2.858  51.493  1.00  0.00     0.040 A 
HETATM    7  C13 UNL     1      26.585   3.354  50.288  1.00  0.00     0.033 A 
HETATM    8  C14 UNL     1      24.936   2.396  52.427  1.00  0.00     0.015 A 
HETATM    9  C15 UNL     1      25.393   2.105  53.618  1.00  0.00     0.019 C 
HETATM   10  C16 UNL     1      26.598   1.205  53.913  1.00  0.00     0.121 C 
HETATM   11  H10 UNL     1      28.230   2.922  53.186  1.00  0.00     0.154 HD
ENDROOT
BRANCH   1  12
HETATM   12  C1  UNL     1      24.565   4.093  50.691  1.00  0.00     0.229 C 
HETATM   13  O1  UNL     1      24.109   4.220  49.504  1.00  0.00    -0.273 OA
HETATM   14  N1  UNL     1      24.723   5.310  51.397  1.00  0.00    -0.327 N 
HETATM   15  H1  UNL     1      25.100   5.219  52.358  1.00  0.00     0.169 HD
BRANCH  14  16
HETATM   16  C2  UNL     1      24.350   6.502  50.688  1.00  0.00     0.034 A 
HETATM   17  C3  UNL     1      23.046   6.932  50.535  1.00  0.00     0.029 A 
HETATM   18  C4  UNL     1      22.803   8.096  49.832  1.00  0.00     0.002 A 
HETATM   19  C5  UNL     1      23.884   8.790  49.306  1.00  0.00     0.000 A 
HETATM   20  C6  UNL     1      25.182   8.350  49.464  1.00  0.00     0.002 A 
HETATM   21  C7  UNL     1      25.432   7.194  50.162  1.00  0.00     0.029 A 
ENDBRANCH  14  16
ENDBRANCH   1  12
BRANCH  10  22
HETATM   22  C17 UNL     1      26.039  -0.135  54.240  1.00  0.00     0.393 C 
HETATM   23  F1  UNL     1      26.711  -1.177  53.651  1.00  0.00    -0.171 F 
HETATM   24  F2  UNL     1      26.205  -0.299  55.617  1.00  0.00    -0.171 F 
HETATM   25  F3  UNL     1      24.674  -0.163  54.038  1.00  0.00    -0.171 F 
ENDBRANCH  10  22
TORSDOF 3
ENDMDL
MODEL 6
REMARK VINA RESULT:      -7.8      6.219      7.656
REMARK  3 active torsions:
REMARK  status: ('A' for Active; 'I' for Inactive)
REMARK       I    between atoms: C1_2  and  N1_3 
REMARK    1  A    between atoms: C1_2  and  C8_10 
REMARK    2  A    between atoms: N1_3  and  C2_4 
REMARK    3  A    between atoms: C16_19  and  C17_20 
ROOT
HETATM    1  C8  UNL     1      25.250   5.125  49.062  1.00  0.00     0.114 A 
HETATM    2  C9  UNL     1      24.790   6.655  49.612  1.00  0.00     0.011 A 
HETATM    3  C10 UNL     1      25.001   7.498  48.523  1.00  0.00     0.028 C 
HETATM    4  C11 UNL     1      25.941   8.367  49.422  1.00  0.00     0.096 C 
HETATM    5  N2  UNL     1      26.250   7.463  50.589  1.00  0.00    -0.407 N 
HETATM    6  C12 UNL     1      25.509   6.142  49.904  1.00  0.00     0.040 A 
HETATM    7  C13 UNL     1      24.383   5.894  50.704  1.00  0.00     0.033 A 
HETATM    8  C14 UNL     1      26.482   5.842  48.754  1.00  0.00     0.015 A 
HETATM    9  C15 UNL     1      27.481   6.687  48.744  1.00  0.00     0.019 C 
HETATM   10  C16 UNL     1      27.357   8.213  48.823  1.00  0.00     0.121 C 
HETATM   11  H10 UNL     1      26.790   8.177  51.235  1.00  0.00     0.154 HD
ENDROOT
BRANCH   1  12
HETATM   12  C1  UNL     1      25.273   4.053  49.924  1.00  0.00     0.229 C 
HETATM   13  O1  UNL     1      24.439   3.142  49.596  1.00  0.00    -0.273 OA
HETATM   14  N1  UNL     1      26.032   3.770  51.086  1.00  0.00    -0.327 N 
HETATM   15  H1  UNL     1      26.706   4.506  51.365  1.00  0.00     0.169 HD
BRANCH  14  16
HETATM   16  C2  UNL     1      25.761   2.511  51.722  1.00  0.00     0.034 A 
HETATM   17  C3  UNL     1      24.676   2.281  52.546  1.00  0.00     0.029 A 
HETATM   18  C4  UNL     1      24.515   1.028  53.105  1.00  0.00     0.002 A 
HETATM   19  C5  UNL     1      25.452   0.047  52.814  1.00  0.00     0.000 A 
HETATM   20  C6  UNL     1      26.532   0.289  51.990  1.00  0.00     0.002 A 
HETATM   21  C7  UNL     1      26.700   1.532  51.430  1.00  0.00     0.029 A 
ENDBRANCH  14  16
ENDBRANCH   1  12
BRANCH  10  22
HETATM   22  C17 UNL     1      27.451   8.706  47.422  1.00  0.00     0.393 C 
HETATM   23  F1  UNL     1      26.516   9.658  47.103  1.00  0.00    -0.171 F 
HETATM   24  F2  UNL     1      28.693   9.334  47.314  1.00  0.00    -0.171 F 
HETATM   25  F3  UNL     1      27.504   7.653  46.531  1.00  0.00    -0.171 F 
ENDBRANCH  10  22
TORSDOF 3
ENDMDL
MODEL 7
REMARK VINA RESULT:      -7.8      4.665      6.687
REMARK  3 active torsions:
REMARK  status: ('A' for Active; 'I' for Inactive)
REMARK       I    between atoms: C1_2  and  N1_3 
REMARK    1  A    between atoms: C1_2  and  C8_10 
REMARK    2  A    between atoms: N1_3  and  C2_4 
REMARK    3  A    between atoms: C16_19  and  C17_20 
ROOT
HETATM    1  C8  UNL     1      22.809   3.054  52.217  1.00  0.00     0.114 A 
HETATM    2  C9  UNL     1      21.340   2.457  51.630  1.00  0.00     0.011 A 
HETATM    3  C10 UNL     1      20.770   1.797  52.717  1.00  0.00     0.028 C 
HETATM    4  C11 UNL     1      20.698   0.499  51.847  1.00  0.00     0.096 C 
HETATM    5  N2  UNL     1      21.638   0.785  50.704  1.00  0.00    -0.407 N 
HETATM    6  C12 UNL     1      22.197   2.202  51.374  1.00  0.00     0.040 A 
HETATM    7  C13 UNL     1      21.724   3.219  50.532  1.00  0.00     0.033 A 
HETATM    8  C14 UNL     1      22.994   1.650  52.566  1.00  0.00     0.015 A 
HETATM    9  C15 UNL     1      22.946   0.343  52.607  1.00  0.00     0.019 C 
HETATM   10  C16 UNL     1      21.672  -0.504  52.505  1.00  0.00     0.121 C 
HETATM   11  H10 UNL     1      21.432  -0.096  50.073  1.00  0.00     0.154 HD
ENDROOT
BRANCH   1  12
HETATM   12  C1  UNL     1      23.694   3.676  51.368  1.00  0.00     0.229 C 
HETATM   13  O1  UNL     1      23.975   4.867  51.740  1.00  0.00    -0.273 OA
HETATM   14  N1  UNL     1      24.344   3.258  50.182  1.00  0.00    -0.327 N 
HETATM   15  H1  UNL     1      24.117   2.297  49.867  1.00  0.00     0.169 HD
BRANCH  14  16
HETATM   16  C2  UNL     1      25.221   4.220  49.572  1.00  0.00     0.034 A 
HETATM   17  C3  UNL     1      24.806   5.450  49.099  1.00  0.00     0.029 A 
HETATM   18  C4  UNL     1      25.738   6.297  48.532  1.00  0.00     0.002 A 
HETATM   19  C5  UNL     1      27.058   5.877  48.460  1.00  0.00     0.000 A 
HETATM   20  C6  UNL     1      27.461   4.645  48.936  1.00  0.00     0.002 A 
HETATM   21  C7  UNL     1      26.540   3.797  49.502  1.00  0.00     0.029 A 
ENDBRANCH  14  16
ENDBRANCH   1  12
BRANCH  10  22
HETATM   22  C17 UNL     1      21.295  -0.848  53.903  1.00  0.00     0.393 C 
HETATM   23  F1  UNL     1      19.949  -1.040  54.085  1.00  0.00    -0.171 F 
HETATM   24  F2  UNL     1      21.901  -2.075  54.177  1.00  0.00    -0.171 F 
HETATM   25  F3  UNL     1      21.860   0.038  54.798  1.00  0.00    -0.171 F 
ENDBRANCH  10  22
TORSDOF 3
ENDMDL
MODEL 8
REMARK VINA RESULT:      -7.7      4.801      7.654
REMARK  3 active torsions:
REMARK  status: ('A' for Active; 'I' for Inactive)
REMARK       I    between atoms: C1_2  and  N1_3 
REMARK    1  A    between atoms: C1_2  and  C8_10 
REMARK    2  A    between atoms: N1_3  and  C2_4 
REMARK    3  A    between atoms: C16_19  and  C17_20 
ROOT
HETATM    1  C8  UNL     1      24.968   3.433  50.610  1.00  0.00     0.114 A 
HETATM    2  C9  UNL     1      23.362   2.912  50.553  1.00  0.00     0.011 A 
HETATM    3  C10 UNL     1      22.703   3.886  49.804  1.00  0.00     0.028 C 
HETATM    4  C11 UNL     1      21.725   4.099  51.006  1.00  0.00     0.096 C 
HETATM    5  N2  UNL     1      22.442   3.454  52.165  1.00  0.00    -0.407 N 
HETATM    6  C12 UNL     1      23.838   3.194  51.300  1.00  0.00     0.040 A 
HETATM    7  C13 UNL     1      23.934   1.801  51.164  1.00  0.00     0.033 A 
HETATM    8  C14 UNL     1      24.334   4.638  51.132  1.00  0.00     0.015 A 
HETATM    9  C15 UNL     1      23.522   5.490  51.706  1.00  0.00     0.019 C 
HETATM   10  C16 UNL     1      22.000   5.528  51.525  1.00  0.00     0.121 C 
HETATM   11  H10 UNL     1      21.647   3.517  52.929  1.00  0.00     0.154 HD
ENDROOT
BRANCH   1  12
HETATM   12  C1  UNL     1      25.893   2.756  51.371  1.00  0.00     0.229 C 
HETATM   13  O1  UNL     1      26.831   2.250  50.666  1.00  0.00    -0.273 OA
HETATM   14  N1  UNL     1      26.002   2.515  52.762  1.00  0.00    -0.327 N 
HETATM   15  H1  UNL     1      25.241   2.914  53.342  1.00  0.00     0.169 HD
BRANCH  14  16
HETATM   16  C2  UNL     1      27.142   1.747  53.180  1.00  0.00     0.034 A 
HETATM   17  C3  UNL     1      28.325   2.304  53.625  1.00  0.00     0.029 A 
HETATM   18  C4  UNL     1      29.358   1.467  54.003  1.00  0.00     0.002 A 
HETATM   19  C5  UNL     1      29.164   0.096  53.919  1.00  0.00     0.000 A 
HETATM   20  C6  UNL     1      27.977  -0.448  53.472  1.00  0.00     0.002 A 
HETATM   21  C7  UNL     1      26.945   0.376  53.095  1.00  0.00     0.029 A 
ENDBRANCH  14  16
ENDBRANCH   1  12
BRANCH  10  22
HETATM   22  C17 UNL     1      21.734   6.578  50.504  1.00  0.00     0.393 C 
HETATM   23  F1  UNL     1      20.720   6.263  49.635  1.00  0.00    -0.171 F 
HETATM   24  F2  UNL     1      21.302   7.703  51.209  1.00  0.00    -0.171 F 
HETATM   25  F3  UNL     1      22.903   6.970  49.884  1.00  0.00    -0.171 F 
ENDBRANCH  10  22
TORSDOF 3
ENDMDL
MODEL 9
REMARK VINA RESULT:      -7.5      4.634      5.978
REMARK  3 active torsions:
REMARK  status: ('A' for Active; 'I' for Inactive)
REMARK       I    between atoms: C1_2  and  N1_3 
REMARK    1  A    between atoms: C1_2  and  C8_10 
REMARK    2  A    between atoms: N1_3  and  C2_4 
REMARK    3  A    between atoms: C16_19  and  C17_20 
ROOT
HETATM    1  C8  UNL     1      23.527   2.906  49.703  1.00  0.00     0.114 A 
HETATM    2  C9  UNL     1      22.959   4.493  49.588  1.00  0.00     0.011 A 
HETATM    3  C10 UNL     1      23.750   5.080  48.603  1.00  0.00     0.028 C 
HETATM    4  C11 UNL     1      24.163   6.179  49.637  1.00  0.00     0.096 C 
HETATM    5  N2  UNL     1      23.774   5.579  50.965  1.00  0.00    -0.407 N 
HETATM    6  C12 UNL     1      23.393   4.099  50.310  1.00  0.00     0.040 A 
HETATM    7  C13 UNL     1      22.003   3.978  50.458  1.00  0.00     0.033 A 
HETATM    8  C14 UNL     1      24.791   3.601  49.914  1.00  0.00     0.015 A 
HETATM    9  C15 UNL     1      25.714   4.475  50.228  1.00  0.00     0.019 C 
HETATM   10  C16 UNL     1      25.673   5.971  49.893  1.00  0.00     0.121 C 
HETATM   11  H10 UNL     1      23.960   6.449  51.619  1.00  0.00     0.154 HD
ENDROOT
BRANCH   1  12
HETATM   12  C1  UNL     1      23.035   2.059  50.669  1.00  0.00     0.229 C 
HETATM   13  O1  UNL     1      22.305   1.131  50.181  1.00  0.00    -0.273 OA
HETATM   14  N1  UNL     1      23.181   2.019  52.077  1.00  0.00    -0.327 N 
HETATM   15  H1  UNL     1      23.765   2.773  52.483  1.00  0.00     0.169 HD
BRANCH  14  16
HETATM   16  C2  UNL     1      22.497   0.950  52.749  1.00  0.00     0.034 A 
HETATM   17  C3  UNL     1      23.080  -0.262  53.063  1.00  0.00     0.029 A 
HETATM   18  C4  UNL     1      22.325  -1.219  53.713  1.00  0.00     0.002 A 
HETATM   19  C5  UNL     1      21.007  -0.923  54.027  1.00  0.00     0.000 A 
HETATM   20  C6  UNL     1      20.435   0.292  53.708  1.00  0.00     0.002 A 
HETATM   21  C7  UNL     1      21.178   1.250  53.062  1.00  0.00     0.029 A 
ENDBRANCH  14  16
ENDBRANCH   1  12
BRANCH  10  22
HETATM   22  C17 UNL     1      26.498   6.139  48.666  1.00  0.00     0.393 C 
HETATM   23  F1  UNL     1      25.852   6.792  47.646  1.00  0.00    -0.171 F 
HETATM   24  F2  UNL     1      27.569   6.957  49.029  1.00  0.00    -0.171 F 
HETATM   25  F3  UNL     1      27.072   4.942  48.290  1.00  0.00    -0.171 F 
ENDBRANCH  10  22
TORSDOF 3
ENDMDL
