MODEL 1
REMARK VINA RESULT:      -9.6      0.000      0.000
REMARK  2 active torsions:
REMARK  status: ('A' for Active; 'I' for Inactive)
REMARK    1  A    between atoms: C10_11  and  N2_12 
REMARK    2  A    between atoms: N2_12  and  C11_13 
ROOT
HETATM    1  C1  UNL     1      18.373  -1.347  53.367  1.00  0.00     0.048 C 
HETATM    2  C2  UNL     1      19.610  -0.532  53.321  1.00  0.00    -0.061 A 
HETATM    3  C3  UNL     1      20.811  -1.036  53.800  1.00  0.00     0.009 A 
HETATM    4  C4  UNL     1      22.013  -0.363  53.800  1.00  0.00     0.038 A 
HETATM    5  C5  UNL     1      21.968   0.907  53.271  1.00  0.00     0.085 A 
HETATM    6  C6  UNL     1      20.821   1.470  52.779  1.00  0.00    -0.006 A 
HETATM    7  C7  UNL     1      19.643   0.760  52.799  1.00  0.00     0.018 A 
HETATM    8  C8  UNL     1      20.460   2.762  52.171  1.00  0.00     0.160 A 
HETATM    9  N1  UNL     1      21.558   3.646  51.916  1.00  0.00    -0.391 N 
HETATM   10  C9  UNL     1      22.953   3.617  52.137  1.00  0.00     0.140 A 
HETATM   11  C10 UNL     1      23.658   2.683  52.743  1.00  0.00     0.163 A 
HETATM   12  O1  UNL     1      23.215   1.499  53.314  1.00  0.00    -0.292 OA
HETATM   13  H9  UNL     1      21.091   4.482  51.451  1.00  0.00     0.159 HD
ENDROOT
BRANCH  11  14
HETATM   14  N2  UNL     1      24.995   3.124  52.703  1.00  0.00    -0.342 N 
HETATM   15  H11 UNL     1      25.443   4.021  52.405  1.00  0.00     0.167 HD
BRANCH  14  16
HETATM   16  C11 UNL     1      26.022   2.232  53.140  1.00  0.00    -0.005 A 
HETATM   17  C12 UNL     1      26.676   1.291  53.730  1.00  0.00     0.042 A 
HETATM   18  C13 UNL     1      26.571   0.237  54.643  1.00  0.00     0.052 C 
HETATM   19  C21 UNL     1      27.428   2.439  52.581  1.00  0.00     0.066 A 
HETATM   20  C14 UNL     1      25.967  -0.949  54.400  1.00  0.00    -0.010 C 
HETATM   21  C15 UNL     1      25.839  -1.080  53.095  1.00  0.00    -0.046 C 
HETATM   22  C16 UNL     1      26.999  -0.780  52.498  1.00  0.00     0.008 C 
HETATM   23  C17 UNL     1      28.237  -1.016  53.284  1.00  0.00     0.000 C 
HETATM   24  C18 UNL     1      29.286  -0.437  53.912  1.00  0.00    -0.004 C 
HETATM   25  C19 UNL     1      29.385   1.036  53.900  1.00  0.00    -0.021 C 
HETATM   26  C20 UNL     1      28.399   1.602  53.242  1.00  0.00     0.022 C 
ENDBRANCH  14  16
ENDBRANCH  11  14
TORSDOF 2
ENDMDL
MODEL 2
REMARK VINA RESULT:      -9.2      2.097      3.454
REMARK  2 active torsions:
REMARK  status: ('A' for Active; 'I' for Inactive)
REMARK    1  A    between atoms: C10_11  and  N2_12 
REMARK    2  A    between atoms: N2_12  and  C11_13 
ROOT
HETATM    1  C1  UNL     1      19.427   2.497  48.695  1.00  0.00     0.048 C 
HETATM    2  C2  UNL     1      20.271   1.846  49.724  1.00  0.00    -0.061 A 
HETATM    3  C3  UNL     1      21.656   1.918  49.657  1.00  0.00     0.009 A 
HETATM    4  C4  UNL     1      22.528   1.352  50.561  1.00  0.00     0.038 A 
HETATM    5  C5  UNL     1      21.928   0.671  51.597  1.00  0.00     0.085 A 
HETATM    6  C6  UNL     1      20.571   0.558  51.730  1.00  0.00    -0.006 A 
HETATM    7  C7  UNL     1      19.738   1.141  50.802  1.00  0.00     0.018 A 
HETATM    8  C8  UNL     1      19.656  -0.082  52.690  1.00  0.00     0.160 A 
HETATM    9  N1  UNL     1      20.285  -0.657  53.843  1.00  0.00    -0.391 N 
HETATM   10  C9  UNL     1      21.613  -0.808  54.301  1.00  0.00     0.140 A 
HETATM   11  C10 UNL     1      22.726  -0.458  53.688  1.00  0.00     0.163 A 
HETATM   12  O1  UNL     1      22.879   0.142  52.448  1.00  0.00    -0.292 OA
HETATM   13  H9  UNL     1      19.462  -1.021  54.410  1.00  0.00     0.159 HD
ENDROOT
BRANCH  11  14
HETATM   14  N2  UNL     1      23.773  -0.820  54.559  1.00  0.00    -0.342 N 
HETATM   15  H11 UNL     1      23.802  -1.347  55.462  1.00  0.00     0.167 HD
BRANCH  14  16
HETATM   16  C11 UNL     1      25.107  -0.433  54.223  1.00  0.00    -0.005 A 
HETATM   17  C12 UNL     1      26.178  -0.113  53.582  1.00  0.00     0.042 A 
HETATM   18  C13 UNL     1      26.726   0.073  52.308  1.00  0.00     0.052 C 
HETATM   19  C21 UNL     1      26.092  -0.209  55.367  1.00  0.00     0.066 A 
HETATM   20  C14 UNL     1      26.463   1.120  51.491  1.00  0.00    -0.010 C 
HETATM   21  C15 UNL     1      25.930   2.080  52.219  1.00  0.00    -0.046 C 
HETATM   22  C16 UNL     1      26.656   2.257  53.330  1.00  0.00     0.008 C 
HETATM   23  C17 UNL     1      28.102   1.923  53.245  1.00  0.00     0.000 C 
HETATM   24  C18 UNL     1      29.077   1.082  53.657  1.00  0.00    -0.004 C 
HETATM   25  C19 UNL     1      28.715  -0.015  54.576  1.00  0.00    -0.021 C 
HETATM   26  C20 UNL     1      27.439  -0.012  54.888  1.00  0.00     0.022 C 
ENDBRANCH  14  16
ENDBRANCH  11  14
TORSDOF 2
ENDMDL
MODEL 3
REMARK VINA RESULT:      -9.0      3.400      6.273
REMARK  2 active torsions:
REMARK  status: ('A' for Active; 'I' for Inactive)
REMARK    1  A    between atoms: C10_11  and  N2_12 
REMARK    2  A    between atoms: N2_12  and  C11_13 
ROOT
HETATM    1  C1  UNL     1      28.353   7.448  47.840  1.00  0.00     0.048 C 
HETATM    2  C2  UNL     1      27.411   6.401  48.303  1.00  0.00    -0.061 A 
HETATM    3  C3  UNL     1      27.866   5.135  48.645  1.00  0.00     0.009 A 
HETATM    4  C4  UNL     1      27.077   4.097  49.087  1.00  0.00     0.038 A 
HETATM    5  C5  UNL     1      25.735   4.388  49.181  1.00  0.00     0.085 A 
HETATM    6  C6  UNL     1      25.212   5.612  48.863  1.00  0.00    -0.006 A 
HETATM    7  C7  UNL     1      26.039   6.620  48.425  1.00  0.00     0.018 A 
HETATM    8  C8  UNL     1      23.867   6.213  48.855  1.00  0.00     0.160 A 
HETATM    9  N1  UNL     1      22.828   5.392  49.401  1.00  0.00    -0.391 N 
HETATM   10  C9  UNL     1      22.745   4.087  49.935  1.00  0.00     0.140 A 
HETATM   11  C10 UNL     1      23.703   3.187  50.029  1.00  0.00     0.163 A 
HETATM   12  O1  UNL     1      25.027   3.289  49.631  1.00  0.00    -0.292 OA
HETATM   13  H9  UNL     1      21.969   6.017  49.337  1.00  0.00     0.159 HD
ENDROOT
BRANCH  11  14
HETATM   14  N2  UNL     1      23.112   2.059  50.631  1.00  0.00    -0.342 N 
HETATM   15  H11 UNL     1      22.187   1.587  50.512  1.00  0.00     0.167 HD
BRANCH  14  16
HETATM   16  C11 UNL     1      23.855   1.345  51.622  1.00  0.00    -0.005 A 
HETATM   17  C12 UNL     1      24.781   0.713  52.258  1.00  0.00     0.042 A 
HETATM   18  C13 UNL     1      26.095   0.241  52.175  1.00  0.00     0.052 C 
HETATM   19  C21 UNL     1      23.154   1.018  52.937  1.00  0.00     0.066 A 
HETATM   20  C14 UNL     1      27.207   1.011  52.230  1.00  0.00    -0.010 C 
HETATM   21  C15 UNL     1      26.866   2.180  52.736  1.00  0.00    -0.046 C 
HETATM   22  C16 UNL     1      26.120   1.994  53.832  1.00  0.00     0.008 C 
HETATM   23  C17 UNL     1      26.355   0.743  54.598  1.00  0.00     0.000 C 
HETATM   24  C18 UNL     1      25.838  -0.450  54.971  1.00  0.00    -0.004 C 
HETATM   25  C19 UNL     1      24.484  -0.805  54.502  1.00  0.00    -0.021 C 
HETATM   26  C20 UNL     1      23.943   0.138  53.764  1.00  0.00     0.022 C 
ENDBRANCH  14  16
ENDBRANCH  11  14
TORSDOF 2
ENDMDL
MODEL 4
REMARK VINA RESULT:      -8.8      1.434      6.801
REMARK  2 active torsions:
REMARK  status: ('A' for Active; 'I' for Inactive)
REMARK    1  A    between atoms: C10_11  and  N2_12 
REMARK    2  A    between atoms: N2_12  and  C11_13 
ROOT
HETATM    1  C1  UNL     1      29.972  -2.569  53.662  1.00  0.00     0.048 C 
HETATM    2  C2  UNL     1      28.837  -1.664  53.360  1.00  0.00    -0.061 A 
HETATM    3  C3  UNL     1      27.715  -2.131  52.689  1.00  0.00     0.009 A 
HETATM    4  C4  UNL     1      26.610  -1.375  52.363  1.00  0.00     0.038 A 
HETATM    5  C5  UNL     1      26.672  -0.057  52.756  1.00  0.00     0.085 A 
HETATM    6  C6  UNL     1      27.744   0.474  53.421  1.00  0.00    -0.006 A 
HETATM    7  C7  UNL     1      28.826  -0.319  53.726  1.00  0.00     0.018 A 
HETATM    8  C8  UNL     1      28.100   1.800  53.955  1.00  0.00     0.160 A 
HETATM    9  N1  UNL     1      27.065   2.788  53.878  1.00  0.00    -0.391 N 
HETATM   10  C9  UNL     1      25.749   2.836  53.368  1.00  0.00     0.140 A 
HETATM   11  C10 UNL     1      25.093   1.890  52.725  1.00  0.00     0.163 A 
HETATM   12  O1  UNL     1      25.524   0.617  52.387  1.00  0.00    -0.292 OA
HETATM   13  H9  UNL     1      27.508   3.636  54.342  1.00  0.00     0.159 HD
ENDROOT
BRANCH  11  14
HETATM   14  N2  UNL     1      23.826   2.432  52.433  1.00  0.00    -0.342 N 
HETATM   15  H11 UNL     1      23.494   3.401  52.223  1.00  0.00     0.167 HD
BRANCH  14  16
HETATM   16  C11 UNL     1      22.700   1.553  52.394  1.00  0.00    -0.005 A 
HETATM   17  C12 UNL     1      21.938   0.515  52.443  1.00  0.00     0.042 A 
HETATM   18  C13 UNL     1      21.913  -0.864  52.677  1.00  0.00     0.052 C 
HETATM   19  C21 UNL     1      21.344   2.152  52.030  1.00  0.00     0.066 A 
HETATM   20  C14 UNL     1      22.035  -1.452  53.890  1.00  0.00    -0.010 C 
HETATM   21  C15 UNL     1      21.808  -0.537  54.810  1.00  0.00    -0.046 C 
HETATM   22  C16 UNL     1      20.697   0.144  54.501  1.00  0.00     0.008 C 
HETATM   23  C17 UNL     1      19.667  -0.578  53.711  1.00  0.00     0.000 C 
HETATM   24  C18 UNL     1      19.032  -0.662  52.519  1.00  0.00    -0.004 C 
HETATM   25  C19 UNL     1      19.406   0.292  51.456  1.00  0.00    -0.021 C 
HETATM   26  C20 UNL     1      20.339   1.134  51.840  1.00  0.00     0.022 C 
ENDBRANCH  14  16
ENDBRANCH  11  14
TORSDOF 2
ENDMDL
MODEL 5
REMARK VINA RESULT:      -8.7      2.731      4.303
REMARK  2 active torsions:
REMARK  status: ('A' for Active; 'I' for Inactive)
REMARK    1  A    between atoms: C10_11  and  N2_12 
REMARK    2  A    between atoms: N2_12  and  C11_13 
ROOT
HETATM    1  C1  UNL     1      21.549   4.807  45.895  1.00  0.00     0.048 C 
HETATM    2  C2  UNL     1      22.263   4.542  47.166  1.00  0.00    -0.061 A 
HETATM    3  C3  UNL     1      23.136   5.480  47.700  1.00  0.00     0.009 A 
HETATM    4  C4  UNL     1      23.844   5.332  48.872  1.00  0.00     0.038 A 
HETATM    5  C5  UNL     1      23.635   4.141  49.530  1.00  0.00     0.085 A 
HETATM    6  C6  UNL     1      22.790   3.169  49.066  1.00  0.00    -0.006 A 
HETATM    7  C7  UNL     1      22.103   3.361  47.889  1.00  0.00     0.018 A 
HETATM    8  C8  UNL     1      22.369   1.834  49.522  1.00  0.00     0.160 A 
HETATM    9  N1  UNL     1      22.854   1.448  50.814  1.00  0.00    -0.391 N 
HETATM   10  C9  UNL     1      23.696   2.024  51.791  1.00  0.00     0.140 A 
HETATM   11  C10 UNL     1      24.353   3.165  51.726  1.00  0.00     0.163 A 
HETATM   12  O1  UNL     1      24.385   4.085  50.690  1.00  0.00    -0.292 OA
HETATM   13  H9  UNL     1      22.411   0.493  50.963  1.00  0.00     0.159 HD
ENDROOT
BRANCH  11  14
HETATM   14  N2  UNL     1      25.042   3.282  52.949  1.00  0.00    -0.342 N 
HETATM   15  H11 UNL     1      25.008   3.984  53.724  1.00  0.00     0.167 HD
BRANCH  14  16
HETATM   16  C11 UNL     1      26.006   2.284  53.289  1.00  0.00    -0.005 A 
HETATM   17  C12 UNL     1      26.604   1.267  53.808  1.00  0.00     0.042 A 
HETATM   18  C13 UNL     1      26.460   0.200  54.700  1.00  0.00     0.052 C 
HETATM   19  C21 UNL     1      27.383   2.374  52.637  1.00  0.00     0.066 A 
HETATM   20  C14 UNL     1      25.729  -0.916  54.471  1.00  0.00    -0.010 C 
HETATM   21  C15 UNL     1      25.500  -0.993  53.176  1.00  0.00    -0.046 C 
HETATM   22  C16 UNL     1      26.640  -0.785  52.506  1.00  0.00     0.008 C 
HETATM   23  C17 UNL     1      27.901  -1.162  53.195  1.00  0.00     0.000 C 
HETATM   24  C18 UNL     1      29.041  -0.705  53.761  1.00  0.00    -0.004 C 
HETATM   25  C19 UNL     1      29.281   0.751  53.778  1.00  0.00    -0.021 C 
HETATM   26  C20 UNL     1      28.312   1.429  53.206  1.00  0.00     0.022 C 
ENDBRANCH  14  16
ENDBRANCH  11  14
TORSDOF 2
ENDMDL
MODEL 6
REMARK VINA RESULT:      -8.6      2.540      4.539
REMARK  2 active torsions:
REMARK  status: ('A' for Active; 'I' for Inactive)
REMARK    1  A    between atoms: C10_11  and  N2_12 
REMARK    2  A    between atoms: N2_12  and  C11_13 
ROOT
HETATM    1  C1  UNL     1      16.959  -0.798  52.534  1.00  0.00     0.048 C 
HETATM    2  C2  UNL     1      18.418  -0.541  52.508  1.00  0.00    -0.061 A 
HETATM    3  C3  UNL     1      18.983   0.262  51.526  1.00  0.00     0.009 A 
HETATM    4  C4  UNL     1      20.322   0.563  51.416  1.00  0.00     0.038 A 
HETATM    5  C5  UNL     1      21.125  -0.001  52.381  1.00  0.00     0.085 A 
HETATM    6  C6  UNL     1      20.642  -0.803  53.381  1.00  0.00    -0.006 A 
HETATM    7  C7  UNL     1      19.295  -1.076  53.451  1.00  0.00     0.018 A 
HETATM    8  C8  UNL     1      21.224  -1.532  54.520  1.00  0.00     0.160 A 
HETATM    9  N1  UNL     1      22.620  -1.300  54.745  1.00  0.00    -0.391 N 
HETATM   10  C9  UNL     1      23.636  -0.551  54.111  1.00  0.00     0.140 A 
HETATM   11  C10 UNL     1      23.548   0.161  53.006  1.00  0.00     0.163 A 
HETATM   12  O1  UNL     1      22.446   0.357  52.189  1.00  0.00    -0.292 OA
HETATM   13  H9  UNL     1      22.822  -1.876  55.616  1.00  0.00     0.159 HD
ENDROOT
BRANCH  11  14
HETATM   14  N2  UNL     1      24.830   0.709  52.800  1.00  0.00    -0.342 N 
HETATM   15  H11 UNL     1      25.759   0.545  53.251  1.00  0.00     0.167 HD
BRANCH  14  16
HETATM   16  C11 UNL     1      24.993   1.702  51.785  1.00  0.00    -0.005 A 
HETATM   17  C12 UNL     1      24.798   2.503  50.794  1.00  0.00     0.042 A 
HETATM   18  C13 UNL     1      23.865   2.921  49.840  1.00  0.00     0.052 C 
HETATM   19  C21 UNL     1      26.348   2.398  51.684  1.00  0.00     0.066 A 
HETATM   20  C14 UNL     1      22.781   3.690  50.092  1.00  0.00    -0.010 C 
HETATM   21  C15 UNL     1      22.957   4.269  51.263  1.00  0.00    -0.046 C 
HETATM   22  C16 UNL     1      24.186   4.796  51.323  1.00  0.00     0.008 C 
HETATM   23  C17 UNL     1      24.796   5.220  50.036  1.00  0.00     0.000 C 
HETATM   24  C18 UNL     1      25.771   4.977  49.131  1.00  0.00    -0.004 C 
HETATM   25  C19 UNL     1      26.698   3.856  49.383  1.00  0.00    -0.021 C 
HETATM   26  C20 UNL     1      26.439   3.231  50.509  1.00  0.00     0.022 C 
ENDBRANCH  14  16
ENDBRANCH  11  14
TORSDOF 2
ENDMDL
MODEL 7
REMARK VINA RESULT:      -8.5      3.123      6.229
REMARK  2 active torsions:
REMARK  status: ('A' for Active; 'I' for Inactive)
REMARK    1  A    between atoms: C10_11  and  N2_12 
REMARK    2  A    between atoms: N2_12  and  C11_13 
ROOT
HETATM    1  C1  UNL     1      21.681  -1.352  54.580  1.00  0.00     0.048 C 
HETATM    2  C2  UNL     1      22.543  -0.446  53.784  1.00  0.00    -0.061 A 
HETATM    3  C3  UNL     1      21.987   0.515  52.951  1.00  0.00     0.009 A 
HETATM    4  C4  UNL     1      22.698   1.403  52.174  1.00  0.00     0.038 A 
HETATM    5  C5  UNL     1      24.066   1.290  52.268  1.00  0.00     0.085 A 
HETATM    6  C6  UNL     1      24.687   0.369  53.068  1.00  0.00    -0.006 A 
HETATM    7  C7  UNL     1      23.936  -0.499  53.827  1.00  0.00     0.018 A 
HETATM    8  C8  UNL     1      26.082   0.009  53.374  1.00  0.00     0.160 A 
HETATM    9  N1  UNL     1      27.074   0.867  52.798  1.00  0.00    -0.391 N 
HETATM   10  C9  UNL     1      27.066   1.995  51.947  1.00  0.00     0.140 A 
HETATM   11  C10 UNL     1      26.029   2.570  51.374  1.00  0.00     0.163 A 
HETATM   12  O1  UNL     1      24.690   2.220  51.457  1.00  0.00    -0.292 OA
HETATM   13  H9  UNL     1      27.986   0.462  53.167  1.00  0.00     0.159 HD
ENDROOT
BRANCH  11  14
HETATM   14  N2  UNL     1      26.549   3.649  50.632  1.00  0.00    -0.342 N 
HETATM   15  H11 UNL     1      27.522   3.974  50.430  1.00  0.00     0.167 HD
BRANCH  14  16
HETATM   16  C11 UNL     1      25.635   4.537  49.985  1.00  0.00    -0.005 A 
HETATM   17  C12 UNL     1      24.573   5.084  49.503  1.00  0.00     0.042 A 
HETATM   18  C13 UNL     1      23.189   4.939  49.354  1.00  0.00     0.052 C 
HETATM   19  C21 UNL     1      26.205   5.800  49.344  1.00  0.00     0.066 A 
HETATM   20  C14 UNL     1      22.277   5.093  50.342  1.00  0.00    -0.010 C 
HETATM   21  C15 UNL     1      22.855   5.748  51.329  1.00  0.00    -0.046 C 
HETATM   22  C16 UNL     1      23.506   6.811  50.842  1.00  0.00     0.008 C 
HETATM   23  C17 UNL     1      22.974   7.407  49.590  1.00  0.00     0.000 C 
HETATM   24  C18 UNL     1      23.200   7.622  48.274  1.00  0.00    -0.004 C 
HETATM   25  C19 UNL     1      24.454   7.113  47.685  1.00  0.00    -0.021 C 
HETATM   26  C20 UNL     1      25.215   6.504  48.567  1.00  0.00     0.022 C 
ENDBRANCH  14  16
ENDBRANCH  11  14
TORSDOF 2
ENDMDL
MODEL 8
REMARK VINA RESULT:      -8.4      1.749      2.408
REMARK  2 active torsions:
REMARK  status: ('A' for Active; 'I' for Inactive)
REMARK    1  A    between atoms: C10_11  and  N2_12 
REMARK    2  A    between atoms: N2_12  and  C11_13 
ROOT
HETATM    1  C1  UNL     1      16.256  -0.954  51.561  1.00  0.00     0.048 C 
HETATM    2  C2  UNL     1      17.623  -0.386  51.491  1.00  0.00    -0.061 A 
HETATM    3  C3  UNL     1      18.045   0.317  50.372  1.00  0.00     0.009 A 
HETATM    4  C4  UNL     1      19.290   0.884  50.209  1.00  0.00     0.038 A 
HETATM    5  C5  UNL     1      20.149   0.712  51.272  1.00  0.00     0.085 A 
HETATM    6  C6  UNL     1      19.804   0.032  52.409  1.00  0.00    -0.006 A 
HETATM    7  C7  UNL     1      18.548  -0.518  52.526  1.00  0.00     0.018 A 
HETATM    8  C8  UNL     1      20.475  -0.313  53.673  1.00  0.00     0.160 A 
HETATM    9  N1  UNL     1      21.773   0.265  53.854  1.00  0.00    -0.391 N 
HETATM   10  C9  UNL     1      22.631   1.086  53.088  1.00  0.00     0.140 A 
HETATM   11  C10 UNL     1      22.444   1.532  51.862  1.00  0.00     0.163 A 
HETATM   12  O1  UNL     1      21.367   1.313  51.017  1.00  0.00    -0.292 OA
HETATM   13  H9  UNL     1      22.054  -0.071  54.824  1.00  0.00     0.159 HD
ENDROOT
BRANCH  11  14
HETATM   14  N2  UNL     1      23.583   2.303  51.557  1.00  0.00    -0.342 N 
HETATM   15  H11 UNL     1      23.744   3.121  50.925  1.00  0.00     0.167 HD
BRANCH  14  16
HETATM   16  C11 UNL     1      24.820   1.976  52.192  1.00  0.00    -0.005 A 
HETATM   17  C12 UNL     1      25.713   1.522  53.003  1.00  0.00     0.042 A 
HETATM   18  C13 UNL     1      25.910   0.801  54.185  1.00  0.00     0.052 C 
HETATM   19  C21 UNL     1      26.107   2.479  51.543  1.00  0.00     0.066 A 
HETATM   20  C14 UNL     1      25.755  -0.537  54.319  1.00  0.00    -0.010 C 
HETATM   21  C15 UNL     1      25.761  -1.069  53.113  1.00  0.00    -0.046 C 
HETATM   22  C16 UNL     1      26.788  -0.576  52.410  1.00  0.00     0.008 C 
HETATM   23  C17 UNL     1      27.982  -0.144  53.182  1.00  0.00     0.000 C 
HETATM   24  C18 UNL     1      28.734   0.909  53.574  1.00  0.00    -0.004 C 
HETATM   25  C19 UNL     1      28.334   2.260  53.134  1.00  0.00    -0.021 C 
HETATM   26  C20 UNL     1      27.259   2.247  52.379  1.00  0.00     0.022 C 
ENDBRANCH  14  16
ENDBRANCH  11  14
TORSDOF 2
ENDMDL
MODEL 9
REMARK VINA RESULT:      -8.4      2.010      7.197
REMARK  2 active torsions:
REMARK  status: ('A' for Active; 'I' for Inactive)
REMARK    1  A    between atoms: C10_11  and  N2_12 
REMARK    2  A    between atoms: N2_12  and  C11_13 
ROOT
HETATM    1  C1  UNL     1      26.987   4.437  49.070  1.00  0.00     0.048 C 
HETATM    2  C2  UNL     1      26.270   3.584  50.047  1.00  0.00    -0.061 A 
HETATM    3  C3  UNL     1      24.885   3.608  50.131  1.00  0.00     0.009 A 
HETATM    4  C4  UNL     1      24.126   2.854  50.999  1.00  0.00     0.038 A 
HETATM    5  C5  UNL     1      24.846   2.026  51.830  1.00  0.00     0.085 A 
HETATM    6  C6  UNL     1      26.213   1.947  51.805  1.00  0.00    -0.006 A 
HETATM    7  C7  UNL     1      26.929   2.719  50.920  1.00  0.00     0.018 A 
HETATM    8  C8  UNL     1      27.237   1.188  52.541  1.00  0.00     0.160 A 
HETATM    9  N1  UNL     1      26.732   0.200  53.448  1.00  0.00    -0.391 N 
HETATM   10  C9  UNL     1      25.452  -0.230  53.865  1.00  0.00     0.140 A 
HETATM   11  C10 UNL     1      24.279   0.260  53.518  1.00  0.00     0.163 A 
HETATM   12  O1  UNL     1      24.002   1.314  52.660  1.00  0.00    -0.292 OA
HETATM   13  H9  UNL     1      27.616  -0.247  53.834  1.00  0.00     0.159 HD
ENDROOT
BRANCH  11  14
HETATM   14  N2  UNL     1      23.322  -0.514  54.203  1.00  0.00    -0.342 N 
HETATM   15  H11 UNL     1      23.390  -1.216  54.974  1.00  0.00     0.167 HD
BRANCH  14  16
HETATM   16  C11 UNL     1      21.947  -0.378  53.839  1.00  0.00    -0.005 A 
HETATM   17  C12 UNL     1      20.789   0.097  53.529  1.00  0.00     0.042 A 
HETATM   18  C13 UNL     1      20.064   1.276  53.325  1.00  0.00     0.052 C 
HETATM   19  C21 UNL     1      21.128  -1.655  53.667  1.00  0.00     0.066 A 
HETATM   20  C14 UNL     1      20.188   2.092  52.253  1.00  0.00    -0.010 C 
HETATM   21  C15 UNL     1      20.799   1.420  51.298  1.00  0.00    -0.046 C 
HETATM   22  C16 UNL     1      20.233   0.214  51.165  1.00  0.00     0.008 C 
HETATM   23  C17 UNL     1      18.797   0.104  51.531  1.00  0.00     0.000 C 
HETATM   24  C18 UNL     1      17.907  -0.417  52.406  1.00  0.00    -0.004 C 
HETATM   25  C19 UNL     1      18.417  -1.246  53.516  1.00  0.00    -0.021 C 
HETATM   26  C20 UNL     1      19.724  -1.375  53.490  1.00  0.00     0.022 C 
ENDBRANCH  14  16
ENDBRANCH  11  14
TORSDOF 2
ENDMDL
