MODEL 1
REMARK VINA RESULT:      -7.6      0.000      0.000
REMARK  7 active torsions:
REMARK  status: ('A' for Active; 'I' for Inactive)
REMARK    1  A    between atoms: C2_2  and  C3_3 
REMARK    2  A    between atoms: C5_5  and  N1_6 
REMARK    3  A    between atoms: N1_6  and  C6_7 
REMARK    4  A    between atoms: C6_7  and  C7_8 
REMARK    5  A    between atoms: C8_9  and  C9_10 
REMARK    6  A    between atoms: C11_13  and  O1_14 
REMARK    7  A    between atoms: O1_14  and  C12_15 
ROOT
HETATM    1  C3  UNL     1      21.614  -0.668  53.115  1.00  0.00     0.077 A 
HETATM    2  C4  UNL     1      22.886   0.028  52.887  1.00  0.00     0.019 A 
HETATM    3  C5  UNL     1      23.887   0.900  52.632  1.00  0.00     0.055 A 
HETATM    4  C11 UNL     1      23.690   2.351  52.315  1.00  0.00     0.079 A 
HETATM    5  C14 UNL     1      22.370   2.378  52.383  1.00  0.00     0.122 A 
HETATM    6  C15 UNL     1      21.373   3.421  52.204  1.00  0.00     0.203 A 
HETATM    7  N3  UNL     1      20.185   2.876  52.396  1.00  0.00    -0.318 NA
HETATM    8  C16 UNL     1      20.271   1.479  52.708  1.00  0.00     0.068 A 
HETATM    9  C17 UNL     1      20.419   0.206  52.988  1.00  0.00     0.043 A 
HETATM   10  C18 UNL     1      19.191  -0.547  53.233  1.00  0.00     0.097 C 
HETATM   11  N4  UNL     1      18.186  -1.139  53.429  1.00  0.00    -0.192 NA
ENDROOT
BRANCH   1  12
HETATM   12  C2  UNL     1      21.507  -1.249  54.505  1.00  0.00    -0.023 C 
HETATM   13  C1  UNL     1      22.575  -1.438  55.304  1.00  0.00     0.008 C 
ENDBRANCH   1  12
BRANCH   3  14
HETATM   14  N1  UNL     1      25.270   0.518  52.644  1.00  0.00    -0.385 N 
HETATM   15  H6  UNL     1      25.602   1.027  51.777  1.00  0.00     0.160 HD
BRANCH  14  16
HETATM   16  C6  UNL     1      26.032  -0.311  53.544  1.00  0.00     0.147 C 
BRANCH  16  17
HETATM   17  C7  UNL     1      27.218  -0.796  52.790  1.00  0.00    -0.006 C 
HETATM   18  C8  UNL     1      28.435  -0.572  53.255  1.00  0.00     0.016 C 
BRANCH  18  19
HETATM   19  C9  UNL     1      28.688   0.140  54.489  1.00  0.00     0.109 C 
HETATM   20  N2  UNL     1      28.824   1.400  54.727  1.00  0.00    -0.306 NA
HETATM   21  C10 UNL     1      28.739   2.409  53.691  1.00  0.00     0.177 C 
ENDBRANCH  18  19
ENDBRANCH  16  17
ENDBRANCH  14  16
ENDBRANCH   3  14
BRANCH   4  22
HETATM   22  O1  UNL     1      24.893   3.022  52.094  1.00  0.00    -0.353 OA
BRANCH  22  23
HETATM   23  C12 UNL     1      25.207   3.688  50.899  1.00  0.00     0.171 C 
HETATM   24  C13 UNL     1      26.443   3.121  50.233  1.00  0.00     0.034 C 
ENDBRANCH  22  23
ENDBRANCH   4  22
TORSDOF 7
ENDMDL
MODEL 2
REMARK VINA RESULT:      -7.4      2.821      5.889
REMARK  7 active torsions:
REMARK  status: ('A' for Active; 'I' for Inactive)
REMARK    1  A    between atoms: C2_2  and  C3_3 
REMARK    2  A    between atoms: C5_5  and  N1_6 
REMARK    3  A    between atoms: N1_6  and  C6_7 
REMARK    4  A    between atoms: C6_7  and  C7_8 
REMARK    5  A    between atoms: C8_9  and  C9_10 
REMARK    6  A    between atoms: C11_13  and  O1_14 
REMARK    7  A    between atoms: O1_14  and  C12_15 
ROOT
HETATM    1  C3  UNL     1      26.799   0.773  52.049  1.00  0.00     0.077 A 
HETATM    2  C4  UNL     1      25.983   1.974  51.835  1.00  0.00     0.019 A 
HETATM    3  C5  UNL     1      25.021   2.921  51.759  1.00  0.00     0.055 A 
HETATM    4  C11 UNL     1      23.616   2.745  52.247  1.00  0.00     0.079 A 
HETATM    5  C14 UNL     1      23.726   1.504  52.688  1.00  0.00     0.122 A 
HETATM    6  C15 UNL     1      22.805   0.573  53.320  1.00  0.00     0.203 A 
HETATM    7  N3  UNL     1      23.465  -0.547  53.554  1.00  0.00    -0.318 NA
HETATM    8  C16 UNL     1      24.829  -0.475  53.119  1.00  0.00     0.068 A 
HETATM    9  C17 UNL     1      26.066  -0.344  52.700  1.00  0.00     0.043 A 
HETATM   10  C18 UNL     1      26.936  -1.503  52.888  1.00  0.00     0.097 C 
HETATM   11  N4  UNL     1      27.625  -2.450  53.051  1.00  0.00    -0.192 NA
ENDROOT
BRANCH   1  12
HETATM   12  C2  UNL     1      27.981   1.023  52.956  1.00  0.00    -0.023 C 
HETATM   13  C1  UNL     1      28.287   2.243  53.440  1.00  0.00     0.008 C 
ENDBRANCH   1  12
BRANCH   3  14
HETATM   14  N1  UNL     1      25.255   4.220  51.196  1.00  0.00    -0.385 N 
HETATM   15  H6  UNL     1      25.266   4.798  52.083  1.00  0.00     0.160 HD
BRANCH  14  16
HETATM   16  C6  UNL     1      25.429   4.663  49.835  1.00  0.00     0.147 C 
BRANCH  16  17
HETATM   17  C7  UNL     1      26.697   4.064  49.342  1.00  0.00    -0.006 C 
HETATM   18  C8  UNL     1      27.566   4.807  48.678  1.00  0.00     0.016 C 
BRANCH  18  19
HETATM   19  C9  UNL     1      27.348   6.209  48.396  1.00  0.00     0.109 C 
HETATM   20  N2  UNL     1      28.180   7.184  48.256  1.00  0.00    -0.306 NA
HETATM   21  C10 UNL     1      29.615   7.015  48.371  1.00  0.00     0.177 C 
ENDBRANCH  18  19
ENDBRANCH  16  17
ENDBRANCH  14  16
ENDBRANCH   3  14
BRANCH   4  22
HETATM   22  O1  UNL     1      22.830   3.881  52.046  1.00  0.00    -0.353 OA
BRANCH  22  23
HETATM   23  C12 UNL     1      21.598   3.868  51.373  1.00  0.00     0.171 C 
HETATM   24  C13 UNL     1      20.475   3.347  52.245  1.00  0.00     0.034 C 
ENDBRANCH  22  23
ENDBRANCH   4  22
TORSDOF 7
ENDMDL
MODEL 3
REMARK VINA RESULT:      -7.3      2.552      4.932
REMARK  7 active torsions:
REMARK  status: ('A' for Active; 'I' for Inactive)
REMARK    1  A    between atoms: C2_2  and  C3_3 
REMARK    2  A    between atoms: C5_5  and  N1_6 
REMARK    3  A    between atoms: N1_6  and  C6_7 
REMARK    4  A    between atoms: C6_7  and  C7_8 
REMARK    5  A    between atoms: C8_9  and  C9_10 
REMARK    6  A    between atoms: C11_13  and  O1_14 
REMARK    7  A    between atoms: O1_14  and  C12_15 
ROOT
HETATM    1  C3  UNL     1      22.707   0.787  53.023  1.00  0.00     0.077 A 
HETATM    2  C4  UNL     1      23.893   1.574  52.666  1.00  0.00     0.019 A 
HETATM    3  C5  UNL     1      25.123   2.114  52.516  1.00  0.00     0.055 A 
HETATM    4  C11 UNL     1      26.360   1.613  53.194  1.00  0.00     0.079 A 
HETATM    5  C14 UNL     1      25.813   0.614  53.864  1.00  0.00     0.122 A 
HETATM    6  C15 UNL     1      26.331  -0.390  54.779  1.00  0.00     0.203 A 
HETATM    7  N3  UNL     1      25.319  -1.152  55.153  1.00  0.00    -0.318 NA
HETATM    8  C16 UNL     1      24.083  -0.748  54.550  1.00  0.00     0.068 A 
HETATM    9  C17 UNL     1      22.985  -0.327  53.967  1.00  0.00     0.043 A 
HETATM   10  C18 UNL     1      21.766  -1.070  54.274  1.00  0.00     0.097 C 
HETATM   11  N4  UNL     1      20.790  -1.685  54.535  1.00  0.00    -0.192 NA
ENDROOT
BRANCH   1  12
HETATM   12  C2  UNL     1      22.069   0.116  51.830  1.00  0.00    -0.023 C 
HETATM   13  C1  UNL     1      21.223   0.753  50.996  1.00  0.00     0.008 C 
ENDBRANCH   1  12
BRANCH   3  14
HETATM   14  N1  UNL     1      25.374   3.246  51.669  1.00  0.00    -0.385 N 
HETATM   15  H6  UNL     1      25.755   3.924  52.388  1.00  0.00     0.160 HD
BRANCH  14  16
HETATM   16  C6  UNL     1      25.181   3.452  50.255  1.00  0.00     0.147 C 
BRANCH  16  17
HETATM   17  C7  UNL     1      26.509   3.287  49.607  1.00  0.00    -0.006 C 
HETATM   18  C8  UNL     1      27.092   4.317  49.018  1.00  0.00     0.016 C 
BRANCH  18  19
HETATM   19  C9  UNL     1      26.495   5.634  48.968  1.00  0.00     0.109 C 
HETATM   20  N2  UNL     1      26.969   6.763  48.564  1.00  0.00    -0.306 NA
HETATM   21  C10 UNL     1      28.313   6.910  48.043  1.00  0.00     0.177 C 
ENDBRANCH  18  19
ENDBRANCH  16  17
ENDBRANCH  14  16
ENDBRANCH   3  14
BRANCH   4  22
HETATM   22  O1  UNL     1      27.495   2.356  52.863  1.00  0.00    -0.353 OA
BRANCH  22  23
HETATM   23  C12 UNL     1      28.653   2.407  53.655  1.00  0.00     0.171 C 
HETATM   24  C13 UNL     1      29.414   1.098  53.643  1.00  0.00     0.034 C 
ENDBRANCH  22  23
ENDBRANCH   4  22
TORSDOF 7
ENDMDL
MODEL 4
REMARK VINA RESULT:      -7.2      1.681      4.425
REMARK  7 active torsions:
REMARK  status: ('A' for Active; 'I' for Inactive)
REMARK    1  A    between atoms: C2_2  and  C3_3 
REMARK    2  A    between atoms: C5_5  and  N1_6 
REMARK    3  A    between atoms: N1_6  and  C6_7 
REMARK    4  A    between atoms: C6_7  and  C7_8 
REMARK    5  A    between atoms: C8_9  and  C9_10 
REMARK    6  A    between atoms: C11_13  and  O1_14 
REMARK    7  A    between atoms: O1_14  and  C12_15 
ROOT
HETATM    1  C3  UNL     1      23.661   3.821  51.739  1.00  0.00     0.077 A 
HETATM    2  C4  UNL     1      23.849   2.411  52.103  1.00  0.00     0.019 A 
HETATM    3  C5  UNL     1      23.734   1.119  52.482  1.00  0.00     0.055 A 
HETATM    4  C11 UNL     1      22.445   0.455  52.858  1.00  0.00     0.079 A 
HETATM    5  C14 UNL     1      21.645   1.493  52.686  1.00  0.00     0.122 A 
HETATM    6  C15 UNL     1      20.214   1.698  52.840  1.00  0.00     0.203 A 
HETATM    7  N3  UNL     1      19.953   2.954  52.526  1.00  0.00    -0.318 NA
HETATM    8  C16 UNL     1      21.134   3.676  52.149  1.00  0.00     0.068 A 
HETATM    9  C17 UNL     1      22.250   4.279  51.816  1.00  0.00     0.043 A 
HETATM   10  C18 UNL     1      22.135   5.685  51.435  1.00  0.00     0.097 C 
HETATM   11  N4  UNL     1      22.021   6.822  51.128  1.00  0.00    -0.192 NA
ENDROOT
BRANCH   1  12
HETATM   12  C2  UNL     1      24.074   4.117  50.316  1.00  0.00    -0.023 C 
HETATM   13  C1  UNL     1      23.966   3.216  49.319  1.00  0.00     0.008 C 
ENDBRANCH   1  12
BRANCH   3  14
HETATM   14  N1  UNL     1      24.859   0.231  52.560  1.00  0.00    -0.385 N 
HETATM   15  H6  UNL     1      24.804  -0.210  51.599  1.00  0.00     0.160 HD
BRANCH  14  16
HETATM   16  C6  UNL     1      25.813  -0.025  53.610  1.00  0.00     0.147 C 
BRANCH  16  17
HETATM   17  C7  UNL     1      26.973  -0.714  52.985  1.00  0.00    -0.006 C 
HETATM   18  C8  UNL     1      28.181  -0.581  53.506  1.00  0.00     0.016 C 
BRANCH  18  19
HETATM   19  C9  UNL     1      28.447   0.218  54.682  1.00  0.00     0.109 C 
HETATM   20  N2  UNL     1      28.721   1.471  54.810  1.00  0.00    -0.306 NA
HETATM   21  C10 UNL     1      28.819   2.374  53.680  1.00  0.00     0.177 C 
ENDBRANCH  18  19
ENDBRANCH  16  17
ENDBRANCH  14  16
ENDBRANCH   3  14
BRANCH   4  22
HETATM   22  O1  UNL     1      22.612  -0.886  53.209  1.00  0.00    -0.353 OA
BRANCH  22  23
HETATM   23  C12 UNL     1      22.065  -1.464  54.365  1.00  0.00     0.171 C 
HETATM   24  C13 UNL     1      23.042  -1.466  55.522  1.00  0.00     0.034 C 
ENDBRANCH  22  23
ENDBRANCH   4  22
TORSDOF 7
ENDMDL
MODEL 5
REMARK VINA RESULT:      -7.1      2.430      5.937
REMARK  7 active torsions:
REMARK  status: ('A' for Active; 'I' for Inactive)
REMARK    1  A    between atoms: C2_2  and  C3_3 
REMARK    2  A    between atoms: C5_5  and  N1_6 
REMARK    3  A    between atoms: N1_6  and  C6_7 
REMARK    4  A    between atoms: C6_7  and  C7_8 
REMARK    5  A    between atoms: C8_9  and  C9_10 
REMARK    6  A    between atoms: C11_13  and  O1_14 
REMARK    7  A    between atoms: O1_14  and  C12_15 
ROOT
HETATM    1  C3  UNL     1      24.208   0.737  52.600  1.00  0.00     0.077 A 
HETATM    2  C4  UNL     1      22.843   1.011  52.133  1.00  0.00     0.019 A 
HETATM    3  C5  UNL     1      21.511   1.072  51.912  1.00  0.00     0.055 A 
HETATM    4  C11 UNL     1      20.484   0.301  52.683  1.00  0.00     0.079 A 
HETATM    5  C14 UNL     1      21.305  -0.332  53.503  1.00  0.00     0.122 A 
HETATM    6  C15 UNL     1      21.114  -1.289  54.581  1.00  0.00     0.203 A 
HETATM    7  N3  UNL     1      22.304  -1.591  55.065  1.00  0.00    -0.318 NA
HETATM    8  C16 UNL     1      23.359  -0.896  54.386  1.00  0.00     0.068 A 
HETATM    9  C17 UNL     1      24.277  -0.231  53.725  1.00  0.00     0.043 A 
HETATM   10  C18 UNL     1      25.660  -0.451  54.142  1.00  0.00     0.097 C 
HETATM   11  N4  UNL     1      26.772  -0.642  54.495  1.00  0.00    -0.192 NA
ENDROOT
BRANCH   1  12
HETATM   12  C2  UNL     1      24.905   1.971  53.124  1.00  0.00    -0.023 C 
HETATM   13  C1  UNL     1      24.293   3.167  53.234  1.00  0.00     0.008 C 
ENDBRANCH   1  12
BRANCH   3  14
HETATM   14  N1  UNL     1      20.932   1.905  50.896  1.00  0.00    -0.385 N 
HETATM   15  H6  UNL     1      19.977   1.454  50.820  1.00  0.00     0.160 HD
BRANCH  14  16
HETATM   16  C6  UNL     1      21.453   3.031  50.162  1.00  0.00     0.147 C 
BRANCH  16  17
HETATM   17  C7  UNL     1      22.286   2.485  49.059  1.00  0.00    -0.006 C 
HETATM   18  C8  UNL     1      23.493   2.976  48.835  1.00  0.00     0.016 C 
BRANCH  18  19
HETATM   19  C9  UNL     1      24.066   4.044  49.624  1.00  0.00     0.109 C 
HETATM   20  N2  UNL     1      25.276   4.252  50.017  1.00  0.00    -0.306 NA
HETATM   21  C10 UNL     1      26.370   3.356  49.699  1.00  0.00     0.177 C 
ENDBRANCH  18  19
ENDBRANCH  16  17
ENDBRANCH  14  16
ENDBRANCH   3  14
BRANCH   4  22
HETATM   22  O1  UNL     1      19.182   0.552  52.246  1.00  0.00    -0.353 OA
BRANCH  22  23
HETATM   23  C12 UNL     1      18.281  -0.453  51.861  1.00  0.00     0.171 C 
HETATM   24  C13 UNL     1      17.679  -1.170  53.051  1.00  0.00     0.034 C 
ENDBRANCH  22  23
ENDBRANCH   4  22
TORSDOF 7
ENDMDL
MODEL 6
REMARK VINA RESULT:      -6.9      2.505      6.363
REMARK  7 active torsions:
REMARK  status: ('A' for Active; 'I' for Inactive)
REMARK    1  A    between atoms: C2_2  and  C3_3 
REMARK    2  A    between atoms: C5_5  and  N1_6 
REMARK    3  A    between atoms: N1_6  and  C6_7 
REMARK    4  A    between atoms: C6_7  and  C7_8 
REMARK    5  A    between atoms: C8_9  and  C9_10 
REMARK    6  A    between atoms: C11_13  and  O1_14 
REMARK    7  A    between atoms: O1_14  and  C12_15 
ROOT
HETATM    1  C3  UNL     1      26.725   0.777  52.110  1.00  0.00     0.077 A 
HETATM    2  C4  UNL     1      25.871   1.961  51.950  1.00  0.00     0.019 A 
HETATM    3  C5  UNL     1      24.881   2.880  51.922  1.00  0.00     0.055 A 
HETATM    4  C11 UNL     1      23.489   2.646  52.424  1.00  0.00     0.079 A 
HETATM    5  C14 UNL     1      23.643   1.395  52.821  1.00  0.00     0.122 A 
HETATM    6  C15 UNL     1      22.761   0.415  53.434  1.00  0.00     0.203 A 
HETATM    7  N3  UNL     1      23.456  -0.692  53.619  1.00  0.00    -0.318 NA
HETATM    8  C16 UNL     1      24.811  -0.564  53.166  1.00  0.00     0.068 A 
HETATM    9  C17 UNL     1      26.036  -0.382  52.732  1.00  0.00     0.043 A 
HETATM   10  C18 UNL     1      26.943  -1.520  52.868  1.00  0.00     0.097 C 
HETATM   11  N4  UNL     1      27.662  -2.451  52.987  1.00  0.00    -0.192 NA
ENDROOT
BRANCH   1  12
HETATM   12  C2  UNL     1      27.914   1.032  53.007  1.00  0.00    -0.023 C 
HETATM   13  C1  UNL     1      28.281   2.266  53.405  1.00  0.00     0.008 C 
ENDBRANCH   1  12
BRANCH   3  14
HETATM   14  N1  UNL     1      25.067   4.204  51.401  1.00  0.00    -0.385 N 
HETATM   15  H6  UNL     1      24.892   4.767  52.280  1.00  0.00     0.160 HD
BRANCH  14  16
HETATM   16  C6  UNL     1      25.395   4.682  50.081  1.00  0.00     0.147 C 
BRANCH  16  17
HETATM   17  C7  UNL     1      24.359   4.152  49.156  1.00  0.00    -0.006 C 
HETATM   18  C8  UNL     1      23.500   4.977  48.581  1.00  0.00     0.016 C 
BRANCH  18  19
HETATM   19  C9  UNL     1      23.510   6.405  48.807  1.00  0.00     0.109 C 
HETATM   20  N2  UNL     1      22.564   7.217  49.136  1.00  0.00    -0.306 NA
HETATM   21  C10 UNL     1      21.198   6.785  49.354  1.00  0.00     0.177 C 
ENDBRANCH  18  19
ENDBRANCH  16  17
ENDBRANCH  14  16
ENDBRANCH   3  14
BRANCH   4  22
HETATM   22  O1  UNL     1      22.667   3.764  52.275  1.00  0.00    -0.353 OA
BRANCH  22  23
HETATM   23  C12 UNL     1      21.468   3.759  51.546  1.00  0.00     0.171 C 
HETATM   24  C13 UNL     1      20.333   3.115  52.313  1.00  0.00     0.034 C 
ENDBRANCH  22  23
ENDBRANCH   4  22
TORSDOF 7
ENDMDL
MODEL 7
REMARK VINA RESULT:      -6.8      1.938      6.664
REMARK  7 active torsions:
REMARK  status: ('A' for Active; 'I' for Inactive)
REMARK    1  A    between atoms: C2_2  and  C3_3 
REMARK    2  A    between atoms: C5_5  and  N1_6 
REMARK    3  A    between atoms: N1_6  and  C6_7 
REMARK    4  A    between atoms: C6_7  and  C7_8 
REMARK    5  A    between atoms: C8_9  and  C9_10 
REMARK    6  A    between atoms: C11_13  and  O1_14 
REMARK    7  A    between atoms: O1_14  and  C12_15 
ROOT
HETATM    1  C3  UNL     1      25.971   0.700  53.672  1.00  0.00     0.077 A 
HETATM    2  C4  UNL     1      24.642   0.899  53.082  1.00  0.00     0.019 A 
HETATM    3  C5  UNL     1      23.561   1.257  52.353  1.00  0.00     0.055 A 
HETATM    4  C11 UNL     1      23.598   2.180  51.174  1.00  0.00     0.079 A 
HETATM    5  C14 UNL     1      24.896   2.430  51.175  1.00  0.00     0.122 A 
HETATM    6  C15 UNL     1      25.767   3.245  50.343  1.00  0.00     0.203 A 
HETATM    7  N3  UNL     1      26.997   3.120  50.807  1.00  0.00    -0.318 NA
HETATM    8  C16 UNL     1      27.063   2.249  51.944  1.00  0.00     0.068 A 
HETATM    9  C17 UNL     1      27.055   1.443  52.979  1.00  0.00     0.043 A 
HETATM   10  C18 UNL     1      28.348   1.194  53.613  1.00  0.00     0.097 C 
HETATM   11  N4  UNL     1      29.404   1.005  54.111  1.00  0.00    -0.192 NA
ENDROOT
BRANCH   1  12
HETATM   12  C2  UNL     1      26.419  -0.743  53.629  1.00  0.00    -0.023 C 
HETATM   13  C1  UNL     1      26.418  -1.477  52.499  1.00  0.00     0.008 C 
ENDBRANCH   1  12
BRANCH   3  14
HETATM   14  N1  UNL     1      22.240   0.775  52.639  1.00  0.00    -0.385 N 
HETATM   15  H6  UNL     1      21.910   0.568  51.654  1.00  0.00     0.160 HD
BRANCH  14  16
HETATM   16  C6  UNL     1      21.524   0.604  53.879  1.00  0.00     0.147 C 
BRANCH  16  17
HETATM   17  C7  UNL     1      21.502  -0.853  54.171  1.00  0.00    -0.006 C 
HETATM   18  C8  UNL     1      20.404  -1.556  53.952  1.00  0.00     0.016 C 
BRANCH  18  19
HETATM   19  C9  UNL     1      19.188  -0.973  53.428  1.00  0.00     0.109 C 
HETATM   20  N2  UNL     1      18.005  -1.465  53.289  1.00  0.00    -0.306 NA
HETATM   21  C10 UNL     1      17.668  -2.821  53.671  1.00  0.00     0.177 C 
ENDBRANCH  18  19
ENDBRANCH  16  17
ENDBRANCH  14  16
ENDBRANCH   3  14
BRANCH   4  22
HETATM   22  O1  UNL     1      22.339   2.379  50.606  1.00  0.00    -0.353 OA
BRANCH  22  23
HETATM   23  C12 UNL     1      22.074   2.254  49.233  1.00  0.00     0.171 C 
HETATM   24  C13 UNL     1      21.406   0.938  48.896  1.00  0.00     0.034 C 
ENDBRANCH  22  23
ENDBRANCH   4  22
TORSDOF 7
ENDMDL
MODEL 8
REMARK VINA RESULT:      -6.8      2.402      5.805
REMARK  7 active torsions:
REMARK  status: ('A' for Active; 'I' for Inactive)
REMARK    1  A    between atoms: C2_2  and  C3_3 
REMARK    2  A    between atoms: C5_5  and  N1_6 
REMARK    3  A    between atoms: N1_6  and  C6_7 
REMARK    4  A    between atoms: C6_7  and  C7_8 
REMARK    5  A    between atoms: C8_9  and  C9_10 
REMARK    6  A    between atoms: C11_13  and  O1_14 
REMARK    7  A    between atoms: O1_14  and  C12_15 
ROOT
HETATM    1  C3  UNL     1      25.217   1.040  53.253  1.00  0.00     0.077 A 
HETATM    2  C4  UNL     1      23.980   0.872  52.482  1.00  0.00     0.019 A 
HETATM    3  C5  UNL     1      22.953   0.927  51.604  1.00  0.00     0.055 A 
HETATM    4  C11 UNL     1      22.892   1.846  50.423  1.00  0.00     0.079 A 
HETATM    5  C14 UNL     1      24.056   2.449  50.598  1.00  0.00     0.122 A 
HETATM    6  C15 UNL     1      24.770   3.490  49.877  1.00  0.00     0.203 A 
HETATM    7  N3  UNL     1      25.909   3.706  50.508  1.00  0.00    -0.318 NA
HETATM    8  C16 UNL     1      26.059   2.866  51.660  1.00  0.00     0.068 A 
HETATM    9  C17 UNL     1      26.135   2.070  52.701  1.00  0.00     0.043 A 
HETATM   10  C18 UNL     1      27.346   2.181  53.511  1.00  0.00     0.097 C 
HETATM   11  N4  UNL     1      28.333   2.285  54.153  1.00  0.00    -0.192 NA
ENDROOT
BRANCH   1  12
HETATM   12  C2  UNL     1      26.052  -0.218  53.301  1.00  0.00    -0.023 C 
HETATM   13  C1  UNL     1      26.418  -0.897  52.196  1.00  0.00     0.008 C 
ENDBRANCH   1  12
BRANCH   3  14
HETATM   14  N1  UNL     1      21.793   0.089  51.715  1.00  0.00    -0.385 N 
HETATM   15  H6  UNL     1      22.158  -0.783  51.238  1.00  0.00     0.160 HD
BRANCH  14  16
HETATM   16  C6  UNL     1      20.492   0.316  52.294  1.00  0.00     0.147 C 
BRANCH  16  17
HETATM   17  C7  UNL     1      20.710   0.978  53.607  1.00  0.00    -0.006 C 
HETATM   18  C8  UNL     1      21.009   0.254  54.672  1.00  0.00     0.016 C 
BRANCH  18  19
HETATM   19  C9  UNL     1      21.141  -1.186  54.633  1.00  0.00     0.109 C 
HETATM   20  N2  UNL     1      22.105  -1.958  55.002  1.00  0.00    -0.306 NA
HETATM   21  C10 UNL     1      23.338  -1.457  55.574  1.00  0.00     0.177 C 
ENDBRANCH  18  19
ENDBRANCH  16  17
ENDBRANCH  14  16
ENDBRANCH   3  14
BRANCH   4  22
HETATM   22  O1  UNL     1      21.718   1.696  49.683  1.00  0.00    -0.353 OA
BRANCH  22  23
HETATM   23  C12 UNL     1      21.692   1.355  48.322  1.00  0.00     0.171 C 
HETATM   24  C13 UNL     1      22.241   2.460  47.444  1.00  0.00     0.034 C 
ENDBRANCH  22  23
ENDBRANCH   4  22
TORSDOF 7
ENDMDL
MODEL 9
REMARK VINA RESULT:      -6.8      1.901      4.771
REMARK  7 active torsions:
REMARK  status: ('A' for Active; 'I' for Inactive)
REMARK    1  A    between atoms: C2_2  and  C3_3 
REMARK    2  A    between atoms: C5_5  and  N1_6 
REMARK    3  A    between atoms: N1_6  and  C6_7 
REMARK    4  A    between atoms: C6_7  and  C7_8 
REMARK    5  A    between atoms: C8_9  and  C9_10 
REMARK    6  A    between atoms: C11_13  and  O1_14 
REMARK    7  A    between atoms: O1_14  and  C12_15 
ROOT
HETATM    1  C3  UNL     1      23.567   4.874  51.916  1.00  0.00     0.077 A 
HETATM    2  C4  UNL     1      23.958   3.549  52.413  1.00  0.00     0.019 A 
HETATM    3  C5  UNL     1      24.033   2.272  52.849  1.00  0.00     0.055 A 
HETATM    4  C11 UNL     1      22.861   1.349  52.983  1.00  0.00     0.079 A 
HETATM    5  C14 UNL     1      21.921   2.181  52.567  1.00  0.00     0.122 A 
HETATM    6  C15 UNL     1      20.482   2.070  52.391  1.00  0.00     0.203 A 
HETATM    7  N3  UNL     1      20.043   3.230  51.939  1.00  0.00    -0.318 NA
HETATM    8  C16 UNL     1      21.100   4.186  51.776  1.00  0.00     0.068 A 
HETATM    9  C17 UNL     1      22.111   5.012  51.651  1.00  0.00     0.043 A 
HETATM   10  C18 UNL     1      21.794   6.349  51.154  1.00  0.00     0.097 C 
HETATM   11  N4  UNL     1      21.518   7.425  50.750  1.00  0.00    -0.192 NA
ENDROOT
BRANCH   1  12
HETATM   12  C2  UNL     1      24.222   5.221  50.599  1.00  0.00    -0.023 C 
HETATM   13  C1  UNL     1      24.614   4.290  49.708  1.00  0.00     0.008 C 
ENDBRANCH   1  12
BRANCH   3  14
HETATM   14  N1  UNL     1      25.271   1.656  53.233  1.00  0.00    -0.385 N 
HETATM   15  H6  UNL     1      25.151   1.658  54.285  1.00  0.00     0.160 HD
BRANCH  14  16
HETATM   16  C6  UNL     1      26.383   1.163  52.459  1.00  0.00     0.147 C 
BRANCH  16  17
HETATM   17  C7  UNL     1      27.533   2.066  52.726  1.00  0.00    -0.006 C 
HETATM   18  C8  UNL     1      28.389   1.780  53.691  1.00  0.00     0.016 C 
BRANCH  18  19
HETATM   19  C9  UNL     1      28.268   0.606  54.527  1.00  0.00     0.109 C 
HETATM   20  N2  UNL     1      28.902  -0.517  54.507  1.00  0.00    -0.306 NA
HETATM   21  C10 UNL     1      29.944  -0.814  53.544  1.00  0.00     0.177 C 
ENDBRANCH  18  19
ENDBRANCH  16  17
ENDBRANCH  14  16
ENDBRANCH   3  14
BRANCH   4  22
HETATM   22  O1  UNL     1      23.220   0.087  53.457  1.00  0.00    -0.353 OA
BRANCH  22  23
HETATM   23  C12 UNL     1      22.389  -1.042  53.378  1.00  0.00     0.171 C 
HETATM   24  C13 UNL     1      21.453  -1.148  54.564  1.00  0.00     0.034 C 
ENDBRANCH  22  23
ENDBRANCH   4  22
TORSDOF 7
ENDMDL
