MODEL 1
REMARK VINA RESULT:      -7.4      0.000      0.000
REMARK  10 active torsions:
REMARK  status: ('A' for Active; 'I' for Inactive)
REMARK    1  A    between atoms: S1_2  and  C2_3 
REMARK    2  A    between atoms: C2_3  and  C3_4 
REMARK    3  A    between atoms: C3_4  and  C4_5 
REMARK    4  A    between atoms: C3_4  and  C6_9 
REMARK    5  A    between atoms: C4_5  and  N1_6 
REMARK    6  A    between atoms: N1_6  and  N2_8 
REMARK    7  A    between atoms: C6_9  and  C7_11 
REMARK    8  A    between atoms: C10_14  and  O2_15 
REMARK    9  A    between atoms: O2_15  and  C11_16 
REMARK   10  A    between atoms: C11_16  and  C12_17 
ROOT
HETATM    1  C7  UNL     1      23.850  -0.339  53.774  1.00  0.00     0.047 A 
HETATM    2  C8  UNL     1      22.930  -1.118  54.372  1.00  0.00     0.025 A 
HETATM    3  C9  UNL     1      21.480  -1.031  54.265  1.00  0.00     0.034 A 
HETATM    4  C10 UNL     1      20.995  -0.081  53.494  1.00  0.00     0.056 A 
HETATM    5  C18 UNL     1      21.534   0.991  52.653  1.00  0.00     0.144 A 
HETATM    6  S2  UNL     1      23.337   1.014  52.687  1.00  0.00    -0.120 SA
ENDROOT
BRANCH   1   7
HETATM    7  C6  UNL     1      25.284  -0.563  53.991  1.00  0.00     0.172 C 
HETATM    8  O1  UNL     1      25.490  -1.177  55.110  1.00  0.00    -0.291 OA
BRANCH   7   9
HETATM    9  C3  UNL     1      26.540  -0.304  53.329  1.00  0.00     0.085 C 
BRANCH   9  10
HETATM   10  C2  UNL     1      27.448   0.511  54.235  1.00  0.00     0.087 C 
BRANCH  10  11
HETATM   11  S1  UNL     1      27.654   2.136  53.511  1.00  0.00    -0.173 SA
HETATM   12  C1  UNL     1      26.953   2.236  51.840  1.00  0.00     0.089 C 
ENDBRANCH  10  11
ENDBRANCH   9  10
BRANCH   9  13
HETATM   13  C4  UNL     1      27.244  -1.527  52.807  1.00  0.00     0.120 C 
BRANCH  13  14
HETATM   14  N1  UNL     1      28.390  -1.964  53.526  1.00  0.00    -0.258 NA
HETATM   15  C5  UNL     1      29.623  -1.310  53.220  1.00  0.00     0.130 C 
BRANCH  14  16
HETATM   16  N2  UNL     1      28.525  -3.348  53.326  1.00  0.00    -0.269 NA
HETATM   17  H12 UNL     1      29.373  -3.554  52.782  1.00  0.00     0.137 HD
HETATM   18  H13 UNL     1      27.676  -3.743  52.844  1.00  0.00     0.137 HD
ENDBRANCH  14  16
ENDBRANCH  13  14
ENDBRANCH   9  13
ENDBRANCH   7   9
ENDBRANCH   1   7
BRANCH   4  19
HETATM   19  O2  UNL     1      19.620   0.019  53.379  1.00  0.00    -0.350 OA
BRANCH  19  20
HETATM   20  C11 UNL     1      18.706  -1.030  53.395  1.00  0.00     0.214 C 
BRANCH  20  21
HETATM   21  C12 UNL     1      17.807  -0.809  52.210  1.00  0.00    -0.034 A 
HETATM   22  C13 UNL     1      18.176  -0.085  51.089  1.00  0.00     0.009 A 
HETATM   23  C14 UNL     1      17.261   0.056  50.050  1.00  0.00     0.001 A 
HETATM   24  C15 UNL     1      16.018  -0.531  50.175  1.00  0.00     0.000 A 
HETATM   25  C16 UNL     1      15.612  -1.263  51.280  1.00  0.00     0.001 A 
HETATM   26  C17 UNL     1      16.537  -1.387  52.295  1.00  0.00     0.009 A 
ENDBRANCH  20  21
ENDBRANCH  19  20
ENDBRANCH   4  19
TORSDOF 10
ENDMDL
MODEL 2
REMARK VINA RESULT:      -7.3      4.192      8.109
REMARK  10 active torsions:
REMARK  status: ('A' for Active; 'I' for Inactive)
REMARK    1  A    between atoms: S1_2  and  C2_3 
REMARK    2  A    between atoms: C2_3  and  C3_4 
REMARK    3  A    between atoms: C3_4  and  C4_5 
REMARK    4  A    between atoms: C3_4  and  C6_9 
REMARK    5  A    between atoms: C4_5  and  N1_6 
REMARK    6  A    between atoms: N1_6  and  N2_8 
REMARK    7  A    between atoms: C6_9  and  C7_11 
REMARK    8  A    between atoms: C10_14  and  O2_15 
REMARK    9  A    between atoms: O2_15  and  C11_16 
REMARK   10  A    between atoms: C11_16  and  C12_17 
ROOT
HETATM    1  C7  UNL     1      25.959   2.064  52.313  1.00  0.00     0.047 A 
HETATM    2  C8  UNL     1      26.760   2.251  51.249  1.00  0.00     0.025 A 
HETATM    3  C9  UNL     1      26.566   3.172  50.137  1.00  0.00     0.034 A 
HETATM    4  C10 UNL     1      25.483   3.918  50.161  1.00  0.00     0.056 A 
HETATM    5  C18 UNL     1      24.332   4.100  51.050  1.00  0.00     0.144 A 
HETATM    6  S2  UNL     1      24.428   3.014  52.486  1.00  0.00    -0.120 SA
ENDROOT
BRANCH   1   7
HETATM    7  C6  UNL     1      26.303   1.087  53.354  1.00  0.00     0.172 C 
HETATM    8  O1  UNL     1      26.865   1.668  54.362  1.00  0.00    -0.291 OA
BRANCH   7   9
HETATM    9  C3  UNL     1      26.202  -0.333  53.592  1.00  0.00     0.085 C 
BRANCH   9  10
HETATM   10  C2  UNL     1      24.763  -0.790  53.421  1.00  0.00     0.087 C 
BRANCH  10  11
HETATM   11  S1  UNL     1      24.054  -1.037  55.047  1.00  0.00    -0.173 SA
HETATM   12  C1  UNL     1      22.245  -1.171  54.994  1.00  0.00     0.089 C 
ENDBRANCH  10  11
ENDBRANCH   9  10
BRANCH   9  13
HETATM   13  C4  UNL     1      27.144  -1.179  52.780  1.00  0.00     0.120 C 
BRANCH  13  14
HETATM   14  N1  UNL     1      28.187  -1.838  53.487  1.00  0.00    -0.258 NA
HETATM   15  C5  UNL     1      29.456  -1.182  53.510  1.00  0.00     0.130 C 
BRANCH  14  16
HETATM   16  N2  UNL     1      28.330  -3.127  52.946  1.00  0.00    -0.269 NA
HETATM   17  H12 UNL     1      29.324  -3.356  52.815  1.00  0.00     0.137 HD
HETATM   18  H13 UNL     1      27.812  -3.211  52.033  1.00  0.00     0.137 HD
ENDBRANCH  14  16
ENDBRANCH  13  14
ENDBRANCH   9  13
ENDBRANCH   7   9
ENDBRANCH   1   7
BRANCH   4  19
HETATM   19  O2  UNL     1      25.280   4.798  49.114  1.00  0.00    -0.350 OA
BRANCH  19  20
HETATM   20  C11 UNL     1      25.130   6.179  49.207  1.00  0.00     0.214 C 
BRANCH  20  21
HETATM   21  C12 UNL     1      26.210   6.768  48.341  1.00  0.00    -0.034 A 
HETATM   22  C13 UNL     1      25.991   7.771  47.413  1.00  0.00     0.009 A 
HETATM   23  C14 UNL     1      27.066   8.240  46.666  1.00  0.00     0.001 A 
HETATM   24  C15 UNL     1      28.314   7.688  46.876  1.00  0.00     0.000 A 
HETATM   25  C16 UNL     1      28.573   6.683  47.795  1.00  0.00     0.001 A 
HETATM   26  C17 UNL     1      27.490   6.237  48.522  1.00  0.00     0.009 A 
ENDBRANCH  20  21
ENDBRANCH  19  20
ENDBRANCH   4  19
TORSDOF 10
ENDMDL
MODEL 3
REMARK VINA RESULT:      -7.3      2.435      3.212
REMARK  10 active torsions:
REMARK  status: ('A' for Active; 'I' for Inactive)
REMARK    1  A    between atoms: S1_2  and  C2_3 
REMARK    2  A    between atoms: C2_3  and  C3_4 
REMARK    3  A    between atoms: C3_4  and  C4_5 
REMARK    4  A    between atoms: C3_4  and  C6_9 
REMARK    5  A    between atoms: C4_5  and  N1_6 
REMARK    6  A    between atoms: N1_6  and  N2_8 
REMARK    7  A    between atoms: C6_9  and  C7_11 
REMARK    8  A    between atoms: C10_14  and  O2_15 
REMARK    9  A    between atoms: O2_15  and  C11_16 
REMARK   10  A    between atoms: C11_16  and  C12_17 
ROOT
HETATM    1  C7  UNL     1      23.048   0.366  52.764  1.00  0.00     0.047 A 
HETATM    2  C8  UNL     1      22.739  -0.593  53.656  1.00  0.00     0.025 A 
HETATM    3  C9  UNL     1      21.421  -1.119  53.981  1.00  0.00     0.034 A 
HETATM    4  C10 UNL     1      20.397  -0.607  53.332  1.00  0.00     0.056 A 
HETATM    5  C18 UNL     1      20.189   0.415  52.302  1.00  0.00     0.144 A 
HETATM    6  S2  UNL     1      21.747   1.169  51.796  1.00  0.00    -0.120 SA
ENDROOT
BRANCH   1   7
HETATM    7  C6  UNL     1      24.440   0.784  52.557  1.00  0.00     0.172 C 
HETATM    8  O1  UNL     1      24.517   1.684  51.633  1.00  0.00    -0.291 OA
BRANCH   7   9
HETATM    9  C3  UNL     1      25.754   0.492  53.075  1.00  0.00     0.085 C 
BRANCH   9  10
HETATM   10  C2  UNL     1      26.540  -0.334  52.070  1.00  0.00     0.087 C 
BRANCH  10  11
HETATM   11  S1  UNL     1      27.294  -1.708  52.938  1.00  0.00    -0.173 SA
HETATM   12  C1  UNL     1      29.037  -1.396  53.333  1.00  0.00     0.089 C 
ENDBRANCH  10  11
ENDBRANCH   9  10
BRANCH   9  13
HETATM   13  C4  UNL     1      26.538   1.695  53.526  1.00  0.00     0.120 C 
BRANCH  13  14
HETATM   14  N1  UNL     1      27.712   2.008  52.787  1.00  0.00    -0.258 NA
HETATM   15  C5  UNL     1      28.817   2.523  53.534  1.00  0.00     0.130 C 
BRANCH  14  16
HETATM   16  N2  UNL     1      27.358   2.918  51.777  1.00  0.00    -0.269 NA
HETATM   17  H12 UNL     1      26.340   2.925  51.636  1.00  0.00     0.137 HD
HETATM   18  H13 UNL     1      27.851   2.689  50.874  1.00  0.00     0.137 HD
ENDBRANCH  14  16
ENDBRANCH  13  14
ENDBRANCH   9  13
ENDBRANCH   7   9
ENDBRANCH   1   7
BRANCH   4  19
HETATM   19  O2  UNL     1      19.136  -1.093  53.626  1.00  0.00    -0.350 OA
BRANCH  19  20
HETATM   20  C11 UNL     1      17.946  -0.754  52.988  1.00  0.00     0.214 C 
BRANCH  20  21
HETATM   21  C12 UNL     1      17.119  -2.011  52.968  1.00  0.00    -0.034 A 
HETATM   22  C13 UNL     1      15.892  -2.114  52.336  1.00  0.00     0.009 A 
HETATM   23  C14 UNL     1      15.214  -3.328  52.382  1.00  0.00     0.001 A 
HETATM   24  C15 UNL     1      15.788  -4.385  53.057  1.00  0.00     0.000 A 
HETATM   25  C16 UNL     1      17.014  -4.321  53.702  1.00  0.00     0.001 A 
HETATM   26  C17 UNL     1      17.665  -3.107  53.641  1.00  0.00     0.009 A 
ENDBRANCH  20  21
ENDBRANCH  19  20
ENDBRANCH   4  19
TORSDOF 10
ENDMDL
MODEL 4
REMARK VINA RESULT:      -7.1      6.258      9.175
REMARK  10 active torsions:
REMARK  status: ('A' for Active; 'I' for Inactive)
REMARK    1  A    between atoms: S1_2  and  C2_3 
REMARK    2  A    between atoms: C2_3  and  C3_4 
REMARK    3  A    between atoms: C3_4  and  C4_5 
REMARK    4  A    between atoms: C3_4  and  C6_9 
REMARK    5  A    between atoms: C4_5  and  N1_6 
REMARK    6  A    between atoms: N1_6  and  N2_8 
REMARK    7  A    between atoms: C6_9  and  C7_11 
REMARK    8  A    between atoms: C10_14  and  O2_15 
REMARK    9  A    between atoms: O2_15  and  C11_16 
REMARK   10  A    between atoms: C11_16  and  C12_17 
ROOT
HETATM    1  C7  UNL     1      27.465   6.094  48.565  1.00  0.00     0.047 A 
HETATM    2  C8  UNL     1      27.684   4.768  48.625  1.00  0.00     0.025 A 
HETATM    3  C9  UNL     1      26.870   3.758  49.286  1.00  0.00     0.034 A 
HETATM    4  C10 UNL     1      25.785   4.175  49.903  1.00  0.00     0.056 A 
HETATM    5  C18 UNL     1      25.115   5.458  50.132  1.00  0.00     0.144 A 
HETATM    6  S2  UNL     1      26.016   6.821  49.369  1.00  0.00    -0.120 SA
ENDROOT
BRANCH   1   7
HETATM    7  C6  UNL     1      28.393   6.981  47.852  1.00  0.00     0.172 C 
HETATM    8  O1  UNL     1      27.749   7.895  47.204  1.00  0.00    -0.291 OA
BRANCH   7   9
HETATM    9  C3  UNL     1      29.814   7.140  47.655  1.00  0.00     0.085 C 
BRANCH   9  10
HETATM   10  C2  UNL     1      30.088   8.381  46.820  1.00  0.00     0.087 C 
BRANCH  10  11
HETATM   11  S1  UNL     1      30.956   9.567  47.844  1.00  0.00    -0.173 SA
HETATM   12  C1  UNL     1      29.833  10.786  48.583  1.00  0.00     0.089 C 
ENDBRANCH  10  11
ENDBRANCH   9  10
BRANCH   9  13
HETATM   13  C4  UNL     1      30.632   7.139  48.917  1.00  0.00     0.120 C 
BRANCH  13  14
HETATM   14  N1  UNL     1      31.584   6.093  49.063  1.00  0.00    -0.258 NA
HETATM   15  C5  UNL     1      31.633   5.124  48.013  1.00  0.00     0.130 C 
BRANCH  14  16
HETATM   16  N2  UNL     1      31.337   5.451  50.288  1.00  0.00    -0.269 NA
HETATM   17  H12 UNL     1      30.947   4.512  50.132  1.00  0.00     0.137 HD
HETATM   18  H13 UNL     1      30.686   6.022  50.888  1.00  0.00     0.137 HD
ENDBRANCH  14  16
ENDBRANCH  13  14
ENDBRANCH   9  13
ENDBRANCH   7   9
ENDBRANCH   1   7
BRANCH   4  19
HETATM   19  O2  UNL     1      24.998   3.231  50.538  1.00  0.00    -0.350 OA
BRANCH  19  20
HETATM   20  C11 UNL     1      24.725   3.159  51.900  1.00  0.00     0.214 C 
BRANCH  20  21
HETATM   21  C12 UNL     1      25.027   1.741  52.304  1.00  0.00    -0.034 A 
HETATM   22  C13 UNL     1      24.154   0.944  53.024  1.00  0.00     0.009 A 
HETATM   23  C14 UNL     1      24.539  -0.354  53.343  1.00  0.00     0.001 A 
HETATM   24  C15 UNL     1      25.778  -0.801  52.930  1.00  0.00     0.000 A 
HETATM   25  C16 UNL     1      26.679  -0.033  52.208  1.00  0.00     0.001 A 
HETATM   26  C17 UNL     1      26.272   1.249  51.906  1.00  0.00     0.009 A 
ENDBRANCH  20  21
ENDBRANCH  19  20
ENDBRANCH   4  19
TORSDOF 10
ENDMDL
MODEL 5
REMARK VINA RESULT:      -7.1      6.256      9.263
REMARK  10 active torsions:
REMARK  status: ('A' for Active; 'I' for Inactive)
REMARK    1  A    between atoms: S1_2  and  C2_3 
REMARK    2  A    between atoms: C2_3  and  C3_4 
REMARK    3  A    between atoms: C3_4  and  C4_5 
REMARK    4  A    between atoms: C3_4  and  C6_9 
REMARK    5  A    between atoms: C4_5  and  N1_6 
REMARK    6  A    between atoms: N1_6  and  N2_8 
REMARK    7  A    between atoms: C6_9  and  C7_11 
REMARK    8  A    between atoms: C10_14  and  O2_15 
REMARK    9  A    between atoms: O2_15  and  C11_16 
REMARK   10  A    between atoms: C11_16  and  C12_17 
ROOT
HETATM    1  C7  UNL     1      26.076   4.640  49.769  1.00  0.00     0.047 A 
HETATM    2  C8  UNL     1      26.759   3.491  49.922  1.00  0.00     0.025 A 
HETATM    3  C9  UNL     1      26.375   2.320  50.698  1.00  0.00     0.034 A 
HETATM    4  C10 UNL     1      25.223   2.375  51.332  1.00  0.00     0.056 A 
HETATM    5  C18 UNL     1      24.139   3.348  51.493  1.00  0.00     0.144 A 
HETATM    6  S2  UNL     1      24.475   4.869  50.584  1.00  0.00    -0.120 SA
ENDROOT
BRANCH   1   7
HETATM    7  C6  UNL     1      26.609   5.732  48.946  1.00  0.00     0.172 C 
HETATM    8  O1  UNL     1      27.626   5.332  48.255  1.00  0.00    -0.291 OA
BRANCH   7   9
HETATM    9  C3  UNL     1      26.342   7.123  48.675  1.00  0.00     0.085 C 
BRANCH   9  10
HETATM   10  C2  UNL     1      25.017   7.266  47.942  1.00  0.00     0.087 C 
BRANCH  10  11
HETATM   11  S1  UNL     1      25.184   8.571  46.727  1.00  0.00    -0.173 SA
HETATM   12  C1  UNL     1      26.816   8.564  45.933  1.00  0.00     0.089 C 
ENDBRANCH  10  11
ENDBRANCH   9  10
BRANCH   9  13
HETATM   13  C4  UNL     1      26.401   8.026  49.877  1.00  0.00     0.120 C 
BRANCH  13  14
HETATM   14  N1  UNL     1      27.323   9.107  49.822  1.00  0.00    -0.258 NA
HETATM   15  C5  UNL     1      28.556   8.860  49.142  1.00  0.00     0.130 C 
BRANCH  14  16
HETATM   16  N2  UNL     1      27.583   9.521  51.139  1.00  0.00    -0.269 NA
HETATM   17  H12 UNL     1      27.372  10.521  51.252  1.00  0.00     0.137 HD
HETATM   18  H13 UNL     1      28.584   9.327  51.404  1.00  0.00     0.137 HD
ENDBRANCH  14  16
ENDBRANCH  13  14
ENDBRANCH   9  13
ENDBRANCH   7   9
ENDBRANCH   1   7
BRANCH   4  19
HETATM   19  O2  UNL     1      24.840   1.273  52.075  1.00  0.00    -0.350 OA
BRANCH  19  20
HETATM   20  C11 UNL     1      25.191   0.997  53.393  1.00  0.00     0.214 C 
BRANCH  20  21
HETATM   21  C12 UNL     1      26.391   0.093  53.316  1.00  0.00    -0.034 A 
HETATM   22  C13 UNL     1      26.374  -1.159  52.725  1.00  0.00     0.009 A 
HETATM   23  C14 UNL     1      27.545  -1.910  52.711  1.00  0.00     0.001 A 
HETATM   24  C15 UNL     1      28.681  -1.381  53.289  1.00  0.00     0.000 A 
HETATM   25  C16 UNL     1      28.738  -0.133  53.890  1.00  0.00     0.001 A 
HETATM   26  C17 UNL     1      27.564   0.590  53.889  1.00  0.00     0.009 A 
ENDBRANCH  20  21
ENDBRANCH  19  20
ENDBRANCH   4  19
TORSDOF 10
ENDMDL
MODEL 6
REMARK VINA RESULT:      -7.0      1.921      2.565
REMARK  10 active torsions:
REMARK  status: ('A' for Active; 'I' for Inactive)
REMARK    1  A    between atoms: S1_2  and  C2_3 
REMARK    2  A    between atoms: C2_3  and  C3_4 
REMARK    3  A    between atoms: C3_4  and  C4_5 
REMARK    4  A    between atoms: C3_4  and  C6_9 
REMARK    5  A    between atoms: C4_5  and  N1_6 
REMARK    6  A    between atoms: N1_6  and  N2_8 
REMARK    7  A    between atoms: C6_9  and  C7_11 
REMARK    8  A    between atoms: C10_14  and  O2_15 
REMARK    9  A    between atoms: O2_15  and  C11_16 
REMARK   10  A    between atoms: C11_16  and  C12_17 
ROOT
HETATM    1  C7  UNL     1      23.425  -0.242  53.451  1.00  0.00     0.047 A 
HETATM    2  C8  UNL     1      22.826  -0.988  54.397  1.00  0.00     0.025 A 
HETATM    3  C9  UNL     1      21.401  -1.229  54.575  1.00  0.00     0.034 A 
HETATM    4  C10 UNL     1      20.587  -0.656  53.715  1.00  0.00     0.056 A 
HETATM    5  C18 UNL     1      20.713   0.218  52.545  1.00  0.00     0.144 A 
HETATM    6  S2  UNL     1      22.438   0.613  52.198  1.00  0.00    -0.120 SA
ENDROOT
BRANCH   1   7
HETATM    7  C6  UNL     1      24.886  -0.100  53.414  1.00  0.00     0.172 C 
HETATM    8  O1  UNL     1      25.449  -0.925  54.234  1.00  0.00    -0.291 OA
BRANCH   7   9
HETATM    9  C3  UNL     1      25.888   0.685  52.735  1.00  0.00     0.085 C 
BRANCH   9  10
HETATM   10  C2  UNL     1      25.563   2.165  52.860  1.00  0.00     0.087 C 
BRANCH  10  11
HETATM   11  S1  UNL     1      25.529   2.874  51.215  1.00  0.00    -0.173 SA
HETATM   12  C1  UNL     1      24.194   4.088  51.019  1.00  0.00     0.089 C 
ENDBRANCH  10  11
ENDBRANCH   9  10
BRANCH   9  13
HETATM   13  C4  UNL     1      27.305   0.400  53.151  1.00  0.00     0.120 C 
BRANCH  13  14
HETATM   14  N1  UNL     1      27.847   1.216  54.182  1.00  0.00    -0.258 NA
HETATM   15  C5  UNL     1      29.042   1.933  53.865  1.00  0.00     0.130 C 
BRANCH  14  16
HETATM   16  N2  UNL     1      28.066   0.404  55.307  1.00  0.00    -0.269 NA
HETATM   17  H12 UNL     1      28.468   0.954  56.078  1.00  0.00     0.137 HD
HETATM   18  H13 UNL     1      28.695  -0.407  55.070  1.00  0.00     0.137 HD
ENDBRANCH  14  16
ENDBRANCH  13  14
ENDBRANCH   9  13
ENDBRANCH   7   9
ENDBRANCH   1   7
BRANCH   4  19
HETATM   19  O2  UNL     1      19.229  -0.873  53.866  1.00  0.00    -0.350 OA
BRANCH  19  20
HETATM   20  C11 UNL     1      18.251  -0.732  52.886  1.00  0.00     0.214 C 
BRANCH  20  21
HETATM   21  C12 UNL     1      17.383  -1.955  52.993  1.00  0.00    -0.034 A 
HETATM   22  C13 UNL     1      17.746  -3.097  53.688  1.00  0.00     0.009 A 
HETATM   23  C14 UNL     1      16.862  -4.171  53.721  1.00  0.00     0.001 A 
HETATM   24  C15 UNL     1      15.656  -4.060  53.059  1.00  0.00     0.000 A 
HETATM   25  C16 UNL     1      15.258  -2.935  52.353  1.00  0.00     0.001 A 
HETATM   26  C17 UNL     1      16.151  -1.886  52.337  1.00  0.00     0.009 A 
ENDBRANCH  20  21
ENDBRANCH  19  20
ENDBRANCH   4  19
TORSDOF 10
ENDMDL
MODEL 7
REMARK VINA RESULT:      -7.0      6.633      9.809
REMARK  10 active torsions:
REMARK  status: ('A' for Active; 'I' for Inactive)
REMARK    1  A    between atoms: S1_2  and  C2_3 
REMARK    2  A    between atoms: C2_3  and  C3_4 
REMARK    3  A    between atoms: C3_4  and  C4_5 
REMARK    4  A    between atoms: C3_4  and  C6_9 
REMARK    5  A    between atoms: C4_5  and  N1_6 
REMARK    6  A    between atoms: N1_6  and  N2_8 
REMARK    7  A    between atoms: C6_9  and  C7_11 
REMARK    8  A    between atoms: C10_14  and  O2_15 
REMARK    9  A    between atoms: O2_15  and  C11_16 
REMARK   10  A    between atoms: C11_16  and  C12_17 
ROOT
HETATM    1  C7  UNL     1      26.503   5.732  49.007  1.00  0.00     0.047 A 
HETATM    2  C8  UNL     1      27.031   4.495  48.966  1.00  0.00     0.025 A 
HETATM    3  C9  UNL     1      26.563   3.302  49.658  1.00  0.00     0.034 A 
HETATM    4  C10 UNL     1      25.498   3.432  50.419  1.00  0.00     0.056 A 
HETATM    5  C18 UNL     1      24.581   4.512  50.797  1.00  0.00     0.144 A 
HETATM    6  S2  UNL     1      25.037   6.070  50.013  1.00  0.00    -0.120 SA
ENDROOT
BRANCH   1   7
HETATM    7  C6  UNL     1      27.102   6.834  48.243  1.00  0.00     0.172 C 
HETATM    8  O1  UNL     1      26.237   7.361  47.441  1.00  0.00    -0.291 OA
BRANCH   7   9
HETATM    9  C3  UNL     1      28.371   7.509  48.117  1.00  0.00     0.085 C 
BRANCH   9  10
HETATM   10  C2  UNL     1      28.556   8.011  46.694  1.00  0.00     0.087 C 
BRANCH  10  11
HETATM   11  S1  UNL     1      30.140   8.839  46.590  1.00  0.00    -0.173 SA
HETATM   12  C1  UNL     1      31.529   7.693  46.810  1.00  0.00     0.089 C 
ENDBRANCH  10  11
ENDBRANCH   9  10
BRANCH   9  13
HETATM   13  C4  UNL     1      28.607   8.606  49.118  1.00  0.00     0.120 C 
BRANCH  13  14
HETATM   14  N1  UNL     1      27.457   9.274  49.620  1.00  0.00    -0.258 NA
HETATM   15  C5  UNL     1      27.106  10.504  48.982  1.00  0.00     0.130 C 
BRANCH  14  16
HETATM   16  N2  UNL     1      27.648   9.492  50.995  1.00  0.00    -0.269 NA
HETATM   17  H12 UNL     1      28.471   8.976  51.332  1.00  0.00     0.137 HD
HETATM   18  H13 UNL     1      26.792   9.215  51.542  1.00  0.00     0.137 HD
ENDBRANCH  14  16
ENDBRANCH  13  14
ENDBRANCH   9  13
ENDBRANCH   7   9
ENDBRANCH   1   7
BRANCH   4  19
HETATM   19  O2  UNL     1      25.038   2.311  51.086  1.00  0.00    -0.350 OA
BRANCH  19  20
HETATM   20  C11 UNL     1      25.019   2.113  52.463  1.00  0.00     0.214 C 
BRANCH  20  21
HETATM   21  C12 UNL     1      26.260   1.325  52.781  1.00  0.00    -0.034 A 
HETATM   22  C13 UNL     1      27.424   1.890  53.276  1.00  0.00     0.009 A 
HETATM   23  C14 UNL     1      28.513   1.063  53.534  1.00  0.00     0.001 A 
HETATM   24  C15 UNL     1      28.395  -0.290  53.287  1.00  0.00     0.000 A 
HETATM   25  C16 UNL     1      27.248  -0.891  52.792  1.00  0.00     0.001 A 
HETATM   26  C17 UNL     1      26.184  -0.050  52.545  1.00  0.00     0.009 A 
ENDBRANCH  20  21
ENDBRANCH  19  20
ENDBRANCH   4  19
TORSDOF 10
ENDMDL
MODEL 8
REMARK VINA RESULT:      -6.9      6.838     10.074
REMARK  10 active torsions:
REMARK  status: ('A' for Active; 'I' for Inactive)
REMARK    1  A    between atoms: S1_2  and  C2_3 
REMARK    2  A    between atoms: C2_3  and  C3_4 
REMARK    3  A    between atoms: C3_4  and  C4_5 
REMARK    4  A    between atoms: C3_4  and  C6_9 
REMARK    5  A    between atoms: C4_5  and  N1_6 
REMARK    6  A    between atoms: N1_6  and  N2_8 
REMARK    7  A    between atoms: C6_9  and  C7_11 
REMARK    8  A    between atoms: C10_14  and  O2_15 
REMARK    9  A    between atoms: O2_15  and  C11_16 
REMARK   10  A    between atoms: C11_16  and  C12_17 
ROOT
HETATM    1  C7  UNL     1      25.878   5.917  49.090  1.00  0.00     0.047 A 
HETATM    2  C8  UNL     1      26.735   4.893  48.929  1.00  0.00     0.025 A 
HETATM    3  C9  UNL     1      26.724   3.604  49.607  1.00  0.00     0.034 A 
HETATM    4  C10 UNL     1      25.767   3.401  50.486  1.00  0.00     0.056 A 
HETATM    5  C18 UNL     1      24.627   4.154  51.017  1.00  0.00     0.144 A 
HETATM    6  S2  UNL     1      24.510   5.790  50.268  1.00  0.00    -0.120 SA
ENDROOT
BRANCH   1   7
HETATM    7  C6  UNL     1      26.033   7.158  48.321  1.00  0.00     0.172 C 
HETATM    8  O1  UNL     1      25.037   7.327  47.514  1.00  0.00    -0.291 OA
BRANCH   7   9
HETATM    9  C3  UNL     1      26.965   8.252  48.193  1.00  0.00     0.085 C 
BRANCH   9  10
HETATM   10  C2  UNL     1      27.442   8.366  46.754  1.00  0.00     0.087 C 
BRANCH  10  11
HETATM   11  S1  UNL     1      29.156   7.850  46.687  1.00  0.00    -0.173 SA
HETATM   12  C1  UNL     1      29.769   7.297  48.303  1.00  0.00     0.089 C 
ENDBRANCH  10  11
ENDBRANCH   9  10
BRANCH   9  13
HETATM   13  C4  UNL     1      26.464   9.574  48.709  1.00  0.00     0.120 C 
BRANCH  13  14
HETATM   14  N1  UNL     1      27.289  10.249  49.649  1.00  0.00    -0.258 NA
HETATM   15  C5  UNL     1      28.529  10.763  49.157  1.00  0.00     0.130 C 
BRANCH  14  16
HETATM   16  N2  UNL     1      27.532   9.373  50.720  1.00  0.00    -0.269 NA
HETATM   17  H12 UNL     1      28.527   9.384  50.979  1.00  0.00     0.137 HD
HETATM   18  H13 UNL     1      27.227   8.393  50.482  1.00  0.00     0.137 HD
ENDBRANCH  14  16
ENDBRANCH  13  14
ENDBRANCH   9  13
ENDBRANCH   7   9
ENDBRANCH   1   7
BRANCH   4  19
HETATM   19  O2  UNL     1      25.738   2.183  51.142  1.00  0.00    -0.350 OA
BRANCH  19  20
HETATM   20  C11 UNL     1      25.657   1.982  52.517  1.00  0.00     0.214 C 
BRANCH  20  21
HETATM   21  C12 UNL     1      26.851   1.142  52.879  1.00  0.00    -0.034 A 
HETATM   22  C13 UNL     1      26.890  -0.236  52.747  1.00  0.00     0.009 A 
HETATM   23  C14 UNL     1      28.049  -0.912  53.114  1.00  0.00     0.001 A 
HETATM   24  C15 UNL     1      29.119  -0.185  53.597  1.00  0.00     0.000 A 
HETATM   25  C16 UNL     1      29.118   1.193  53.745  1.00  0.00     0.001 A 
HETATM   26  C17 UNL     1      27.957   1.839  53.373  1.00  0.00     0.009 A 
ENDBRANCH  20  21
ENDBRANCH  19  20
ENDBRANCH   4  19
TORSDOF 10
ENDMDL
MODEL 9
REMARK VINA RESULT:      -6.8      2.851      4.378
REMARK  10 active torsions:
REMARK  status: ('A' for Active; 'I' for Inactive)
REMARK    1  A    between atoms: S1_2  and  C2_3 
REMARK    2  A    between atoms: C2_3  and  C3_4 
REMARK    3  A    between atoms: C3_4  and  C4_5 
REMARK    4  A    between atoms: C3_4  and  C6_9 
REMARK    5  A    between atoms: C4_5  and  N1_6 
REMARK    6  A    between atoms: N1_6  and  N2_8 
REMARK    7  A    between atoms: C6_9  and  C7_11 
REMARK    8  A    between atoms: C10_14  and  O2_15 
REMARK    9  A    between atoms: O2_15  and  C11_16 
REMARK   10  A    between atoms: C11_16  and  C12_17 
ROOT
HETATM    1  C7  UNL     1      25.893   2.361  52.904  1.00  0.00     0.047 A 
HETATM    2  C8  UNL     1      24.707   2.845  53.317  1.00  0.00     0.025 A 
HETATM    3  C9  UNL     1      23.687   3.510  52.517  1.00  0.00     0.034 A 
HETATM    4  C10 UNL     1      23.940   3.665  51.236  1.00  0.00     0.056 A 
HETATM    5  C18 UNL     1      25.033   3.336  50.316  1.00  0.00     0.144 A 
HETATM    6  S2  UNL     1      26.386   2.503  51.169  1.00  0.00    -0.120 SA
ENDROOT
BRANCH   1   7
HETATM    7  C6  UNL     1      26.813   1.714  53.847  1.00  0.00     0.172 C 
HETATM    8  O1  UNL     1      27.761   2.521  54.193  1.00  0.00    -0.291 OA
BRANCH   7   9
HETATM    9  C3  UNL     1      26.979   0.442  54.508  1.00  0.00     0.085 C 
BRANCH   9  10
HETATM   10  C2  UNL     1      26.184  -0.631  53.783  1.00  0.00     0.087 C 
BRANCH  10  11
HETATM   11  S1  UNL     1      24.626  -0.854  54.639  1.00  0.00    -0.173 SA
HETATM   12  C1  UNL     1      23.200  -0.553  53.558  1.00  0.00     0.089 C 
ENDBRANCH  10  11
ENDBRANCH   9  10
BRANCH   9  13
HETATM   13  C4  UNL     1      28.408   0.018  54.714  1.00  0.00     0.120 C 
BRANCH  13  14
HETATM   14  N1  UNL     1      29.152  -0.314  53.550  1.00  0.00    -0.258 NA
HETATM   15  C5  UNL     1      29.677  -1.643  53.485  1.00  0.00     0.130 C 
BRANCH  14  16
HETATM   16  N2  UNL     1      30.199   0.615  53.425  1.00  0.00    -0.269 NA
HETATM   17  H12 UNL     1      31.047   0.269  53.894  1.00  0.00     0.137 HD
HETATM   18  H13 UNL     1      29.920   1.551  53.818  1.00  0.00     0.137 HD
ENDBRANCH  14  16
ENDBRANCH  13  14
ENDBRANCH   9  13
ENDBRANCH   7   9
ENDBRANCH   1   7
BRANCH   4  19
HETATM   19  O2  UNL     1      22.985   4.295  50.458  1.00  0.00    -0.350 OA
BRANCH  19  20
HETATM   20  C11 UNL     1      22.203   3.710  49.467  1.00  0.00     0.214 C 
BRANCH  20  21
HETATM   21  C12 UNL     1      21.423   2.620  50.151  1.00  0.00    -0.034 A 
HETATM   22  C13 UNL     1      21.730   1.274  50.048  1.00  0.00     0.009 A 
HETATM   23  C14 UNL     1      20.937   0.353  50.724  1.00  0.00     0.001 A 
HETATM   24  C15 UNL     1      19.873   0.813  51.473  1.00  0.00     0.000 A 
HETATM   25  C16 UNL     1      19.534   2.151  51.600  1.00  0.00     0.001 A 
HETATM   26  C17 UNL     1      20.335   3.043  50.920  1.00  0.00     0.009 A 
ENDBRANCH  20  21
ENDBRANCH  19  20
ENDBRANCH   4  19
TORSDOF 10
ENDMDL
