MODEL 1
REMARK VINA RESULT:      -7.1      0.000      0.000
REMARK  10 active torsions:
REMARK  status: ('A' for Active; 'I' for Inactive)
REMARK    1  A    between atoms: O1_2  and  C2_3 
REMARK    2  A    between atoms: C2_3  and  C3_4 
REMARK    3  A    between atoms: C3_4  and  C4_5 
REMARK    4  A    between atoms: C5_6  and  O2_7 
REMARK    5  A    between atoms: C8_10  and  C9_11 
REMARK    6  A    between atoms: C9_11  and  N3_15 
REMARK    7  A    between atoms: N1_12  and  C10_13 
REMARK    8  A    between atoms: N3_15  and  C11_16 
REMARK    9  A    between atoms: C14_19  and  O3_20 
REMARK   10  A    between atoms: C16_22  and  O4_23 
ROOT
HETATM    1  C9  UNL     1      26.736   2.025  51.748  1.00  0.00     0.140 C 
HETATM    2  N1  UNL     1      27.817   2.532  52.213  1.00  0.00    -0.224 NA
ENDROOT
BRANCH   1   3
HETATM    3  C8  UNL     1      25.754   1.213  52.428  1.00  0.00     0.022 A 
HETATM    4  C4  UNL     1      25.510  -0.120  52.939  1.00  0.00    -0.009 A 
HETATM    5  C5  UNL     1      24.276   0.217  53.357  1.00  0.00     0.076 A 
HETATM    6  C7  UNL     1      24.546   1.553  52.837  1.00  0.00     0.053 A 
BRANCH   4   7
HETATM    7  C3  UNL     1      26.241  -1.384  53.010  1.00  0.00     0.068 C 
BRANCH   7   8
HETATM    8  C2  UNL     1      27.725  -1.286  52.764  1.00  0.00     0.171 C 
BRANCH   8   9
HETATM    9  O1  UNL     1      28.422  -1.150  53.972  1.00  0.00    -0.396 OA
HETATM   10  C1  UNL     1      29.795  -1.056  53.762  1.00  0.00     0.201 C 
ENDBRANCH   8   9
ENDBRANCH   7   8
ENDBRANCH   4   7
BRANCH   5  11
HETATM   11  O2  UNL     1      23.265  -0.521  54.006  1.00  0.00    -0.355 OA
HETATM   12  C6  UNL     1      22.145  -1.029  53.294  1.00  0.00     0.210 C 
ENDBRANCH   5  11
ENDBRANCH   1   3
BRANCH   1  13
HETATM   13  N3  UNL     1      26.617   2.409  50.407  1.00  0.00    -0.340 N 
HETATM   14  H14 UNL     1      26.711   1.673  49.655  1.00  0.00     0.167 HD
BRANCH  13  15
HETATM   15  C11 UNL     1      26.361   3.731  49.958  1.00  0.00     0.036 A 
HETATM   16  C12 UNL     1      27.229   4.373  49.081  1.00  0.00     0.032 A 
HETATM   17  C13 UNL     1      27.042   5.646  48.598  1.00  0.00     0.042 A 
HETATM   18  C14 UNL     1      25.939   6.362  48.981  1.00  0.00     0.101 A 
HETATM   19  C16 UNL     1      25.038   5.783  49.850  1.00  0.00     0.103 A 
HETATM   20  C18 UNL     1      25.278   4.505  50.300  1.00  0.00     0.069 A 
BRANCH  18  21
HETATM   21  O3  UNL     1      25.730   7.647  48.506  1.00  0.00    -0.353 OA
HETATM   22  C15 UNL     1      26.557   8.669  48.995  1.00  0.00     0.210 C 
ENDBRANCH  18  21
BRANCH  19  23
HETATM   23  O4  UNL     1      23.947   6.534  50.211  1.00  0.00    -0.353 OA
HETATM   24  C17 UNL     1      23.039   6.029  51.155  1.00  0.00     0.210 C 
ENDBRANCH  19  23
ENDBRANCH  13  15
ENDBRANCH   1  13
BRANCH   2  25
HETATM   25  C10 UNL     1      28.174   2.322  53.551  1.00  0.00     0.225 C 
HETATM   26  N2  UNL     1      29.327   2.516  54.115  1.00  0.00    -0.293 NA
HETATM   27  H13 UNL     1      30.168   2.869  53.618  1.00  0.00     0.187 HD
ENDBRANCH   2  25
TORSDOF 10
ENDMDL
MODEL 2
REMARK VINA RESULT:      -7.1      0.876      2.000
REMARK  10 active torsions:
REMARK  status: ('A' for Active; 'I' for Inactive)
REMARK    1  A    between atoms: O1_2  and  C2_3 
REMARK    2  A    between atoms: C2_3  and  C3_4 
REMARK    3  A    between atoms: C3_4  and  C4_5 
REMARK    4  A    between atoms: C5_6  and  O2_7 
REMARK    5  A    between atoms: C8_10  and  C9_11 
REMARK    6  A    between atoms: C9_11  and  N3_15 
REMARK    7  A    between atoms: N1_12  and  C10_13 
REMARK    8  A    between atoms: N3_15  and  C11_16 
REMARK    9  A    between atoms: C14_19  and  O3_20 
REMARK   10  A    between atoms: C16_22  and  O4_23 
ROOT
HETATM    1  C9  UNL     1      26.692   1.981  51.727  1.00  0.00     0.140 C 
HETATM    2  N1  UNL     1      27.761   2.515  52.188  1.00  0.00    -0.224 NA
ENDROOT
BRANCH   1   3
HETATM    3  C8  UNL     1      25.717   1.169  52.418  1.00  0.00     0.022 A 
HETATM    4  C4  UNL     1      25.483  -0.162  52.938  1.00  0.00    -0.009 A 
HETATM    5  C5  UNL     1      24.250   0.172  53.362  1.00  0.00     0.076 A 
HETATM    6  C7  UNL     1      24.511   1.506  52.832  1.00  0.00     0.053 A 
BRANCH   4   7
HETATM    7  C3  UNL     1      26.220  -1.422  53.013  1.00  0.00     0.068 C 
BRANCH   7   8
HETATM    8  C2  UNL     1      27.702  -1.319  52.759  1.00  0.00     0.171 C 
BRANCH   8   9
HETATM    9  O1  UNL     1      28.402  -1.138  53.960  1.00  0.00    -0.396 OA
HETATM   10  C1  UNL     1      29.772  -1.021  53.741  1.00  0.00     0.201 C 
ENDBRANCH   8   9
ENDBRANCH   7   8
ENDBRANCH   4   7
BRANCH   5  11
HETATM   11  O2  UNL     1      23.246  -0.568  54.022  1.00  0.00    -0.355 OA
HETATM   12  C6  UNL     1      22.070  -0.989  53.344  1.00  0.00     0.210 C 
ENDBRANCH   5  11
ENDBRANCH   1   3
BRANCH   1  13
HETATM   13  N3  UNL     1      26.576   2.334  50.377  1.00  0.00    -0.340 N 
HETATM   14  H14 UNL     1      26.606   1.571  49.646  1.00  0.00     0.167 HD
BRANCH  13  15
HETATM   15  C11 UNL     1      26.405   3.657  49.892  1.00  0.00     0.036 A 
HETATM   16  C12 UNL     1      25.272   4.398  50.209  1.00  0.00     0.032 A 
HETATM   17  C13 UNL     1      25.043   5.685  49.784  1.00  0.00     0.042 A 
HETATM   18  C14 UNL     1      25.969   6.313  48.995  1.00  0.00     0.101 A 
HETATM   19  C16 UNL     1      27.116   5.633  48.643  1.00  0.00     0.103 A 
HETATM   20  C18 UNL     1      27.290   4.347  49.099  1.00  0.00     0.069 A 
BRANCH  18  21
HETATM   21  O3  UNL     1      25.759   7.611  48.555  1.00  0.00    -0.353 OA
HETATM   22  C15 UNL     1      24.845   7.808  47.509  1.00  0.00     0.210 C 
ENDBRANCH  18  21
BRANCH  19  23
HETATM   23  O4  UNL     1      28.018   6.298  47.850  1.00  0.00    -0.353 OA
HETATM   24  C17 UNL     1      29.393   6.101  48.049  1.00  0.00     0.210 C 
ENDBRANCH  19  23
ENDBRANCH  13  15
ENDBRANCH   1  13
BRANCH   2  25
HETATM   25  C10 UNL     1      28.112   2.340  53.533  1.00  0.00     0.225 C 
HETATM   26  N2  UNL     1      29.268   2.527  54.093  1.00  0.00    -0.293 NA
HETATM   27  H13 UNL     1      30.117   2.844  53.587  1.00  0.00     0.187 HD
ENDBRANCH   2  25
TORSDOF 10
ENDMDL
MODEL 3
REMARK VINA RESULT:      -6.7      2.268      7.741
REMARK  10 active torsions:
REMARK  status: ('A' for Active; 'I' for Inactive)
REMARK    1  A    between atoms: O1_2  and  C2_3 
REMARK    2  A    between atoms: C2_3  and  C3_4 
REMARK    3  A    between atoms: C3_4  and  C4_5 
REMARK    4  A    between atoms: C5_6  and  O2_7 
REMARK    5  A    between atoms: C8_10  and  C9_11 
REMARK    6  A    between atoms: C9_11  and  N3_15 
REMARK    7  A    between atoms: N1_12  and  C10_13 
REMARK    8  A    between atoms: N3_15  and  C11_16 
REMARK    9  A    between atoms: C14_19  and  O3_20 
REMARK   10  A    between atoms: C16_22  and  O4_23 
ROOT
HETATM    1  C9  UNL     1      24.714   4.054  50.483  1.00  0.00     0.140 C 
HETATM    2  N1  UNL     1      23.840   4.763  51.097  1.00  0.00    -0.224 NA
ENDROOT
BRANCH   1   3
HETATM    3  C8  UNL     1      25.845   4.492  49.699  1.00  0.00     0.022 A 
HETATM    4  C4  UNL     1      26.297   5.542  48.812  1.00  0.00    -0.009 A 
HETATM    5  C5  UNL     1      27.495   4.949  48.647  1.00  0.00     0.076 A 
HETATM    6  C7  UNL     1      27.016   3.905  49.546  1.00  0.00     0.053 A 
BRANCH   4   7
HETATM    7  C3  UNL     1      25.748   6.777  48.255  1.00  0.00     0.068 C 
BRANCH   7   8
HETATM    8  C2  UNL     1      26.514   8.032  48.587  1.00  0.00     0.171 C 
BRANCH   8   9
HETATM    9  O1  UNL     1      26.739   8.127  49.967  1.00  0.00    -0.396 OA
HETATM   10  C1  UNL     1      27.316   9.348  50.307  1.00  0.00     0.201 C 
ENDBRANCH   8   9
ENDBRANCH   7   8
ENDBRANCH   4   7
BRANCH   5  11
HETATM   11  O2  UNL     1      28.629   5.308  47.890  1.00  0.00    -0.355 OA
HETATM   12  C6  UNL     1      29.765   5.910  48.497  1.00  0.00     0.210 C 
ENDBRANCH   5  11
ENDBRANCH   1   3
BRANCH   1  13
HETATM   13  N3  UNL     1      24.415   2.704  50.709  1.00  0.00    -0.340 N 
HETATM   14  H14 UNL     1      23.850   2.179  49.987  1.00  0.00     0.167 HD
BRANCH  13  15
HETATM   15  C11 UNL     1      24.825   1.958  51.844  1.00  0.00     0.036 A 
HETATM   16  C12 UNL     1      24.073   0.884  52.310  1.00  0.00     0.032 A 
HETATM   17  C13 UNL     1      24.412   0.112  53.395  1.00  0.00     0.042 A 
HETATM   18  C14 UNL     1      25.560   0.386  54.090  1.00  0.00     0.101 A 
HETATM   19  C16 UNL     1      26.351   1.439  53.681  1.00  0.00     0.103 A 
HETATM   20  C18 UNL     1      25.961   2.176  52.588  1.00  0.00     0.069 A 
BRANCH  18  21
HETATM   21  O3  UNL     1      25.922  -0.379  55.187  1.00  0.00    -0.353 OA
HETATM   22  C15 UNL     1      24.938  -1.189  55.775  1.00  0.00     0.210 C 
ENDBRANCH  18  21
BRANCH  19  23
HETATM   23  O4  UNL     1      27.493   1.681  54.405  1.00  0.00    -0.353 OA
HETATM   24  C17 UNL     1      28.667   2.066  53.741  1.00  0.00     0.210 C 
ENDBRANCH  19  23
ENDBRANCH  13  15
ENDBRANCH   1  13
BRANCH   2  25
HETATM   25  C10 UNL     1      23.915   6.161  51.057  1.00  0.00     0.225 C 
HETATM   26  N2  UNL     1      24.515   6.958  51.886  1.00  0.00    -0.293 NA
HETATM   27  H13 UNL     1      25.039   6.641  52.725  1.00  0.00     0.187 HD
ENDBRANCH   2  25
TORSDOF 10
ENDMDL
MODEL 4
REMARK VINA RESULT:      -6.6      1.895      7.739
REMARK  10 active torsions:
REMARK  status: ('A' for Active; 'I' for Inactive)
REMARK    1  A    between atoms: O1_2  and  C2_3 
REMARK    2  A    between atoms: C2_3  and  C3_4 
REMARK    3  A    between atoms: C3_4  and  C4_5 
REMARK    4  A    between atoms: C5_6  and  O2_7 
REMARK    5  A    between atoms: C8_10  and  C9_11 
REMARK    6  A    between atoms: C9_11  and  N3_15 
REMARK    7  A    between atoms: N1_12  and  C10_13 
REMARK    8  A    between atoms: N3_15  and  C11_16 
REMARK    9  A    between atoms: C14_19  and  O3_20 
REMARK   10  A    between atoms: C16_22  and  O4_23 
ROOT
HETATM    1  C9  UNL     1      25.038   4.183  50.281  1.00  0.00     0.140 C 
HETATM    2  N1  UNL     1      24.123   4.662  51.039  1.00  0.00    -0.224 NA
ENDROOT
BRANCH   1   3
HETATM    3  C8  UNL     1      26.012   4.890  49.483  1.00  0.00     0.022 A 
HETATM    4  C4  UNL     1      26.196   6.066  48.658  1.00  0.00    -0.009 A 
HETATM    5  C5  UNL     1      27.475   5.738  48.395  1.00  0.00     0.076 A 
HETATM    6  C7  UNL     1      27.266   4.562  49.234  1.00  0.00     0.053 A 
BRANCH   4   7
HETATM    7  C3  UNL     1      25.381   7.199  48.221  1.00  0.00     0.068 C 
BRANCH   7   8
HETATM    8  C2  UNL     1      25.872   8.554  48.660  1.00  0.00     0.171 C 
BRANCH   8   9
HETATM    9  O1  UNL     1      26.192   8.550  50.025  1.00  0.00    -0.396 OA
HETATM   10  C1  UNL     1      27.354   9.274  50.279  1.00  0.00     0.201 C 
ENDBRANCH   8   9
ENDBRANCH   7   8
ENDBRANCH   4   7
BRANCH   5  11
HETATM   11  O2  UNL     1      28.469   6.367  47.618  1.00  0.00    -0.355 OA
HETATM   12  C6  UNL     1      29.852   6.163  47.878  1.00  0.00     0.210 C 
ENDBRANCH   5  11
ENDBRANCH   1   3
BRANCH   1  13
HETATM   13  N3  UNL     1      24.977   2.786  50.354  1.00  0.00    -0.340 N 
HETATM   14  H14 UNL     1      24.504   2.255  49.572  1.00  0.00     0.167 HD
BRANCH  13  15
HETATM   15  C11 UNL     1      25.517   2.000  51.405  1.00  0.00     0.036 A 
HETATM   16  C12 UNL     1      26.826   2.183  51.839  1.00  0.00     0.032 A 
HETATM   17  C13 UNL     1      27.414   1.467  52.854  1.00  0.00     0.042 A 
HETATM   18  C14 UNL     1      26.695   0.501  53.507  1.00  0.00     0.101 A 
HETATM   19  C16 UNL     1      25.390   0.269  53.124  1.00  0.00     0.103 A 
HETATM   20  C18 UNL     1      24.856   1.017  52.102  1.00  0.00     0.069 A 
BRANCH  18  21
HETATM   21  O3  UNL     1      27.267  -0.234  54.533  1.00  0.00    -0.353 OA
HETATM   22  C15 UNL     1      28.602   0.037  54.867  1.00  0.00     0.210 C 
ENDBRANCH  18  21
BRANCH  19  23
HETATM   23  O4  UNL     1      24.705  -0.709  53.802  1.00  0.00    -0.353 OA
HETATM   24  C17 UNL     1      23.316  -0.594  53.967  1.00  0.00     0.210 C 
ENDBRANCH  19  23
ENDBRANCH  13  15
ENDBRANCH   1  13
BRANCH   2  25
HETATM   25  C10 UNL     1      23.973   6.049  51.171  1.00  0.00     0.225 C 
HETATM   26  N2  UNL     1      24.464   6.826  52.087  1.00  0.00    -0.293 NA
HETATM   27  H13 UNL     1      25.057   6.499  52.874  1.00  0.00     0.187 HD
ENDBRANCH   2  25
TORSDOF 10
ENDMDL
MODEL 5
REMARK VINA RESULT:      -6.5      2.864      4.336
REMARK  10 active torsions:
REMARK  status: ('A' for Active; 'I' for Inactive)
REMARK    1  A    between atoms: O1_2  and  C2_3 
REMARK    2  A    between atoms: C2_3  and  C3_4 
REMARK    3  A    between atoms: C3_4  and  C4_5 
REMARK    4  A    between atoms: C5_6  and  O2_7 
REMARK    5  A    between atoms: C8_10  and  C9_11 
REMARK    6  A    between atoms: C9_11  and  N3_15 
REMARK    7  A    between atoms: N1_12  and  C10_13 
REMARK    8  A    between atoms: N3_15  and  C11_16 
REMARK    9  A    between atoms: C14_19  and  O3_20 
REMARK   10  A    between atoms: C16_22  and  O4_23 
ROOT
HETATM    1  C9  UNL     1      22.849   0.618  52.895  1.00  0.00     0.140 C 
HETATM    2  N1  UNL     1      21.741   0.352  53.481  1.00  0.00    -0.224 NA
ENDROOT
BRANCH   1   3
HETATM    3  C8  UNL     1      24.188   0.240  53.281  1.00  0.00     0.022 A 
HETATM    4  C4  UNL     1      25.511   0.772  53.536  1.00  0.00    -0.009 A 
HETATM    5  C5  UNL     1      26.001  -0.453  53.805  1.00  0.00     0.076 A 
HETATM    6  C7  UNL     1      24.659  -0.964  53.545  1.00  0.00     0.053 A 
BRANCH   4   7
HETATM    7  C3  UNL     1      26.151   2.086  53.522  1.00  0.00     0.068 C 
BRANCH   7   8
HETATM    8  C2  UNL     1      26.856   2.448  52.240  1.00  0.00     0.171 C 
BRANCH   8   9
HETATM    9  O1  UNL     1      28.246   2.359  52.393  1.00  0.00    -0.396 OA
HETATM   10  C1  UNL     1      28.620   2.467  53.730  1.00  0.00     0.201 C 
ENDBRANCH   8   9
ENDBRANCH   7   8
ENDBRANCH   4   7
BRANCH   5  11
HETATM   11  O2  UNL     1      27.290  -0.894  54.167  1.00  0.00    -0.355 OA
HETATM   12  C6  UNL     1      28.273  -1.197  53.186  1.00  0.00     0.210 C 
ENDBRANCH   5  11
ENDBRANCH   1   3
BRANCH   1  13
HETATM   13  N3  UNL     1      22.564   1.357  51.740  1.00  0.00    -0.340 N 
HETATM   14  H14 UNL     1      21.968   0.916  50.987  1.00  0.00     0.167 HD
BRANCH  13  15
HETATM   15  C11 UNL     1      23.003   2.683  51.492  1.00  0.00     0.036 A 
HETATM   16  C12 UNL     1      23.113   3.610  52.523  1.00  0.00     0.032 A 
HETATM   17  C13 UNL     1      23.538   4.906  52.359  1.00  0.00     0.042 A 
HETATM   18  C14 UNL     1      23.889   5.352  51.112  1.00  0.00     0.101 A 
HETATM   19  C16 UNL     1      23.803   4.483  50.045  1.00  0.00     0.103 A 
HETATM   20  C18 UNL     1      23.370   3.197  50.270  1.00  0.00     0.069 A 
BRANCH  18  21
HETATM   21  O3  UNL     1      24.321   6.655  50.924  1.00  0.00    -0.353 OA
HETATM   22  C15 UNL     1      23.348   7.660  50.820  1.00  0.00     0.210 C 
ENDBRANCH  18  21
BRANCH  19  23
HETATM   23  O4  UNL     1      24.162   4.970  48.812  1.00  0.00    -0.353 OA
HETATM   24  C17 UNL     1      23.165   5.344  47.898  1.00  0.00     0.210 C 
ENDBRANCH  19  23
ENDBRANCH  13  15
ENDBRANCH   1  13
BRANCH   2  25
HETATM   25  C10 UNL     1      21.732  -0.403  54.661  1.00  0.00     0.225 C 
HETATM   26  N2  UNL     1      21.075  -1.493  54.914  1.00  0.00    -0.293 NA
HETATM   27  H13 UNL     1      20.442  -1.962  54.237  1.00  0.00     0.187 HD
ENDBRANCH   2  25
TORSDOF 10
ENDMDL
MODEL 6
REMARK VINA RESULT:      -6.5      1.543      2.965
REMARK  10 active torsions:
REMARK  status: ('A' for Active; 'I' for Inactive)
REMARK    1  A    between atoms: O1_2  and  C2_3 
REMARK    2  A    between atoms: C2_3  and  C3_4 
REMARK    3  A    between atoms: C3_4  and  C4_5 
REMARK    4  A    between atoms: C5_6  and  O2_7 
REMARK    5  A    between atoms: C8_10  and  C9_11 
REMARK    6  A    between atoms: C9_11  and  N3_15 
REMARK    7  A    between atoms: N1_12  and  C10_13 
REMARK    8  A    between atoms: N3_15  and  C11_16 
REMARK    9  A    between atoms: C14_19  and  O3_20 
REMARK   10  A    between atoms: C16_22  and  O4_23 
ROOT
HETATM    1  C9  UNL     1      26.631   1.969  51.643  1.00  0.00     0.140 C 
HETATM    2  N1  UNL     1      27.730   2.410  52.134  1.00  0.00    -0.224 NA
ENDROOT
BRANCH   1   3
HETATM    3  C8  UNL     1      25.609   1.176  52.284  1.00  0.00     0.022 A 
HETATM    4  C4  UNL     1      24.220   1.193  52.692  1.00  0.00    -0.009 A 
HETATM    5  C5  UNL     1      24.310  -0.046  53.212  1.00  0.00     0.076 A 
HETATM    6  C7  UNL     1      25.706  -0.039  52.788  1.00  0.00     0.053 A 
BRANCH   4   7
HETATM    7  C3  UNL     1      23.100   2.130  52.622  1.00  0.00     0.068 C 
BRANCH   7   8
HETATM    8  C2  UNL     1      22.003   1.754  51.659  1.00  0.00     0.171 C 
BRANCH   8   9
HETATM    9  O1  UNL     1      22.538   1.312  50.442  1.00  0.00    -0.396 OA
HETATM   10  C1  UNL     1      22.621   2.348  49.515  1.00  0.00     0.201 C 
ENDBRANCH   8   9
ENDBRANCH   7   8
ENDBRANCH   4   7
BRANCH   5  11
HETATM   11  O2  UNL     1      23.366  -0.868  53.862  1.00  0.00    -0.355 OA
HETATM   12  C6  UNL     1      23.498  -1.202  55.237  1.00  0.00     0.210 C 
ENDBRANCH   5  11
ENDBRANCH   1   3
BRANCH   1  13
HETATM   13  N3  UNL     1      26.540   2.411  50.317  1.00  0.00    -0.340 N 
HETATM   14  H14 UNL     1      26.602   1.700  49.537  1.00  0.00     0.167 HD
BRANCH  13  15
HETATM   15  C11 UNL     1      26.353   3.760  49.918  1.00  0.00     0.036 A 
HETATM   16  C12 UNL     1      27.224   4.373  49.023  1.00  0.00     0.032 A 
HETATM   17  C13 UNL     1      27.101   5.669  48.586  1.00  0.00     0.042 A 
HETATM   18  C14 UNL     1      26.065   6.442  49.039  1.00  0.00     0.101 A 
HETATM   19  C16 UNL     1      25.165   5.895  49.929  1.00  0.00     0.103 A 
HETATM   20  C18 UNL     1      25.339   4.591  50.331  1.00  0.00     0.069 A 
BRANCH  18  21
HETATM   21  O3  UNL     1      25.921   7.753  48.611  1.00  0.00    -0.353 OA
HETATM   22  C15 UNL     1      25.501   7.969  47.290  1.00  0.00     0.210 C 
ENDBRANCH  18  21
BRANCH  19  23
HETATM   23  O4  UNL     1      24.141   6.703  50.359  1.00  0.00    -0.353 OA
HETATM   24  C17 UNL     1      22.831   6.453  49.925  1.00  0.00     0.210 C 
ENDBRANCH  19  23
ENDBRANCH  13  15
ENDBRANCH   1  13
BRANCH   2  25
HETATM   25  C10 UNL     1      28.067   2.132  53.465  1.00  0.00     0.225 C 
HETATM   26  N2  UNL     1      29.116   2.516  54.126  1.00  0.00    -0.293 NA
HETATM   27  H13 UNL     1      29.872   3.105  53.727  1.00  0.00     0.187 HD
ENDBRANCH   2  25
TORSDOF 10
ENDMDL
MODEL 7
REMARK VINA RESULT:      -6.5      1.899      7.695
REMARK  10 active torsions:
REMARK  status: ('A' for Active; 'I' for Inactive)
REMARK    1  A    between atoms: O1_2  and  C2_3 
REMARK    2  A    between atoms: C2_3  and  C3_4 
REMARK    3  A    between atoms: C3_4  and  C4_5 
REMARK    4  A    between atoms: C5_6  and  O2_7 
REMARK    5  A    between atoms: C8_10  and  C9_11 
REMARK    6  A    between atoms: C9_11  and  N3_15 
REMARK    7  A    between atoms: N1_12  and  C10_13 
REMARK    8  A    between atoms: N3_15  and  C11_16 
REMARK    9  A    between atoms: C14_19  and  O3_20 
REMARK   10  A    between atoms: C16_22  and  O4_23 
ROOT
HETATM    1  C9  UNL     1      24.871   3.392  50.804  1.00  0.00     0.140 C 
HETATM    2  N1  UNL     1      23.804   2.776  50.450  1.00  0.00    -0.224 NA
ENDROOT
BRANCH   1   3
HETATM    3  C8  UNL     1      25.757   4.200  50.000  1.00  0.00     0.022 A 
HETATM    4  C4  UNL     1      25.966   5.546  49.509  1.00  0.00    -0.009 A 
HETATM    5  C5  UNL     1      27.072   5.177  48.836  1.00  0.00     0.076 A 
HETATM    6  C7  UNL     1      26.841   3.830  49.346  1.00  0.00     0.053 A 
BRANCH   4   7
HETATM    7  C3  UNL     1      25.299   6.841  49.632  1.00  0.00     0.068 C 
BRANCH   7   8
HETATM    8  C2  UNL     1      23.797   6.785  49.744  1.00  0.00     0.171 C 
BRANCH   8   9
HETATM    9  O1  UNL     1      23.402   6.672  51.084  1.00  0.00    -0.396 OA
HETATM   10  C1  UNL     1      22.166   6.040  51.201  1.00  0.00     0.201 C 
ENDBRANCH   8   9
ENDBRANCH   7   8
ENDBRANCH   4   7
BRANCH   5  11
HETATM   11  O2  UNL     1      27.968   5.903  48.024  1.00  0.00    -0.355 OA
HETATM   12  C6  UNL     1      29.373   5.839  48.230  1.00  0.00     0.210 C 
ENDBRANCH   5  11
ENDBRANCH   1   3
BRANCH   1  13
HETATM   13  N3  UNL     1      25.062   3.178  52.175  1.00  0.00    -0.340 N 
HETATM   14  H14 UNL     1      24.556   3.800  52.864  1.00  0.00     0.167 HD
BRANCH  13  15
HETATM   15  C11 UNL     1      25.884   2.166  52.735  1.00  0.00     0.036 A 
HETATM   16  C12 UNL     1      27.248   2.115  52.464  1.00  0.00     0.032 A 
HETATM   17  C13 UNL     1      28.106   1.172  52.976  1.00  0.00     0.042 A 
HETATM   18  C14 UNL     1      27.625   0.201  53.814  1.00  0.00     0.101 A 
HETATM   19  C16 UNL     1      26.281   0.194  54.123  1.00  0.00     0.103 A 
HETATM   20  C18 UNL     1      25.471   1.164  53.580  1.00  0.00     0.069 A 
BRANCH  18  21
HETATM   21  O3  UNL     1      28.472  -0.760  54.342  1.00  0.00    -0.353 OA
HETATM   22  C15 UNL     1      29.754  -0.881  53.785  1.00  0.00     0.210 C 
ENDBRANCH  18  21
BRANCH  19  23
HETATM   23  O4  UNL     1      25.839  -0.796  54.965  1.00  0.00    -0.353 OA
HETATM   24  C17 UNL     1      24.463  -1.049  55.075  1.00  0.00     0.210 C 
ENDBRANCH  19  23
ENDBRANCH  13  15
ENDBRANCH   1  13
BRANCH   2  25
HETATM   25  C10 UNL     1      23.362   2.841  49.122  1.00  0.00     0.225 C 
HETATM   26  N2  UNL     1      22.418   3.580  48.625  1.00  0.00    -0.293 NA
HETATM   27  H13 UNL     1      21.846   4.246  49.178  1.00  0.00     0.187 HD
ENDBRANCH   2  25
TORSDOF 10
ENDMDL
MODEL 8
REMARK VINA RESULT:      -6.4      2.365      3.987
REMARK  10 active torsions:
REMARK  status: ('A' for Active; 'I' for Inactive)
REMARK    1  A    between atoms: O1_2  and  C2_3 
REMARK    2  A    between atoms: C2_3  and  C3_4 
REMARK    3  A    between atoms: C3_4  and  C4_5 
REMARK    4  A    between atoms: C5_6  and  O2_7 
REMARK    5  A    between atoms: C8_10  and  C9_11 
REMARK    6  A    between atoms: C9_11  and  N3_15 
REMARK    7  A    between atoms: N1_12  and  C10_13 
REMARK    8  A    between atoms: N3_15  and  C11_16 
REMARK    9  A    between atoms: C14_19  and  O3_20 
REMARK   10  A    between atoms: C16_22  and  O4_23 
ROOT
HETATM    1  C9  UNL     1      24.735   3.960  50.615  1.00  0.00     0.140 C 
HETATM    2  N1  UNL     1      24.045   4.928  51.095  1.00  0.00    -0.224 NA
ENDROOT
BRANCH   1   3
HETATM    3  C8  UNL     1      25.053   2.689  51.222  1.00  0.00     0.022 A 
HETATM    4  C4  UNL     1      24.457   1.480  51.750  1.00  0.00    -0.009 A 
HETATM    5  C5  UNL     1      25.661   0.973  52.074  1.00  0.00     0.076 A 
HETATM    6  C7  UNL     1      26.238   2.200  51.534  1.00  0.00     0.053 A 
BRANCH   4   7
HETATM    7  C3  UNL     1      23.107   0.941  51.915  1.00  0.00     0.068 C 
BRANCH   7   8
HETATM    8  C2  UNL     1      22.717   0.600  53.330  1.00  0.00     0.171 C 
BRANCH   8   9
HETATM    9  O1  UNL     1      22.807  -0.781  53.552  1.00  0.00    -0.396 OA
HETATM   10  C1  UNL     1      22.431  -1.115  54.851  1.00  0.00     0.201 C 
ENDBRANCH   8   9
ENDBRANCH   7   8
ENDBRANCH   4   7
BRANCH   5  11
HETATM   11  O2  UNL     1      26.042  -0.243  52.679  1.00  0.00    -0.355 OA
HETATM   12  C6  UNL     1      26.508  -0.289  54.020  1.00  0.00     0.210 C 
ENDBRANCH   5  11
ENDBRANCH   1   3
BRANCH   1  13
HETATM   13  N3  UNL     1      25.149   4.319  49.327  1.00  0.00    -0.340 N 
HETATM   14  H14 UNL     1      24.606   3.955  48.496  1.00  0.00     0.167 HD
BRANCH  13  15
HETATM   15  C11 UNL     1      26.252   5.161  49.030  1.00  0.00     0.036 A 
HETATM   16  C12 UNL     1      27.493   4.629  48.693  1.00  0.00     0.032 A 
HETATM   17  C13 UNL     1      28.601   5.381  48.386  1.00  0.00     0.042 A 
HETATM   18  C14 UNL     1      28.519   6.748  48.400  1.00  0.00     0.101 A 
HETATM   19  C16 UNL     1      27.317   7.340  48.727  1.00  0.00     0.103 A 
HETATM   20  C18 UNL     1      26.242   6.536  49.025  1.00  0.00     0.069 A 
BRANCH  18  21
HETATM   21  O3  UNL     1      29.624   7.526  48.094  1.00  0.00    -0.353 OA
HETATM   22  C15 UNL     1      30.802   7.307  48.823  1.00  0.00     0.210 C 
ENDBRANCH  18  21
BRANCH  19  23
HETATM   23  O4  UNL     1      27.277   8.712  48.731  1.00  0.00    -0.353 OA
HETATM   24  C17 UNL     1      27.356   9.404  49.949  1.00  0.00     0.210 C 
ENDBRANCH  19  23
ENDBRANCH  13  15
ENDBRANCH   1  13
BRANCH   2  25
HETATM   25  C10 UNL     1      23.484   4.825  52.375  1.00  0.00     0.225 C 
HETATM   26  N2  UNL     1      23.958   5.270  53.498  1.00  0.00    -0.293 NA
HETATM   27  H13 UNL     1      24.856   5.782  53.590  1.00  0.00     0.187 HD
ENDBRANCH   2  25
TORSDOF 10
ENDMDL
MODEL 9
REMARK VINA RESULT:      -6.3      2.321      7.472
REMARK  10 active torsions:
REMARK  status: ('A' for Active; 'I' for Inactive)
REMARK    1  A    between atoms: O1_2  and  C2_3 
REMARK    2  A    between atoms: C2_3  and  C3_4 
REMARK    3  A    between atoms: C3_4  and  C4_5 
REMARK    4  A    between atoms: C5_6  and  O2_7 
REMARK    5  A    between atoms: C8_10  and  C9_11 
REMARK    6  A    between atoms: C9_11  and  N3_15 
REMARK    7  A    between atoms: N1_12  and  C10_13 
REMARK    8  A    between atoms: N3_15  and  C11_16 
REMARK    9  A    between atoms: C14_19  and  O3_20 
REMARK   10  A    between atoms: C16_22  and  O4_23 
ROOT
HETATM    1  C9  UNL     1      25.095   3.848  50.556  1.00  0.00     0.140 C 
HETATM    2  N1  UNL     1      26.369   3.746  50.461  1.00  0.00    -0.224 NA
ENDROOT
BRANCH   1   3
HETATM    3  C8  UNL     1      24.125   4.067  49.509  1.00  0.00     0.022 A 
HETATM    4  C4  UNL     1      23.576   5.085  48.638  1.00  0.00    -0.009 A 
HETATM    5  C5  UNL     1      22.720   4.208  48.079  1.00  0.00     0.076 A 
HETATM    6  C7  UNL     1      23.292   3.200  48.965  1.00  0.00     0.053 A 
BRANCH   4   7
HETATM    7  C3  UNL     1      23.790   6.511  48.397  1.00  0.00     0.068 C 
BRANCH   7   8
HETATM    8  C2  UNL     1      24.667   7.211  49.403  1.00  0.00     0.171 C 
BRANCH   8   9
HETATM    9  O1  UNL     1      25.998   7.244  48.965  1.00  0.00    -0.396 OA
HETATM   10  C1  UNL     1      26.741   8.195  49.661  1.00  0.00     0.201 C 
ENDBRANCH   8   9
ENDBRANCH   7   8
ENDBRANCH   4   7
BRANCH   5  11
HETATM   11  O2  UNL     1      21.743   4.355  47.073  1.00  0.00    -0.355 OA
HETATM   12  C6  UNL     1      21.870   3.704  45.816  1.00  0.00     0.210 C 
ENDBRANCH   5  11
ENDBRANCH   1   3
BRANCH   1  13
HETATM   13  N3  UNL     1      24.745   3.686  51.903  1.00  0.00    -0.340 N 
HETATM   14  H14 UNL     1      24.315   4.500  52.420  1.00  0.00     0.167 HD
BRANCH  13  15
HETATM   15  C11 UNL     1      24.910   2.490  52.649  1.00  0.00     0.036 A 
HETATM   16  C12 UNL     1      23.991   1.450  52.554  1.00  0.00     0.032 A 
HETATM   17  C13 UNL     1      24.089   0.263  53.238  1.00  0.00     0.042 A 
HETATM   18  C14 UNL     1      25.150   0.050  54.078  1.00  0.00     0.101 A 
HETATM   19  C16 UNL     1      26.098   1.042  54.218  1.00  0.00     0.103 A 
HETATM   20  C18 UNL     1      25.946   2.209  53.508  1.00  0.00     0.069 A 
BRANCH  18  21
HETATM   21  O3  UNL     1      25.270  -1.140  54.778  1.00  0.00    -0.353 OA
HETATM   22  C15 UNL     1      24.245  -1.480  55.674  1.00  0.00     0.210 C 
ENDBRANCH  18  21
BRANCH  19  23
HETATM   23  O4  UNL     1      27.145   0.790  55.071  1.00  0.00    -0.353 OA
HETATM   24  C17 UNL     1      28.410   0.486  54.544  1.00  0.00     0.210 C 
ENDBRANCH  19  23
ENDBRANCH  13  15
ENDBRANCH   1  13
BRANCH   2  25
HETATM   25  C10 UNL     1      26.991   3.848  49.210  1.00  0.00     0.225 C 
HETATM   26  N2  UNL     1      27.820   4.756  48.796  1.00  0.00    -0.293 NA
HETATM   27  H13 UNL     1      28.139   5.560  49.371  1.00  0.00     0.187 HD
ENDBRANCH   2  25
TORSDOF 10
ENDMDL
