MODEL 1
REMARK VINA RESULT:      -7.6      0.000      0.000
REMARK  6 active torsions:
REMARK  status: ('A' for Active; 'I' for Inactive)
REMARK    1  A    between atoms: O1_1  and  C1_2 
REMARK    2  A    between atoms: C5_6  and  N1_7 
REMARK    3  A    between atoms: N1_7  and  C6_8 
REMARK    4  A    between atoms: C15_20  and  O2_21 
REMARK    5  A    between atoms: O2_21  and  C16_22 
REMARK    6  A    between atoms: C16_22  and  C17_23 
ROOT
HETATM    1  C1  UNL     1      25.502  -0.303  53.898  1.00  0.00     0.096 A 
HETATM    2  C2  UNL     1      24.617   0.527  53.341  1.00  0.00     0.027 A 
HETATM    3  C3  UNL     1      24.823   1.491  52.249  1.00  0.00     0.089 A 
HETATM    4  C4  UNL     1      24.308   2.831  52.479  1.00  0.00     0.038 C 
HETATM    5  C5  UNL     1      24.465   3.855  51.653  1.00  0.00     0.126 C 
HETATM    6  N2  UNL     1      25.138   3.915  50.395  1.00  0.00    -0.225 NA
HETATM    7  C12 UNL     1      26.158   3.153  50.084  1.00  0.00     0.235 C 
HETATM    8  N3  UNL     1      26.794   2.142  50.896  1.00  0.00    -0.245 NA
HETATM    9  C13 UNL     1      26.246   1.409  51.836  1.00  0.00     0.050 A 
HETATM   10  C14 UNL     1      27.266   0.526  52.396  1.00  0.00     0.068 A 
HETATM   11  C15 UNL     1      26.868  -0.272  53.377  1.00  0.00     0.103 A 
ENDROOT
BRANCH   5  12
HETATM   12  N1  UNL     1      23.805   4.988  52.259  1.00  0.00    -0.341 N 
HETATM   13  H5  UNL     1      23.763   4.951  53.301  1.00  0.00     0.167 HD
BRANCH  12  14
HETATM   14  C6  UNL     1      23.270   6.043  51.470  1.00  0.00     0.033 A 
HETATM   15  C7  UNL     1      24.101   7.074  51.120  1.00  0.00     0.031 A 
HETATM   16  C8  UNL     1      23.542   8.075  50.354  1.00  0.00     0.021 A 
HETATM   17  C9  UNL     1      22.210   8.061  49.949  1.00  0.00     0.011 A 
HETATM   18 BR1  UNL     1      21.459   9.458  48.892  1.00  0.00    -0.051 Br
HETATM   19  C10 UNL     1      21.452   6.988  50.348  1.00  0.00     0.021 A 
HETATM   20  C11 UNL     1      21.940   5.933  51.122  1.00  0.00     0.031 A 
ENDBRANCH  12  14
ENDBRANCH   5  12
BRANCH   1  21
HETATM   21  O1  UNL     1      25.162  -1.181  54.947  1.00  0.00    -0.358 OA
HETATM   22  H1  UNL     1      24.887  -2.117  54.673  1.00  0.00     0.217 HD
ENDBRANCH   1  21
BRANCH  11  23
HETATM   23  O2  UNL     1      27.773  -1.144  53.969  1.00  0.00    -0.346 OA
BRANCH  23  24
HETATM   24  C16 UNL     1      28.886  -1.649  53.239  1.00  0.00     0.207 C 
BRANCH  24  25
HETATM   25  C17 UNL     1      30.152  -1.135  53.909  1.00  0.00     0.248 C 
HETATM   26  F1  UNL     1      30.325   0.186  53.519  1.00  0.00    -0.253 F 
ENDBRANCH  24  25
ENDBRANCH  23  24
ENDBRANCH  11  23
TORSDOF 6
ENDMDL
MODEL 2
REMARK VINA RESULT:      -7.6      5.618      7.022
REMARK  6 active torsions:
REMARK  status: ('A' for Active; 'I' for Inactive)
REMARK    1  A    between atoms: O1_1  and  C1_2 
REMARK    2  A    between atoms: C5_6  and  N1_7 
REMARK    3  A    between atoms: N1_7  and  C6_8 
REMARK    4  A    between atoms: C15_20  and  O2_21 
REMARK    5  A    between atoms: O2_21  and  C16_22 
REMARK    6  A    between atoms: C16_22  and  C17_23 
ROOT
HETATM    1  C1  UNL     1      25.232  -0.247  54.612  1.00  0.00     0.096 A 
HETATM    2  C2  UNL     1      24.093  -0.879  54.318  1.00  0.00     0.027 A 
HETATM    3  C3  UNL     1      23.102  -0.552  53.282  1.00  0.00     0.089 A 
HETATM    4  C4  UNL     1      21.714  -0.530  53.715  1.00  0.00     0.038 C 
HETATM    5  C5  UNL     1      20.688  -0.180  52.952  1.00  0.00     0.126 C 
HETATM    6  N2  UNL     1      20.670   0.242  51.588  1.00  0.00    -0.225 NA
HETATM    7  C12 UNL     1      21.666   0.870  51.012  1.00  0.00     0.235 C 
HETATM    8  N3  UNL     1      22.931   1.254  51.594  1.00  0.00    -0.245 NA
HETATM    9  C13 UNL     1      23.575   0.664  52.572  1.00  0.00     0.050 A 
HETATM   10  C14 UNL     1      24.807   1.402  52.836  1.00  0.00     0.068 A 
HETATM   11  C15 UNL     1      25.565   0.935  53.818  1.00  0.00     0.103 A 
ENDROOT
BRANCH   5  12
HETATM   12  N1  UNL     1      19.501  -0.298  53.766  1.00  0.00    -0.341 N 
HETATM   13  H5  UNL     1      19.519   0.282  54.633  1.00  0.00     0.167 HD
BRANCH  12  14
HETATM   14  C6  UNL     1      18.422  -1.141  53.385  1.00  0.00     0.033 A 
HETATM   15  C7  UNL     1      17.454  -0.624  52.567  1.00  0.00     0.031 A 
HETATM   16  C8  UNL     1      16.426  -1.476  52.222  1.00  0.00     0.021 A 
HETATM   17  C9  UNL     1      16.356  -2.793  52.669  1.00  0.00     0.011 A 
HETATM   18 BR1  UNL     1      14.924  -3.952  52.179  1.00  0.00    -0.051 Br
HETATM   19  C10 UNL     1      17.371  -3.226  53.487  1.00  0.00     0.021 A 
HETATM   20  C11 UNL     1      18.446  -2.428  53.883  1.00  0.00     0.031 A 
ENDBRANCH  12  14
ENDBRANCH   5  12
BRANCH   1  21
HETATM   21  O1  UNL     1      26.094  -0.676  55.642  1.00  0.00    -0.358 OA
HETATM   22  H1  UNL     1      25.676  -1.259  56.358  1.00  0.00     0.217 HD
ENDBRANCH   1  21
BRANCH  11  23
HETATM   23  O2  UNL     1      26.755   1.577  54.138  1.00  0.00    -0.346 OA
BRANCH  23  24
HETATM   24  C16 UNL     1      27.819   1.659  53.195  1.00  0.00     0.207 C 
BRANCH  24  25
HETATM   25  C17 UNL     1      28.937   0.747  53.677  1.00  0.00     0.248 C 
HETATM   26  F1  UNL     1      28.861   0.686  55.062  1.00  0.00    -0.253 F 
ENDBRANCH  24  25
ENDBRANCH  23  24
ENDBRANCH  11  23
TORSDOF 6
ENDMDL
MODEL 3
REMARK VINA RESULT:      -7.5      4.256      5.229
REMARK  6 active torsions:
REMARK  status: ('A' for Active; 'I' for Inactive)
REMARK    1  A    between atoms: O1_1  and  C1_2 
REMARK    2  A    between atoms: C5_6  and  N1_7 
REMARK    3  A    between atoms: N1_7  and  C6_8 
REMARK    4  A    between atoms: C15_20  and  O2_21 
REMARK    5  A    between atoms: O2_21  and  C16_22 
REMARK    6  A    between atoms: C16_22  and  C17_23 
ROOT
HETATM    1  C1  UNL     1      26.510   1.977  52.398  1.00  0.00     0.096 A 
HETATM    2  C2  UNL     1      25.195   2.204  52.377  1.00  0.00     0.027 A 
HETATM    3  C3  UNL     1      24.111   1.380  52.934  1.00  0.00     0.089 A 
HETATM    4  C4  UNL     1      22.987   1.126  52.047  1.00  0.00     0.038 C 
HETATM    5  C5  UNL     1      21.957   0.344  52.335  1.00  0.00     0.126 C 
HETATM    6  N2  UNL     1      21.689  -0.410  53.518  1.00  0.00    -0.225 NA
HETATM    7  C12 UNL     1      22.628  -0.898  54.293  1.00  0.00     0.235 C 
HETATM    8  N3  UNL     1      24.059  -0.787  54.133  1.00  0.00    -0.245 NA
HETATM    9  C13 UNL     1      24.728   0.180  53.553  1.00  0.00     0.050 A 
HETATM   10  C14 UNL     1      26.154  -0.131  53.617  1.00  0.00     0.068 A 
HETATM   11  C15 UNL     1      26.967   0.751  53.053  1.00  0.00     0.103 A 
ENDROOT
BRANCH   5  12
HETATM   12  N1  UNL     1      21.078   0.369  51.190  1.00  0.00    -0.341 N 
HETATM   13  H5  UNL     1      21.504  -0.006  50.316  1.00  0.00     0.167 HD
BRANCH  12  14
HETATM   14  C6  UNL     1      19.751   0.871  51.285  1.00  0.00     0.033 A 
HETATM   15  C7  UNL     1      18.723  -0.030  51.370  1.00  0.00     0.031 A 
HETATM   16  C8  UNL     1      17.453   0.499  51.462  1.00  0.00     0.021 A 
HETATM   17  C9  UNL     1      17.205   1.870  51.468  1.00  0.00     0.011 A 
HETATM   18 BR1  UNL     1      15.441   2.578  51.595  1.00  0.00    -0.051 Br
HETATM   19  C10 UNL     1      18.297   2.698  51.379  1.00  0.00     0.021 A 
HETATM   20  C11 UNL     1      19.614   2.244  51.284  1.00  0.00     0.031 A 
ENDBRANCH  12  14
ENDBRANCH   5  12
BRANCH   1  21
HETATM   21  O1  UNL     1      27.443   2.862  51.820  1.00  0.00    -0.358 OA
HETATM   22  H1  UNL     1      27.054   3.657  51.327  1.00  0.00     0.217 HD
ENDBRANCH   1  21
BRANCH  11  23
HETATM   23  O2  UNL     1      28.339   0.534  53.066  1.00  0.00    -0.346 OA
BRANCH  23  24
HETATM   24  C16 UNL     1      28.988   0.022  54.225  1.00  0.00     0.207 C 
BRANCH  24  25
HETATM   25  C17 UNL     1      29.992  -1.026  53.770  1.00  0.00     0.248 C 
HETATM   26  F1  UNL     1      29.300  -1.976  53.030  1.00  0.00    -0.253 F 
ENDBRANCH  24  25
ENDBRANCH  23  24
ENDBRANCH  11  23
TORSDOF 6
ENDMDL
MODEL 4
REMARK VINA RESULT:      -7.4      4.928      7.986
REMARK  6 active torsions:
REMARK  status: ('A' for Active; 'I' for Inactive)
REMARK    1  A    between atoms: O1_1  and  C1_2 
REMARK    2  A    between atoms: C5_6  and  N1_7 
REMARK    3  A    between atoms: N1_7  and  C6_8 
REMARK    4  A    between atoms: C15_20  and  O2_21 
REMARK    5  A    between atoms: O2_21  and  C16_22 
REMARK    6  A    between atoms: C16_22  and  C17_23 
ROOT
HETATM    1  C1  UNL     1      26.943   5.466  48.898  1.00  0.00     0.096 A 
HETATM    2  C2  UNL     1      26.784   4.223  49.357  1.00  0.00     0.027 A 
HETATM    3  C3  UNL     1      25.535   3.480  49.584  1.00  0.00     0.089 A 
HETATM    4  C4  UNL     1      25.419   2.812  50.871  1.00  0.00     0.038 C 
HETATM    5  C5  UNL     1      24.343   2.163  51.293  1.00  0.00     0.126 C 
HETATM    6  N2  UNL     1      23.089   1.958  50.640  1.00  0.00    -0.225 NA
HETATM    7  C12 UNL     1      22.580   2.797  49.772  1.00  0.00     0.235 C 
HETATM    8  N3  UNL     1      23.139   4.046  49.308  1.00  0.00    -0.245 NA
HETATM    9  C13 UNL     1      24.406   4.370  49.216  1.00  0.00     0.050 A 
HETATM   10  C14 UNL     1      24.505   5.736  48.705  1.00  0.00     0.068 A 
HETATM   11  C15 UNL     1      25.732   6.218  48.571  1.00  0.00     0.103 A 
ENDROOT
BRANCH   5  12
HETATM   12  N1  UNL     1      24.649   1.657  52.610  1.00  0.00    -0.341 N 
HETATM   13  H5  UNL     1      23.901   1.827  53.317  1.00  0.00     0.167 HD
BRANCH  12  14
HETATM   14  C6  UNL     1      25.874   0.989  52.881  1.00  0.00     0.033 A 
HETATM   15  C7  UNL     1      26.070  -0.251  52.334  1.00  0.00     0.031 A 
HETATM   16  C8  UNL     1      27.272  -0.862  52.622  1.00  0.00     0.021 A 
HETATM   17  C9  UNL     1      28.246  -0.272  53.424  1.00  0.00     0.011 A 
HETATM   18 BR1  UNL     1      29.900  -1.137  53.809  1.00  0.00    -0.051 Br
HETATM   19  C10 UNL     1      27.962   0.972  53.930  1.00  0.00     0.021 A 
HETATM   20  C11 UNL     1      26.771   1.660  53.686  1.00  0.00     0.031 A 
ENDBRANCH  12  14
ENDBRANCH   5  12
BRANCH   1  21
HETATM   21  O1  UNL     1      28.212   6.056  48.728  1.00  0.00    -0.358 OA
HETATM   22  H1  UNL     1      28.796   5.655  48.004  1.00  0.00     0.217 HD
ENDBRANCH   1  21
BRANCH  11  23
HETATM   23  O2  UNL     1      25.919   7.509  48.093  1.00  0.00    -0.346 OA
BRANCH  23  24
HETATM   24  C16 UNL     1      25.492   8.638  48.849  1.00  0.00     0.207 C 
BRANCH  24  25
HETATM   25  C17 UNL     1      26.702   9.181  49.594  1.00  0.00     0.248 C 
HETATM   26  F1  UNL     1      26.890   8.390  50.721  1.00  0.00    -0.253 F 
ENDBRANCH  24  25
ENDBRANCH  23  24
ENDBRANCH  11  23
TORSDOF 6
ENDMDL
MODEL 5
REMARK VINA RESULT:      -7.4      6.310      8.980
REMARK  6 active torsions:
REMARK  status: ('A' for Active; 'I' for Inactive)
REMARK    1  A    between atoms: O1_1  and  C1_2 
REMARK    2  A    between atoms: C5_6  and  N1_7 
REMARK    3  A    between atoms: N1_7  and  C6_8 
REMARK    4  A    between atoms: C15_20  and  O2_21 
REMARK    5  A    between atoms: O2_21  and  C16_22 
REMARK    6  A    between atoms: C16_22  and  C17_23 
ROOT
HETATM    1  C1  UNL     1      19.650   1.307  49.808  1.00  0.00     0.096 A 
HETATM    2  C2  UNL     1      20.890   0.913  50.107  1.00  0.00     0.027 A 
HETATM    3  C3  UNL     1      21.377   0.267  51.335  1.00  0.00     0.089 A 
HETATM    4  C4  UNL     1      22.578   0.840  51.921  1.00  0.00     0.038 C 
HETATM    5  C5  UNL     1      23.123   0.451  53.064  1.00  0.00     0.126 C 
HETATM    6  N2  UNL     1      22.705  -0.571  53.971  1.00  0.00    -0.225 NA
HETATM    7  C12 UNL     1      21.455  -0.932  54.126  1.00  0.00     0.235 C 
HETATM    8  N3  UNL     1      20.288  -0.409  53.455  1.00  0.00    -0.245 NA
HETATM    9  C13 UNL     1      20.222   0.114  52.254  1.00  0.00     0.050 A 
HETATM   10  C14 UNL     1      18.842   0.516  51.993  1.00  0.00     0.068 A 
HETATM   11  C15 UNL     1      18.615   1.082  50.816  1.00  0.00     0.103 A 
ENDROOT
BRANCH   5  12
HETATM   12  N1  UNL     1      24.291   1.275  53.275  1.00  0.00    -0.341 N 
HETATM   13  H5  UNL     1      24.087   2.296  53.341  1.00  0.00     0.167 HD
BRANCH  12  14
HETATM   14  C6  UNL     1      25.590   0.707  53.377  1.00  0.00     0.033 A 
HETATM   15  C7  UNL     1      26.335   0.992  54.490  1.00  0.00     0.031 A 
HETATM   16  C8  UNL     1      27.588   0.419  54.549  1.00  0.00     0.021 A 
HETATM   17  C9  UNL     1      28.089  -0.405  53.544  1.00  0.00     0.011 A 
HETATM   18 BR1  UNL     1      29.826  -1.183  53.647  1.00  0.00    -0.051 Br
HETATM   19  C10 UNL     1      27.272  -0.634  52.465  1.00  0.00     0.021 A 
HETATM   20  C11 UNL     1      25.991  -0.095  52.328  1.00  0.00     0.031 A 
ENDBRANCH  12  14
ENDBRANCH   5  12
BRANCH   1  21
HETATM   21  O1  UNL     1      19.324   1.919  48.580  1.00  0.00    -0.358 OA
HETATM   22  H1  UNL     1      19.388   1.330  47.758  1.00  0.00     0.217 HD
ENDBRANCH   1  21
BRANCH  11  23
HETATM   23  O2  UNL     1      17.332   1.496  50.484  1.00  0.00    -0.346 OA
BRANCH  23  24
HETATM   24  C16 UNL     1      16.470   2.066  51.464  1.00  0.00     0.207 C 
BRANCH  24  25
HETATM   25  C17 UNL     1      16.738   3.563  51.505  1.00  0.00     0.248 C 
HETATM   26  F1  UNL     1      16.045   4.084  52.590  1.00  0.00    -0.253 F 
ENDBRANCH  24  25
ENDBRANCH  23  24
ENDBRANCH  11  23
TORSDOF 6
ENDMDL
MODEL 6
REMARK VINA RESULT:      -7.3      2.445      3.007
REMARK  6 active torsions:
REMARK  status: ('A' for Active; 'I' for Inactive)
REMARK    1  A    between atoms: O1_1  and  C1_2 
REMARK    2  A    between atoms: C5_6  and  N1_7 
REMARK    3  A    between atoms: N1_7  and  C6_8 
REMARK    4  A    between atoms: C15_20  and  O2_21 
REMARK    5  A    between atoms: O2_21  and  C16_22 
REMARK    6  A    between atoms: C16_22  and  C17_23 
ROOT
HETATM    1  C1  UNL     1      26.441   1.767  53.799  1.00  0.00     0.096 A 
HETATM    2  C2  UNL     1      25.321   2.332  53.341  1.00  0.00     0.027 A 
HETATM    3  C3  UNL     1      24.034   1.694  53.025  1.00  0.00     0.089 A 
HETATM    4  C4  UNL     1      23.451   2.043  51.739  1.00  0.00     0.038 C 
HETATM    5  C5  UNL     1      22.342   1.514  51.242  1.00  0.00     0.126 C 
HETATM    6  N2  UNL     1      21.476   0.524  51.798  1.00  0.00    -0.225 NA
HETATM    7  C12 UNL     1      21.884  -0.415  52.617  1.00  0.00     0.235 C 
HETATM    8  N3  UNL     1      23.221  -0.645  53.112  1.00  0.00    -0.245 NA
HETATM    9  C13 UNL     1      24.170   0.241  53.298  1.00  0.00     0.050 A 
HETATM   10  C14 UNL     1      25.358  -0.442  53.803  1.00  0.00     0.068 A 
HETATM   11  C15 UNL     1      26.417   0.323  54.026  1.00  0.00     0.103 A 
ENDROOT
BRANCH   5  12
HETATM   12  N1  UNL     1      22.122   2.134  49.956  1.00  0.00    -0.341 N 
HETATM   13  H5  UNL     1      21.836   1.469  49.205  1.00  0.00     0.167 HD
BRANCH  12  14
HETATM   14  C6  UNL     1      22.291   3.533  49.769  1.00  0.00     0.033 A 
HETATM   15  C7  UNL     1      23.300   3.958  48.946  1.00  0.00     0.031 A 
HETATM   16  C8  UNL     1      23.428   5.323  48.792  1.00  0.00     0.021 A 
HETATM   17  C9  UNL     1      22.590   6.236  49.428  1.00  0.00     0.011 A 
HETATM   18 BR1  UNL     1      22.787   8.117  49.200  1.00  0.00    -0.051 Br
HETATM   19  C10 UNL     1      21.606   5.718  50.235  1.00  0.00     0.021 A 
HETATM   20  C11 UNL     1      21.409   4.352  50.443  1.00  0.00     0.031 A 
ENDBRANCH  12  14
ENDBRANCH   5  12
BRANCH   1  21
HETATM   21  O1  UNL     1      27.612   2.508  54.061  1.00  0.00    -0.358 OA
HETATM   22  H1  UNL     1      27.476   3.479  54.316  1.00  0.00     0.217 HD
ENDBRANCH   1  21
BRANCH  11  23
HETATM   23  O2  UNL     1      27.591  -0.245  54.506  1.00  0.00    -0.346 OA
BRANCH  23  24
HETATM   24  C16 UNL     1      28.466  -0.959  53.639  1.00  0.00     0.207 C 
BRANCH  24  25
HETATM   25  C17 UNL     1      29.836  -0.302  53.718  1.00  0.00     0.248 C 
HETATM   26  F1  UNL     1      30.760  -1.293  54.021  1.00  0.00    -0.253 F 
ENDBRANCH  24  25
ENDBRANCH  23  24
ENDBRANCH  11  23
TORSDOF 6
ENDMDL
MODEL 7
REMARK VINA RESULT:      -7.1      4.696      7.877
REMARK  6 active torsions:
REMARK  status: ('A' for Active; 'I' for Inactive)
REMARK    1  A    between atoms: O1_1  and  C1_2 
REMARK    2  A    between atoms: C5_6  and  N1_7 
REMARK    3  A    between atoms: N1_7  and  C6_8 
REMARK    4  A    between atoms: C15_20  and  O2_21 
REMARK    5  A    between atoms: O2_21  and  C16_22 
REMARK    6  A    between atoms: C16_22  and  C17_23 
ROOT
HETATM    1  C1  UNL     1      25.845   4.270  50.084  1.00  0.00     0.096 A 
HETATM    2  C2  UNL     1      25.490   3.003  50.310  1.00  0.00     0.027 A 
HETATM    3  C3  UNL     1      24.256   2.490  50.925  1.00  0.00     0.089 A 
HETATM    4  C4  UNL     1      24.434   1.490  51.966  1.00  0.00     0.038 C 
HETATM    5  C5  UNL     1      23.455   0.970  52.691  1.00  0.00     0.126 C 
HETATM    6  N2  UNL     1      22.051   1.232  52.649  1.00  0.00    -0.225 NA
HETATM    7  C12 UNL     1      21.542   2.385  52.289  1.00  0.00     0.235 C 
HETATM    8  N3  UNL     1      22.245   3.579  51.879  1.00  0.00    -0.245 NA
HETATM    9  C13 UNL     1      23.414   3.657  51.290  1.00  0.00     0.050 A 
HETATM   10  C14 UNL     1      23.735   5.065  51.070  1.00  0.00     0.068 A 
HETATM   11  C15 UNL     1      24.904   5.311  50.494  1.00  0.00     0.103 A 
ENDROOT
BRANCH   5  12
HETATM   12  N1  UNL     1      24.061   0.025  53.600  1.00  0.00    -0.341 N 
HETATM   13  H5  UNL     1      23.381  -0.481  54.207  1.00  0.00     0.167 HD
BRANCH  12  14
HETATM   14  C6  UNL     1      25.469  -0.169  53.636  1.00  0.00     0.033 A 
HETATM   15  C7  UNL     1      26.200   0.556  54.539  1.00  0.00     0.031 A 
HETATM   16  C8  UNL     1      27.561   0.336  54.540  1.00  0.00     0.021 A 
HETATM   17  C9  UNL     1      28.180  -0.567  53.680  1.00  0.00     0.011 A 
HETATM   18 BR1  UNL     1      30.064  -0.854  53.700  1.00  0.00    -0.051 Br
HETATM   19  C10 UNL     1      27.368  -1.250  52.808  1.00  0.00     0.021 A 
HETATM   20  C11 UNL     1      25.983  -1.086  52.743  1.00  0.00     0.031 A 
ENDBRANCH  12  14
ENDBRANCH   5  12
BRANCH   1  21
HETATM   21  O1  UNL     1      27.069   4.618  49.479  1.00  0.00    -0.358 OA
HETATM   22  H1  UNL     1      27.009   5.226  48.671  1.00  0.00     0.217 HD
ENDBRANCH   1  21
BRANCH  11  23
HETATM   23  O2  UNL     1      25.290   6.622  50.248  1.00  0.00    -0.346 OA
BRANCH  23  24
HETATM   24  C16 UNL     1      24.823   7.320  49.098  1.00  0.00     0.207 C 
BRANCH  24  25
HETATM   25  C17 UNL     1      23.801   8.348  49.562  1.00  0.00     0.248 C 
HETATM   26  F1  UNL     1      23.893   8.434  50.946  1.00  0.00    -0.253 F 
ENDBRANCH  24  25
ENDBRANCH  23  24
ENDBRANCH  11  23
TORSDOF 6
ENDMDL
MODEL 8
REMARK VINA RESULT:      -7.1      3.429      4.274
REMARK  6 active torsions:
REMARK  status: ('A' for Active; 'I' for Inactive)
REMARK    1  A    between atoms: O1_1  and  C1_2 
REMARK    2  A    between atoms: C5_6  and  N1_7 
REMARK    3  A    between atoms: N1_7  and  C6_8 
REMARK    4  A    between atoms: C15_20  and  O2_21 
REMARK    5  A    between atoms: O2_21  and  C16_22 
REMARK    6  A    between atoms: C16_22  and  C17_23 
ROOT
HETATM    1  C1  UNL     1      26.207   1.851  52.406  1.00  0.00     0.096 A 
HETATM    2  C2  UNL     1      24.998   2.342  52.691  1.00  0.00     0.027 A 
HETATM    3  C3  UNL     1      23.819   1.633  53.210  1.00  0.00     0.089 A 
HETATM    4  C4  UNL     1      22.567   1.889  52.514  1.00  0.00     0.038 C 
HETATM    5  C5  UNL     1      21.417   1.287  52.780  1.00  0.00     0.126 C 
HETATM    6  N2  UNL     1      21.114   0.291  53.757  1.00  0.00    -0.225 NA
HETATM    7  C12 UNL     1      21.988  -0.585  54.191  1.00  0.00     0.235 C 
HETATM    8  N3  UNL     1      23.370  -0.731  53.799  1.00  0.00    -0.245 NA
HETATM    9  C13 UNL     1      24.185   0.204  53.373  1.00  0.00     0.050 A 
HETATM   10  C14 UNL     1      25.484  -0.400  53.086  1.00  0.00     0.068 A 
HETATM   11  C15 UNL     1      26.417   0.421  52.626  1.00  0.00     0.103 A 
ENDROOT
BRANCH   5  12
HETATM   12  N1  UNL     1      20.439   1.829  51.865  1.00  0.00    -0.341 N 
HETATM   13  H5  UNL     1      19.480   1.914  52.266  1.00  0.00     0.167 HD
BRANCH  12  14
HETATM   14  C6  UNL     1      20.792   2.203  50.539  1.00  0.00     0.033 A 
HETATM   15  C7  UNL     1      21.178   1.218  49.671  1.00  0.00     0.031 A 
HETATM   16  C8  UNL     1      21.510   1.624  48.395  1.00  0.00     0.021 A 
HETATM   17  C9  UNL     1      21.464   2.957  47.992  1.00  0.00     0.011 A 
HETATM   18 BR1  UNL     1      21.929   3.494  46.224  1.00  0.00    -0.051 Br
HETATM   19  C10 UNL     1      21.065   3.876  48.931  1.00  0.00     0.021 A 
HETATM   20  C11 UNL     1      20.712   3.548  50.241  1.00  0.00     0.031 A 
ENDBRANCH  12  14
ENDBRANCH   5  12
BRANCH   1  21
HETATM   21  O1  UNL     1      27.254   2.654  51.910  1.00  0.00    -0.358 OA
HETATM   22  H1  UNL     1      27.061   3.647  51.847  1.00  0.00     0.217 HD
ENDBRANCH   1  21
BRANCH  11  23
HETATM   23  O2  UNL     1      27.682  -0.069  52.325  1.00  0.00    -0.346 OA
BRANCH  23  24
HETATM   24  C16 UNL     1      28.363  -0.937  53.225  1.00  0.00     0.207 C 
BRANCH  24  25
HETATM   25  C17 UNL     1      29.162  -0.072  54.189  1.00  0.00     0.248 C 
HETATM   26  F1  UNL     1      28.398   0.091  55.337  1.00  0.00    -0.253 F 
ENDBRANCH  24  25
ENDBRANCH  23  24
ENDBRANCH  11  23
TORSDOF 6
ENDMDL
MODEL 9
REMARK VINA RESULT:      -7.0      5.200      7.458
REMARK  6 active torsions:
REMARK  status: ('A' for Active; 'I' for Inactive)
REMARK    1  A    between atoms: O1_1  and  C1_2 
REMARK    2  A    between atoms: C5_6  and  N1_7 
REMARK    3  A    between atoms: N1_7  and  C6_8 
REMARK    4  A    between atoms: C15_20  and  O2_21 
REMARK    5  A    between atoms: O2_21  and  C16_22 
REMARK    6  A    between atoms: C16_22  and  C17_23 
ROOT
HETATM    1  C1  UNL     1      28.617   5.489  48.271  1.00  0.00     0.096 A 
HETATM    2  C2  UNL     1      27.604   4.780  48.775  1.00  0.00     0.027 A 
HETATM    3  C3  UNL     1      26.198   5.179  48.944  1.00  0.00     0.089 A 
HETATM    4  C4  UNL     1      25.615   4.911  50.248  1.00  0.00     0.038 C 
HETATM    5  C5  UNL     1      24.394   5.267  50.620  1.00  0.00     0.126 C 
HETATM    6  N2  UNL     1      23.386   5.966  49.886  1.00  0.00    -0.225 NA
HETATM    7  C12 UNL     1      23.652   6.837  48.944  1.00  0.00     0.235 C 
HETATM    8  N3  UNL     1      24.946   7.262  48.464  1.00  0.00    -0.245 NA
HETATM    9  C13 UNL     1      26.061   6.573  48.451  1.00  0.00     0.050 A 
HETATM   10  C14 UNL     1      27.121   7.404  47.885  1.00  0.00     0.068 A 
HETATM   11  C15 UNL     1      28.323   6.848  47.820  1.00  0.00     0.103 A 
ENDROOT
BRANCH   5  12
HETATM   12  N1  UNL     1      24.218   4.811  51.978  1.00  0.00    -0.341 N 
HETATM   13  H5  UNL     1      24.427   5.533  52.702  1.00  0.00     0.167 HD
BRANCH  12  14
HETATM   14  C6  UNL     1      23.795   3.485  52.266  1.00  0.00     0.033 A 
HETATM   15  C7  UNL     1      22.555   3.094  51.839  1.00  0.00     0.031 A 
HETATM   16  C8  UNL     1      22.186   1.799  52.139  1.00  0.00     0.021 A 
HETATM   17  C9  UNL     1      23.012   0.921  52.837  1.00  0.00     0.011 A 
HETATM   18 BR1  UNL     1      22.479  -0.863  53.240  1.00  0.00    -0.051 Br
HETATM   19  C10 UNL     1      24.238   1.400  53.226  1.00  0.00     0.021 A 
HETATM   20  C11 UNL     1      24.688   2.696  52.962  1.00  0.00     0.031 A 
ENDBRANCH  12  14
ENDBRANCH   5  12
BRANCH   1  21
HETATM   21  O1  UNL     1      29.926   4.975  48.168  1.00  0.00    -0.358 OA
HETATM   22  H1  UNL     1      30.657   5.533  48.592  1.00  0.00     0.217 HD
ENDBRANCH   1  21
BRANCH  11  23
HETATM   23  O2  UNL     1      29.389   7.568  47.296  1.00  0.00    -0.346 OA
BRANCH  23  24
HETATM   24  C16 UNL     1      29.736   8.846  47.819  1.00  0.00     0.207 C 
BRANCH  24  25
HETATM   25  C17 UNL     1      30.586   8.624  49.061  1.00  0.00     0.248 C 
HETATM   26  F1  UNL     1      30.355   9.689  49.923  1.00  0.00    -0.253 F 
ENDBRANCH  24  25
ENDBRANCH  23  24
ENDBRANCH  11  23
TORSDOF 6
ENDMDL
