MODEL 1
REMARK VINA RESULT:      -8.7      0.000      0.000
REMARK  8 active torsions:
REMARK  status: ('A' for Active; 'I' for Inactive)
REMARK    1  A    between atoms: O1_2  and  C2_3 
REMARK    2  A    between atoms: C7_8  and  O2_9 
REMARK    3  A    between atoms: C9_12  and  O4_13 
REMARK    4  A    between atoms: O4_13  and  C10_14 
REMARK    5  A    between atoms: C13_17  and  N1_18 
REMARK    6  A    between atoms: N1_18  and  C14_19 
REMARK    7  A    between atoms: C14_19  and  N2_20 
REMARK    8  A    between atoms: C17_23  and  O5_24 
ROOT
HETATM    1  C10 UNL     1      26.270   5.403  48.807  1.00  0.00     0.080 A 
HETATM    2  C11 UNL     1      26.893   4.264  49.265  1.00  0.00     0.039 A 
HETATM    3  C12 UNL     1      26.202   3.260  49.902  1.00  0.00     0.032 A 
HETATM    4  C13 UNL     1      24.822   3.349  50.116  1.00  0.00     0.029 A 
HETATM    5  C21 UNL     1      24.246   4.488  49.649  1.00  0.00     0.032 A 
HETATM    6  C22 UNL     1      24.889   5.517  49.007  1.00  0.00     0.039 A 
ENDROOT
BRANCH   1   7
HETATM    7  O4  UNL     1      26.863   6.475  48.154  1.00  0.00    -0.272 OA
BRANCH   7   8
HETATM    8  C9  UNL     1      28.156   6.864  48.379  1.00  0.00     0.299 A 
HETATM    9  O3  UNL     1      29.282   6.048  48.152  1.00  0.00    -0.270 OA
HETATM   10  C5  UNL     1      30.621   6.357  48.358  1.00  0.00     0.111 A 
HETATM   11  C4  UNL     1      31.187   7.527  48.826  1.00  0.00     0.095 A 
HETATM   12  C6  UNL     1      31.378   5.259  48.008  1.00  0.00     0.079 A 
HETATM   13  C3  UNL     1      32.550   7.634  48.961  1.00  0.00     0.074 A 
HETATM   14  N4  UNL     1      30.485   8.716  49.213  1.00  0.00    -0.239 NA
HETATM   15  C2  UNL     1      33.336   6.536  48.613  1.00  0.00     0.103 A 
HETATM   16  C7  UNL     1      32.747   5.371  48.144  1.00  0.00     0.104 A 
HETATM   17  C23 UNL     1      29.201   8.929  49.205  1.00  0.00     0.238 A 
HETATM   18  N3  UNL     1      28.094   8.084  48.823  1.00  0.00    -0.195 NA
BRANCH  15  19
HETATM   19  O1  UNL     1      34.728   6.614  48.738  1.00  0.00    -0.353 OA
HETATM   20  C1  UNL     1      35.338   7.808  48.267  1.00  0.00     0.210 C 
ENDBRANCH  15  19
BRANCH  16  21
HETATM   21  O2  UNL     1      33.591   4.331  47.822  1.00  0.00    -0.353 OA
HETATM   22  C8  UNL     1      33.167   3.206  47.062  1.00  0.00     0.210 C 
ENDBRANCH  16  21
ENDBRANCH   7   8
ENDBRANCH   1   7
BRANCH   4  23
HETATM   23  N1  UNL     1      24.155   2.293  50.783  1.00  0.00    -0.373 N 
HETATM   24  H11 UNL     1      24.018   1.393  50.263  1.00  0.00     0.161 HD
BRANCH  23  25
HETATM   25  C14 UNL     1      23.623   2.296  52.126  1.00  0.00     0.250 C 
BRANCH  25  26
HETATM   26  N2  UNL     1      24.381   1.394  52.938  1.00  0.00    -0.350 N 
HETATM   27  C15 UNL     1      25.541   2.083  53.451  1.00  0.00     0.091 A 
HETATM   28  C16 UNL     1      26.402   1.431  54.252  1.00  0.00     0.026 A 
HETATM   29  C17 UNL     1      26.288   0.031  54.685  1.00  0.00     0.169 A 
HETATM   30  C19 UNL     1      25.070  -0.560  54.099  1.00  0.00     0.026 A 
HETATM   31  C20 UNL     1      24.202   0.035  53.313  1.00  0.00     0.091 A 
BRANCH  29  32
HETATM   32  O5  UNL     1      27.452  -0.624  54.291  1.00  0.00    -0.383 OA
HETATM   33  C18 UNL     1      28.594   0.040  54.731  1.00  0.00     0.202 C 
ENDBRANCH  29  32
ENDBRANCH  25  26
ENDBRANCH  23  25
ENDBRANCH   4  23
TORSDOF 8
ENDMDL
MODEL 2
REMARK VINA RESULT:      -8.6      1.832      9.208
REMARK  8 active torsions:
REMARK  status: ('A' for Active; 'I' for Inactive)
REMARK    1  A    between atoms: O1_2  and  C2_3 
REMARK    2  A    between atoms: C7_8  and  O2_9 
REMARK    3  A    between atoms: C9_12  and  O4_13 
REMARK    4  A    between atoms: O4_13  and  C10_14 
REMARK    5  A    between atoms: C13_17  and  N1_18 
REMARK    6  A    between atoms: N1_18  and  C14_19 
REMARK    7  A    between atoms: C14_19  and  N2_20 
REMARK    8  A    between atoms: C17_23  and  O5_24 
ROOT
HETATM    1  C10 UNL     1      26.082   5.291  49.317  1.00  0.00     0.080 A 
HETATM    2  C11 UNL     1      27.094   4.404  49.027  1.00  0.00     0.039 A 
HETATM    3  C12 UNL     1      28.280   4.809  48.462  1.00  0.00     0.032 A 
HETATM    4  C13 UNL     1      28.517   6.152  48.151  1.00  0.00     0.029 A 
HETATM    5  C21 UNL     1      27.494   6.994  48.453  1.00  0.00     0.032 A 
HETATM    6  C22 UNL     1      26.293   6.642  49.017  1.00  0.00     0.039 A 
ENDROOT
BRANCH   1   7
HETATM    7  O4  UNL     1      24.850   4.997  49.886  1.00  0.00    -0.272 OA
BRANCH   7   8
HETATM    8  C9  UNL     1      24.597   3.831  50.557  1.00  0.00     0.299 A 
HETATM    9  O3  UNL     1      25.389   3.333  51.610  1.00  0.00    -0.270 OA
HETATM   10  C5  UNL     1      25.210   2.163  52.338  1.00  0.00     0.111 A 
HETATM   11  C4  UNL     1      24.222   1.204  52.225  1.00  0.00     0.095 A 
HETATM   12  C6  UNL     1      26.227   2.070  53.266  1.00  0.00     0.079 A 
HETATM   13  C3  UNL     1      24.223   0.105  53.049  1.00  0.00     0.074 A 
HETATM   14  N4  UNL     1      23.130   1.213  51.295  1.00  0.00    -0.239 NA
HETATM   15  C2  UNL     1      25.241  -0.010  53.995  1.00  0.00     0.103 A 
HETATM   16  C7  UNL     1      26.223   0.965  54.093  1.00  0.00     0.104 A 
HETATM   17  C23 UNL     1      22.855   2.106  50.389  1.00  0.00     0.238 A 
HETATM   18  N3  UNL     1      23.521   3.333  50.022  1.00  0.00    -0.195 NA
BRANCH  15  19
HETATM   19  O1  UNL     1      25.268  -1.118  54.851  1.00  0.00    -0.353 OA
HETATM   20  C1  UNL     1      24.107  -1.335  55.641  1.00  0.00     0.210 C 
ENDBRANCH  15  19
BRANCH  16  21
HETATM   21  O2  UNL     1      27.193   0.780  55.052  1.00  0.00    -0.353 OA
HETATM   22  C8  UNL     1      28.501   0.315  54.741  1.00  0.00     0.210 C 
ENDBRANCH  16  21
ENDBRANCH   7   8
ENDBRANCH   1   7
BRANCH   4  23
HETATM   23  N1  UNL     1      29.751   6.520  47.562  1.00  0.00    -0.373 N 
HETATM   24  H11 UNL     1      29.778   6.652  46.523  1.00  0.00     0.161 HD
BRANCH  23  25
HETATM   25  C14 UNL     1      31.013   6.745  48.228  1.00  0.00     0.250 C 
BRANCH  25  26
HETATM   26  N2  UNL     1      31.895   5.652  47.954  1.00  0.00    -0.350 N 
HETATM   27  C15 UNL     1      33.215   5.981  48.437  1.00  0.00     0.091 A 
HETATM   28  C16 UNL     1      34.215   5.094  48.295  1.00  0.00     0.026 A 
HETATM   29  C17 UNL     1      34.110   3.764  47.676  1.00  0.00     0.169 A 
HETATM   30  C19 UNL     1      32.721   3.548  47.226  1.00  0.00     0.026 A 
HETATM   31  C20 UNL     1      31.714   4.383  47.342  1.00  0.00     0.091 A 
BRANCH  29  32
HETATM   32  O5  UNL     1      35.032   3.715  46.634  1.00  0.00    -0.383 OA
HETATM   33  C18 UNL     1      34.495   4.199  45.444  1.00  0.00     0.202 C 
ENDBRANCH  29  32
ENDBRANCH  25  26
ENDBRANCH  23  25
ENDBRANCH   4  23
TORSDOF 8
ENDMDL
MODEL 3
REMARK VINA RESULT:      -8.6      0.980      1.554
REMARK  8 active torsions:
REMARK  status: ('A' for Active; 'I' for Inactive)
REMARK    1  A    between atoms: O1_2  and  C2_3 
REMARK    2  A    between atoms: C7_8  and  O2_9 
REMARK    3  A    between atoms: C9_12  and  O4_13 
REMARK    4  A    between atoms: O4_13  and  C10_14 
REMARK    5  A    between atoms: C13_17  and  N1_18 
REMARK    6  A    between atoms: N1_18  and  C14_19 
REMARK    7  A    between atoms: C14_19  and  N2_20 
REMARK    8  A    between atoms: C17_23  and  O5_24 
ROOT
HETATM    1  C10 UNL     1      26.202   5.555  49.060  1.00  0.00     0.080 A 
HETATM    2  C11 UNL     1      25.146   5.952  49.848  1.00  0.00     0.039 A 
HETATM    3  C12 UNL     1      24.528   5.093  50.726  1.00  0.00     0.032 A 
HETATM    4  C13 UNL     1      24.946   3.765  50.860  1.00  0.00     0.029 A 
HETATM    5  C21 UNL     1      25.990   3.414  50.064  1.00  0.00     0.032 A 
HETATM    6  C22 UNL     1      26.641   4.231  49.174  1.00  0.00     0.039 A 
ENDROOT
BRANCH   1   7
HETATM    7  O4  UNL     1      26.900   6.332  48.144  1.00  0.00    -0.272 OA
BRANCH   7   8
HETATM    8  C9  UNL     1      28.179   6.770  48.358  1.00  0.00     0.299 A 
HETATM    9  O3  UNL     1      29.331   5.982  48.162  1.00  0.00    -0.270 OA
HETATM   10  C5  UNL     1      30.659   6.342  48.359  1.00  0.00     0.111 A 
HETATM   11  C4  UNL     1      31.186   7.546  48.785  1.00  0.00     0.095 A 
HETATM   12  C6  UNL     1      31.452   5.257  48.051  1.00  0.00     0.079 A 
HETATM   13  C3  UNL     1      32.544   7.702  48.919  1.00  0.00     0.074 A 
HETATM   14  N4  UNL     1      30.445   8.725  49.128  1.00  0.00    -0.239 NA
HETATM   15  C2  UNL     1      33.366   6.617  48.612  1.00  0.00     0.103 A 
HETATM   16  C7  UNL     1      32.816   5.418  48.185  1.00  0.00     0.104 A 
HETATM   17  C23 UNL     1      29.155   8.896  49.110  1.00  0.00     0.238 A 
HETATM   18  N3  UNL     1      28.077   8.003  48.757  1.00  0.00    -0.195 NA
BRANCH  15  19
HETATM   19  O1  UNL     1      34.755   6.745  48.737  1.00  0.00    -0.353 OA
HETATM   20  C1  UNL     1      35.324   7.953  48.251  1.00  0.00     0.210 C 
ENDBRANCH  15  19
BRANCH  16  21
HETATM   21  O2  UNL     1      33.693   4.395  47.902  1.00  0.00    -0.353 OA
HETATM   22  C8  UNL     1      33.260   3.083  47.564  1.00  0.00     0.210 C 
ENDBRANCH  16  21
ENDBRANCH   7   8
ENDBRANCH   1   7
BRANCH   4  23
HETATM   23  N1  UNL     1      24.273   2.915  51.772  1.00  0.00    -0.373 N 
HETATM   24  H11 UNL     1      23.393   2.447  51.448  1.00  0.00     0.161 HD
BRANCH  23  25
HETATM   25  C14 UNL     1      24.655   2.599  53.129  1.00  0.00     0.250 C 
BRANCH  25  26
HETATM   26  N2  UNL     1      25.871   1.846  53.117  1.00  0.00    -0.350 N 
HETATM   27  C15 UNL     1      25.591   0.508  52.652  1.00  0.00     0.091 A 
HETATM   28  C16 UNL     1      26.592  -0.384  52.549  1.00  0.00     0.026 A 
HETATM   29  C17 UNL     1      28.005  -0.137  52.872  1.00  0.00     0.169 A 
HETATM   30  C19 UNL     1      28.161   1.256  53.332  1.00  0.00     0.026 A 
HETATM   31  C20 UNL     1      27.216   2.160  53.449  1.00  0.00     0.091 A 
BRANCH  29  32
HETATM   32  O5  UNL     1      28.383  -1.072  53.832  1.00  0.00    -0.383 OA
HETATM   33  C18 UNL     1      29.762  -1.260  53.859  1.00  0.00     0.202 C 
ENDBRANCH  29  32
ENDBRANCH  25  26
ENDBRANCH  23  25
ENDBRANCH   4  23
TORSDOF 8
ENDMDL
MODEL 4
REMARK VINA RESULT:      -8.0      1.686      2.081
REMARK  8 active torsions:
REMARK  status: ('A' for Active; 'I' for Inactive)
REMARK    1  A    between atoms: O1_2  and  C2_3 
REMARK    2  A    between atoms: C7_8  and  O2_9 
REMARK    3  A    between atoms: C9_12  and  O4_13 
REMARK    4  A    between atoms: O4_13  and  C10_14 
REMARK    5  A    between atoms: C13_17  and  N1_18 
REMARK    6  A    between atoms: N1_18  and  C14_19 
REMARK    7  A    between atoms: C14_19  and  N2_20 
REMARK    8  A    between atoms: C17_23  and  O5_24 
ROOT
HETATM    1  C10 UNL     1      26.565   5.871  48.847  1.00  0.00     0.080 A 
HETATM    2  C11 UNL     1      26.995   4.567  48.955  1.00  0.00     0.039 A 
HETATM    3  C12 UNL     1      26.243   3.600  49.579  1.00  0.00     0.032 A 
HETATM    4  C13 UNL     1      24.996   3.897  50.139  1.00  0.00     0.029 A 
HETATM    5  C21 UNL     1      24.609   5.193  50.013  1.00  0.00     0.032 A 
HETATM    6  C22 UNL     1      25.320   6.195  49.399  1.00  0.00     0.039 A 
ENDROOT
BRANCH   1   7
HETATM    7  O4  UNL     1      27.236   6.925  48.242  1.00  0.00    -0.272 OA
BRANCH   7   8
HETATM    8  C9  UNL     1      28.585   7.120  48.364  1.00  0.00     0.299 A 
HETATM    9  O3  UNL     1      29.562   6.189  47.959  1.00  0.00    -0.270 OA
HETATM   10  C5  UNL     1      30.944   6.301  48.051  1.00  0.00     0.111 A 
HETATM   11  C4  UNL     1      31.707   7.340  48.550  1.00  0.00     0.095 A 
HETATM   12  C6  UNL     1      31.507   5.151  47.540  1.00  0.00     0.079 A 
HETATM   13  C3  UNL     1      33.078   7.256  48.553  1.00  0.00     0.074 A 
HETATM   14  N4  UNL     1      31.213   8.569  49.100  1.00  0.00    -0.239 NA
HETATM   15  C2  UNL     1      33.669   6.102  48.041  1.00  0.00     0.103 A 
HETATM   16  C7  UNL     1      32.885   5.071  47.544  1.00  0.00     0.104 A 
HETATM   17  C23 UNL     1      29.976   8.947  49.240  1.00  0.00     0.238 A 
HETATM   18  N3  UNL     1      28.733   8.291  48.907  1.00  0.00    -0.195 NA
BRANCH  15  19
HETATM   19  O1  UNL     1      35.065   5.986  48.029  1.00  0.00    -0.353 OA
HETATM   20  C1  UNL     1      35.690   5.752  49.284  1.00  0.00     0.210 C 
ENDBRANCH  15  19
BRANCH  16  21
HETATM   21  O2  UNL     1      33.544   3.965  47.055  1.00  0.00    -0.353 OA
HETATM   22  C8  UNL     1      33.405   2.671  47.631  1.00  0.00     0.210 C 
ENDBRANCH  16  21
ENDBRANCH   7   8
ENDBRANCH   1   7
BRANCH   4  23
HETATM   23  N1  UNL     1      24.262   2.869  50.780  1.00  0.00    -0.373 N 
HETATM   24  H11 UNL     1      24.299   1.907  50.364  1.00  0.00     0.161 HD
BRANCH  23  25
HETATM   25  C14 UNL     1      23.445   2.978  51.966  1.00  0.00     0.250 C 
BRANCH  25  26
HETATM   26  N2  UNL     1      23.291   1.683  52.556  1.00  0.00    -0.350 N 
HETATM   27  C15 UNL     1      21.886   1.429  52.773  1.00  0.00     0.091 A 
HETATM   28  C16 UNL     1      21.497   0.262  53.315  1.00  0.00     0.026 A 
HETATM   29  C17 UNL     1      22.383  -0.836  53.729  1.00  0.00     0.169 A 
HETATM   30  C19 UNL     1      23.783  -0.458  53.457  1.00  0.00     0.026 A 
HETATM   31  C20 UNL     1      24.210   0.667  52.932  1.00  0.00     0.091 A 
BRANCH  29  32
HETATM   32  O5  UNL     1      22.139  -1.083  55.077  1.00  0.00    -0.383 OA
HETATM   33  C18 UNL     1      23.275  -1.551  55.732  1.00  0.00     0.202 C 
ENDBRANCH  29  32
ENDBRANCH  25  26
ENDBRANCH  23  25
ENDBRANCH   4  23
TORSDOF 8
ENDMDL
MODEL 5
REMARK VINA RESULT:      -7.9      3.540     10.107
REMARK  8 active torsions:
REMARK  status: ('A' for Active; 'I' for Inactive)
REMARK    1  A    between atoms: O1_2  and  C2_3 
REMARK    2  A    between atoms: C7_8  and  O2_9 
REMARK    3  A    between atoms: C9_12  and  O4_13 
REMARK    4  A    between atoms: O4_13  and  C10_14 
REMARK    5  A    between atoms: C13_17  and  N1_18 
REMARK    6  A    between atoms: N1_18  and  C14_19 
REMARK    7  A    between atoms: C14_19  and  N2_20 
REMARK    8  A    between atoms: C17_23  and  O5_24 
ROOT
HETATM    1  C10 UNL     1      25.479   5.339  49.242  1.00  0.00     0.080 A 
HETATM    2  C11 UNL     1      25.120   6.392  50.054  1.00  0.00     0.039 A 
HETATM    3  C12 UNL     1      25.893   7.524  50.166  1.00  0.00     0.032 A 
HETATM    4  C13 UNL     1      27.091   7.660  49.457  1.00  0.00     0.029 A 
HETATM    5  C21 UNL     1      27.409   6.599  48.669  1.00  0.00     0.032 A 
HETATM    6  C22 UNL     1      26.673   5.450  48.521  1.00  0.00     0.039 A 
ENDROOT
BRANCH   1   7
HETATM    7  O4  UNL     1      24.781   4.155  49.051  1.00  0.00    -0.272 OA
BRANCH   7   8
HETATM    8  C9  UNL     1      24.608   3.222  50.038  1.00  0.00     0.299 A 
HETATM    9  O3  UNL     1      25.575   2.912  51.016  1.00  0.00    -0.270 OA
HETATM   10  C5  UNL     1      25.487   1.982  52.044  1.00  0.00     0.111 A 
HETATM   11  C4  UNL     1      24.444   1.137  52.373  1.00  0.00     0.095 A 
HETATM   12  C6  UNL     1      26.668   2.008  52.754  1.00  0.00     0.079 A 
HETATM   13  C3  UNL     1      24.555   0.279  53.440  1.00  0.00     0.074 A 
HETATM   14  N4  UNL     1      23.183   1.038  51.696  1.00  0.00    -0.239 NA
HETATM   15  C2  UNL     1      25.741   0.289  54.173  1.00  0.00     0.103 A 
HETATM   16  C7  UNL     1      26.775   1.145  53.826  1.00  0.00     0.104 A 
HETATM   17  C23 UNL     1      22.775   1.707  50.657  1.00  0.00     0.238 A 
HETATM   18  N3  UNL     1      23.418   2.728  49.865  1.00  0.00    -0.195 NA
BRANCH  15  19
HETATM   19  O1  UNL     1      25.885  -0.574  55.267  1.00  0.00    -0.353 OA
HETATM   20  C1  UNL     1      24.705  -1.226  55.717  1.00  0.00     0.210 C 
ENDBRANCH  15  19
BRANCH  16  21
HETATM   21  O2  UNL     1      27.914   1.095  54.600  1.00  0.00    -0.353 OA
HETATM   22  C8  UNL     1      29.113   0.469  54.160  1.00  0.00     0.210 C 
ENDBRANCH  16  21
ENDBRANCH   7   8
ENDBRANCH   1   7
BRANCH   4  23
HETATM   23  N1  UNL     1      27.858   8.840  49.612  1.00  0.00    -0.373 N 
HETATM   24  H11 UNL     1      27.377   9.692  49.989  1.00  0.00     0.161 HD
BRANCH  23  25
HETATM   25  C14 UNL     1      29.257   9.028  49.309  1.00  0.00     0.250 C 
BRANCH  25  26
HETATM   26  N2  UNL     1      29.507  10.415  49.064  1.00  0.00    -0.350 N 
HETATM   27  C15 UNL     1      28.254  11.079  48.794  1.00  0.00     0.091 A 
HETATM   28  C16 UNL     1      28.241  12.399  48.541  1.00  0.00     0.026 A 
HETATM   29  C17 UNL     1      29.415  13.284  48.509  1.00  0.00     0.169 A 
HETATM   30  C19 UNL     1      30.626  12.493  48.799  1.00  0.00     0.026 A 
HETATM   31  C20 UNL     1      30.688  11.206  49.050  1.00  0.00     0.091 A 
BRANCH  29  32
HETATM   32  O5  UNL     1      29.448  13.888  47.254  1.00  0.00    -0.383 OA
HETATM   33  C18 UNL     1      28.455  14.854  47.118  1.00  0.00     0.202 C 
ENDBRANCH  29  32
ENDBRANCH  25  26
ENDBRANCH  23  25
ENDBRANCH   4  23
TORSDOF 8
ENDMDL
MODEL 6
REMARK VINA RESULT:      -7.9      1.875      9.190
REMARK  8 active torsions:
REMARK  status: ('A' for Active; 'I' for Inactive)
REMARK    1  A    between atoms: O1_2  and  C2_3 
REMARK    2  A    between atoms: C7_8  and  O2_9 
REMARK    3  A    between atoms: C9_12  and  O4_13 
REMARK    4  A    between atoms: O4_13  and  C10_14 
REMARK    5  A    between atoms: C13_17  and  N1_18 
REMARK    6  A    between atoms: N1_18  and  C14_19 
REMARK    7  A    between atoms: C14_19  and  N2_20 
REMARK    8  A    between atoms: C17_23  and  O5_24 
ROOT
HETATM    1  C10 UNL     1      24.313   5.520  49.930  1.00  0.00     0.080 A 
HETATM    2  C11 UNL     1      24.462   6.707  50.612  1.00  0.00     0.039 A 
HETATM    3  C12 UNL     1      25.560   7.516  50.437  1.00  0.00     0.032 A 
HETATM    4  C13 UNL     1      26.586   7.169  49.551  1.00  0.00     0.029 A 
HETATM    5  C21 UNL     1      26.400   5.991  48.899  1.00  0.00     0.032 A 
HETATM    6  C22 UNL     1      25.324   5.149  49.037  1.00  0.00     0.039 A 
ENDROOT
BRANCH   1   7
HETATM    7  O4  UNL     1      23.252   4.629  50.026  1.00  0.00    -0.272 OA
BRANCH   7   8
HETATM    8  C9  UNL     1      23.321   3.461  50.735  1.00  0.00     0.299 A 
HETATM    9  O3  UNL     1      24.334   3.155  51.667  1.00  0.00    -0.270 OA
HETATM   10  C5  UNL     1      24.484   1.999  52.422  1.00  0.00     0.111 A 
HETATM   11  C4  UNL     1      23.690   0.869  52.459  1.00  0.00     0.095 A 
HETATM   12  C6  UNL     1      25.619   2.129  53.194  1.00  0.00     0.079 A 
HETATM   13  C3  UNL     1      24.014  -0.181  53.283  1.00  0.00     0.074 A 
HETATM   14  N4  UNL     1      22.496   0.642  51.697  1.00  0.00    -0.239 NA
HETATM   15  C2  UNL     1      25.158  -0.071  54.074  1.00  0.00     0.103 A 
HETATM   16  C7  UNL     1      25.941   1.072  54.021  1.00  0.00     0.104 A 
HETATM   17  C23 UNL     1      21.933   1.435  50.833  1.00  0.00     0.238 A 
HETATM   18  N3  UNL     1      22.296   2.752  50.365  1.00  0.00    -0.195 NA
BRANCH  15  19
HETATM   19  O1  UNL     1      25.515  -1.125  54.925  1.00  0.00    -0.353 OA
HETATM   20  C1  UNL     1      24.686  -1.327  56.061  1.00  0.00     0.210 C 
ENDBRANCH  15  19
BRANCH  16  21
HETATM   21  O2  UNL     1      27.054   1.105  54.832  1.00  0.00    -0.353 OA
HETATM   22  C8  UNL     1      28.330   0.648  54.402  1.00  0.00     0.210 C 
ENDBRANCH  16  21
ENDBRANCH   7   8
ENDBRANCH   1   7
BRANCH   4  23
HETATM   23  N1  UNL     1      27.702   8.029  49.410  1.00  0.00    -0.373 N 
HETATM   24  H11 UNL     1      27.958   8.637  50.225  1.00  0.00     0.161 HD
BRANCH  23  25
HETATM   25  C14 UNL     1      28.556   8.183  48.256  1.00  0.00     0.250 C 
BRANCH  25  26
HETATM   26  N2  UNL     1      29.747   7.411  48.442  1.00  0.00    -0.350 N 
HETATM   27  C15 UNL     1      30.717   8.207  49.156  1.00  0.00     0.091 A 
HETATM   28  C16 UNL     1      31.919   7.683  49.453  1.00  0.00     0.026 A 
HETATM   29  C17 UNL     1      32.376   6.326  49.117  1.00  0.00     0.169 A 
HETATM   30  C19 UNL     1      31.303   5.618  48.395  1.00  0.00     0.026 A 
HETATM   31  C20 UNL     1      30.117   6.087  48.082  1.00  0.00     0.091 A 
BRANCH  29  32
HETATM   32  O5  UNL     1      33.543   6.453  48.368  1.00  0.00    -0.383 OA
HETATM   33  C18 UNL     1      33.273   6.711  47.027  1.00  0.00     0.202 C 
ENDBRANCH  29  32
ENDBRANCH  25  26
ENDBRANCH  23  25
ENDBRANCH   4  23
TORSDOF 8
ENDMDL
MODEL 7
REMARK VINA RESULT:      -7.7      1.828      8.919
REMARK  8 active torsions:
REMARK  status: ('A' for Active; 'I' for Inactive)
REMARK    1  A    between atoms: O1_2  and  C2_3 
REMARK    2  A    between atoms: C7_8  and  O2_9 
REMARK    3  A    between atoms: C9_12  and  O4_13 
REMARK    4  A    between atoms: O4_13  and  C10_14 
REMARK    5  A    between atoms: C13_17  and  N1_18 
REMARK    6  A    between atoms: N1_18  and  C14_19 
REMARK    7  A    between atoms: C14_19  and  N2_20 
REMARK    8  A    between atoms: C17_23  and  O5_24 
ROOT
HETATM    1  C10 UNL     1      26.043   7.160  48.886  1.00  0.00     0.080 A 
HETATM    2  C11 UNL     1      25.963   8.111  49.879  1.00  0.00     0.039 A 
HETATM    3  C12 UNL     1      27.018   8.937  50.184  1.00  0.00     0.032 A 
HETATM    4  C13 UNL     1      28.233   8.851  49.496  1.00  0.00     0.029 A 
HETATM    5  C21 UNL     1      28.271   7.901  48.526  1.00  0.00     0.032 A 
HETATM    6  C22 UNL     1      27.247   7.053  48.181  1.00  0.00     0.039 A 
ENDROOT
BRANCH   1   7
HETATM    7  O4  UNL     1      25.047   6.277  48.492  1.00  0.00    -0.272 OA
BRANCH   7   8
HETATM    8  C9  UNL     1      24.731   5.146  49.197  1.00  0.00     0.299 A 
HETATM    9  O3  UNL     1      25.658   4.390  49.942  1.00  0.00    -0.270 OA
HETATM   10  C5  UNL     1      25.427   3.234  50.678  1.00  0.00     0.111 A 
HETATM   11  C4  UNL     1      24.248   2.540  50.870  1.00  0.00     0.095 A 
HETATM   12  C6  UNL     1      26.621   2.831  51.237  1.00  0.00     0.079 A 
HETATM   13  C3  UNL     1      24.228   1.404  51.642  1.00  0.00     0.074 A 
HETATM   14  N4  UNL     1      22.963   2.880  50.331  1.00  0.00    -0.239 NA
HETATM   15  C2  UNL     1      25.424   0.977  52.218  1.00  0.00     0.103 A 
HETATM   16  C7  UNL     1      26.597   1.689  52.012  1.00  0.00     0.104 A 
HETATM   17  C23 UNL     1      22.654   3.887  49.566  1.00  0.00     0.238 A 
HETATM   18  N3  UNL     1      23.457   4.956  49.022  1.00  0.00    -0.195 NA
BRANCH  15  19
HETATM   19  O1  UNL     1      25.437  -0.178  53.011  1.00  0.00    -0.353 OA
HETATM   20  C1  UNL     1      24.306  -0.382  53.847  1.00  0.00     0.210 C 
ENDBRANCH  15  19
BRANCH  16  21
HETATM   21  O2  UNL     1      27.736   1.204  52.616  1.00  0.00    -0.353 OA
HETATM   22  C8  UNL     1      28.485   1.958  53.561  1.00  0.00     0.210 C 
ENDBRANCH  16  21
ENDBRANCH   7   8
ENDBRANCH   1   7
BRANCH   4  23
HETATM   23  N1  UNL     1      29.294   9.718  49.852  1.00  0.00    -0.373 N 
HETATM   24  H11 UNL     1      29.337  10.061  50.842  1.00  0.00     0.161 HD
BRANCH  23  25
HETATM   25  C14 UNL     1      30.357  10.206  49.004  1.00  0.00     0.250 C 
BRANCH  25  26
HETATM   26  N2  UNL     1      31.254   9.133  48.704  1.00  0.00    -0.350 N 
HETATM   27  C15 UNL     1      31.557   9.153  47.293  1.00  0.00     0.091 A 
HETATM   28  C16 UNL     1      32.394   8.235  46.778  1.00  0.00     0.026 A 
HETATM   29  C17 UNL     1      33.067   7.163  47.528  1.00  0.00     0.169 A 
HETATM   30  C19 UNL     1      32.680   7.249  48.949  1.00  0.00     0.026 A 
HETATM   31  C20 UNL     1      31.868   8.125  49.495  1.00  0.00     0.091 A 
BRANCH  29  32
HETATM   32  O5  UNL     1      32.708   5.954  46.939  1.00  0.00    -0.383 OA
HETATM   33  C18 UNL     1      32.892   4.880  47.807  1.00  0.00     0.202 C 
ENDBRANCH  29  32
ENDBRANCH  25  26
ENDBRANCH  23  25
ENDBRANCH   4  23
TORSDOF 8
ENDMDL
MODEL 8
REMARK VINA RESULT:      -7.5      2.806     10.145
REMARK  8 active torsions:
REMARK  status: ('A' for Active; 'I' for Inactive)
REMARK    1  A    between atoms: O1_2  and  C2_3 
REMARK    2  A    between atoms: C7_8  and  O2_9 
REMARK    3  A    between atoms: C9_12  and  O4_13 
REMARK    4  A    between atoms: O4_13  and  C10_14 
REMARK    5  A    between atoms: C13_17  and  N1_18 
REMARK    6  A    between atoms: N1_18  and  C14_19 
REMARK    7  A    between atoms: C14_19  and  N2_20 
REMARK    8  A    between atoms: C17_23  and  O5_24 
ROOT
HETATM    1  C10 UNL     1      26.669   4.398  49.545  1.00  0.00     0.080 A 
HETATM    2  C11 UNL     1      25.579   5.130  49.960  1.00  0.00     0.039 A 
HETATM    3  C12 UNL     1      25.348   6.410  49.514  1.00  0.00     0.032 A 
HETATM    4  C13 UNL     1      26.215   7.035  48.612  1.00  0.00     0.029 A 
HETATM    5  C21 UNL     1      27.278   6.279  48.229  1.00  0.00     0.032 A 
HETATM    6  C22 UNL     1      27.553   4.999  48.642  1.00  0.00     0.039 A 
ENDROOT
BRANCH   1   7
HETATM    7  O4  UNL     1      27.001   3.105  49.926  1.00  0.00    -0.272 OA
BRANCH   7   8
HETATM    8  C9  UNL     1      26.287   2.393  50.852  1.00  0.00     0.299 A 
HETATM    9  O3  UNL     1      24.906   2.127  50.758  1.00  0.00    -0.270 OA
HETATM   10  C5  UNL     1      24.106   1.423  51.649  1.00  0.00     0.111 A 
HETATM   11  C4  UNL     1      24.452   0.806  52.837  1.00  0.00     0.095 A 
HETATM   12  C6  UNL     1      22.817   1.416  51.162  1.00  0.00     0.079 A 
HETATM   13  C3  UNL     1      23.501   0.154  53.583  1.00  0.00     0.074 A 
HETATM   14  N4  UNL     1      25.760   0.761  53.423  1.00  0.00    -0.239 NA
HETATM   15  C2  UNL     1      22.189   0.134  53.109  1.00  0.00     0.103 A 
HETATM   16  C7  UNL     1      21.864   0.758  51.914  1.00  0.00     0.104 A 
HETATM   17  C23 UNL     1      26.862   1.282  52.967  1.00  0.00     0.238 A 
HETATM   18  N3  UNL     1      27.136   2.048  51.774  1.00  0.00    -0.195 NA
BRANCH  15  19
HETATM   19  O1  UNL     1      21.197  -0.524  53.847  1.00  0.00    -0.353 OA
HETATM   20  C1  UNL     1      21.643  -1.516  54.761  1.00  0.00     0.210 C 
ENDBRANCH  15  19
BRANCH  16  21
HETATM   21  O2  UNL     1      20.548   0.693  51.513  1.00  0.00    -0.353 OA
HETATM   22  C8  UNL     1      19.702   1.836  51.467  1.00  0.00     0.210 C 
ENDBRANCH  16  21
ENDBRANCH   7   8
ENDBRANCH   1   7
BRANCH   4  23
HETATM   23  N1  UNL     1      25.940   8.358  48.188  1.00  0.00    -0.373 N 
HETATM   24  H11 UNL     1      25.344   8.485  47.334  1.00  0.00     0.161 HD
BRANCH  23  25
HETATM   25  C14 UNL     1      26.386   9.589  48.797  1.00  0.00     0.250 C 
BRANCH  25  26
HETATM   26  N2  UNL     1      27.810   9.678  48.699  1.00  0.00    -0.350 N 
HETATM   27  C15 UNL     1      28.174   9.905  47.320  1.00  0.00     0.091 A 
HETATM   28  C16 UNL     1      29.470  10.031  46.986  1.00  0.00     0.026 A 
HETATM   29  C17 UNL     1      30.611   9.962  47.910  1.00  0.00     0.169 A 
HETATM   30  C19 UNL     1      30.113   9.728  49.279  1.00  0.00     0.026 A 
HETATM   31  C20 UNL     1      28.861   9.598  49.652  1.00  0.00     0.091 A 
BRANCH  29  32
HETATM   32  O5  UNL     1      31.452   8.948  47.458  1.00  0.00    -0.383 OA
HETATM   33  C18 UNL     1      31.467   7.861  48.327  1.00  0.00     0.202 C 
ENDBRANCH  29  32
ENDBRANCH  25  26
ENDBRANCH  23  25
ENDBRANCH   4  23
TORSDOF 8
ENDMDL
MODEL 9
REMARK VINA RESULT:      -7.4      2.829      9.692
REMARK  8 active torsions:
REMARK  status: ('A' for Active; 'I' for Inactive)
REMARK    1  A    between atoms: O1_2  and  C2_3 
REMARK    2  A    between atoms: C7_8  and  O2_9 
REMARK    3  A    between atoms: C9_12  and  O4_13 
REMARK    4  A    between atoms: O4_13  and  C10_14 
REMARK    5  A    between atoms: C13_17  and  N1_18 
REMARK    6  A    between atoms: N1_18  and  C14_19 
REMARK    7  A    between atoms: C14_19  and  N2_20 
REMARK    8  A    between atoms: C17_23  and  O5_24 
ROOT
HETATM    1  C10 UNL     1      24.372   4.233  49.193  1.00  0.00     0.080 A 
HETATM    2  C11 UNL     1      24.196   5.551  48.836  1.00  0.00     0.039 A 
HETATM    3  C12 UNL     1      25.258   6.384  48.575  1.00  0.00     0.032 A 
HETATM    4  C13 UNL     1      26.578   5.930  48.662  1.00  0.00     0.029 A 
HETATM    5  C21 UNL     1      26.708   4.625  49.018  1.00  0.00     0.032 A 
HETATM    6  C22 UNL     1      25.683   3.752  49.287  1.00  0.00     0.039 A 
ENDROOT
BRANCH   1   7
HETATM    7  O4  UNL     1      23.380   3.304  49.477  1.00  0.00    -0.272 OA
BRANCH   7   8
HETATM    8  C9  UNL     1      23.470   2.409  50.509  1.00  0.00     0.299 A 
HETATM    9  O3  UNL     1      24.578   2.301  51.373  1.00  0.00    -0.270 OA
HETATM   10  C5  UNL     1      24.754   1.422  52.435  1.00  0.00     0.111 A 
HETATM   11  C4  UNL     1      23.902   0.446  52.915  1.00  0.00     0.095 A 
HETATM   12  C6  UNL     1      25.990   1.664  52.997  1.00  0.00     0.079 A 
HETATM   13  C3  UNL     1      24.267  -0.329  53.989  1.00  0.00     0.074 A 
HETATM   14  N4  UNL     1      22.604   0.121  52.398  1.00  0.00    -0.239 NA
HETATM   15  C2  UNL     1      25.512  -0.101  54.574  1.00  0.00     0.103 A 
HETATM   16  C7  UNL     1      26.352   0.885  54.077  1.00  0.00     0.104 A 
HETATM   17  C23 UNL     1      21.980   0.665  51.393  1.00  0.00     0.238 A 
HETATM   18  N3  UNL     1      22.361   1.731  50.496  1.00  0.00    -0.195 NA
BRANCH  15  19
HETATM   19  O1  UNL     1      25.913  -0.873  55.671  1.00  0.00    -0.353 OA
HETATM   20  C1  UNL     1      24.927  -1.118  56.665  1.00  0.00     0.210 C 
ENDBRANCH  15  19
BRANCH  16  21
HETATM   21  O2  UNL     1      27.564   1.049  54.709  1.00  0.00    -0.353 OA
HETATM   22  C8  UNL     1      28.802   1.057  54.008  1.00  0.00     0.210 C 
ENDBRANCH  16  21
ENDBRANCH   7   8
ENDBRANCH   1   7
BRANCH   4  23
HETATM   23  N1  UNL     1      27.640   6.828  48.392  1.00  0.00    -0.373 N 
HETATM   24  H11 UNL     1      27.401   7.837  48.236  1.00  0.00     0.161 HD
BRANCH  23  25
HETATM   25  C14 UNL     1      29.049   6.525  48.301  1.00  0.00     0.250 C 
BRANCH  25  26
HETATM   26  N2  UNL     1      29.805   7.725  48.486  1.00  0.00    -0.350 N 
HETATM   27  C15 UNL     1      28.933   8.757  48.995  1.00  0.00     0.091 A 
HETATM   28  C16 UNL     1      29.429   9.979  49.254  1.00  0.00     0.026 A 
HETATM   29  C17 UNL     1      30.826  10.402  49.070  1.00  0.00     0.169 A 
HETATM   30  C19 UNL     1      31.611   9.266  48.550  1.00  0.00     0.026 A 
HETATM   31  C20 UNL     1      31.171   8.058  48.281  1.00  0.00     0.091 A 
BRANCH  29  32
HETATM   32  O5  UNL     1      30.820  11.497  48.211  1.00  0.00    -0.383 OA
HETATM   33  C18 UNL     1      29.887  12.455  48.598  1.00  0.00     0.202 C 
ENDBRANCH  29  32
ENDBRANCH  25  26
ENDBRANCH  23  25
ENDBRANCH   4  23
TORSDOF 8
ENDMDL
