MODEL 1
REMARK VINA RESULT:      -8.8      0.000      0.000
REMARK  1 active torsions:
REMARK  status: ('A' for Active; 'I' for Inactive)
REMARK    1  A    between atoms: O1_1  and  C1_2 
ROOT
HETATM    1  C1  UNL     1      22.232   6.343  49.291  1.00  0.00     0.040 C 
HETATM    2  C2  UNL     1      23.386   5.782  48.789  1.00  0.00     0.011 C 
HETATM    3  C3  UNL     1      24.682   4.987  49.028  1.00  0.00     0.046 C 
HETATM    4  C4  UNL     1      25.165   4.537  50.239  1.00  0.00    -0.019 C 
HETATM    5  C5  UNL     1      26.437   3.823  49.875  1.00  0.00     0.007 C 
HETATM    6  C6  UNL     1      26.406   2.387  50.371  1.00  0.00     0.062 C 
HETATM    7  C7  UNL     1      26.568   2.338  51.856  1.00  0.00     0.064 A 
HETATM    8  N1  UNL     1      27.808   2.487  52.028  1.00  0.00    -0.242 NA
HETATM    9  C8  UNL     1      28.531   2.522  53.223  1.00  0.00     0.255 A 
HETATM   10  N2  UNL     1      27.881   2.387  54.315  1.00  0.00    -0.168 NA
HETATM   11  N3  UNL     1      26.479   2.214  54.248  1.00  0.00    -0.275 N 
HETATM   12  C9  UNL     1      25.736   2.180  53.000  1.00  0.00     0.075 A 
HETATM   13  C10 UNL     1      24.521   2.055  53.462  1.00  0.00     0.040 C 
HETATM   14  C11 UNL     1      23.292   2.043  52.723  1.00  0.00    -0.053 C 
HETATM   15  C12 UNL     1      22.193   2.411  52.122  1.00  0.00    -0.073 C 
HETATM   16  C13 UNL     1      21.022   1.982  51.364  1.00  0.00     0.034 C 
HETATM   17  C14 UNL     1      20.787   0.511  51.591  1.00  0.00     0.005 C 
HETATM   18  C15 UNL     1      21.783   0.042  52.607  1.00  0.00     0.005 C 
HETATM   19  C16 UNL     1      23.166   0.585  52.350  1.00  0.00     0.039 C 
HETATM   20  C17 UNL     1      22.230   3.916  52.201  1.00  0.00     0.035 C 
HETATM   21  C18 UNL     1      21.978   4.477  50.834  1.00  0.00     0.011 C 
HETATM   22  C19 UNL     1      22.361   5.932  50.752  1.00  0.00     0.064 C 
HETATM   23  H10 UNL     1      26.156   2.119  55.258  1.00  0.00     0.189 HD
ENDROOT
BRANCH   1  24
HETATM   24  O1  UNL     1      21.331   7.034  48.521  1.00  0.00    -0.365 OA
HETATM   25  H1  UNL     1      20.349   7.046  48.779  1.00  0.00     0.217 HD
ENDBRANCH   1  24
TORSDOF 1
ENDMDL
MODEL 2
REMARK VINA RESULT:      -8.6      3.225      5.486
REMARK  1 active torsions:
REMARK  status: ('A' for Active; 'I' for Inactive)
REMARK    1  A    between atoms: O1_1  and  C1_2 
ROOT
HETATM    1  C1  UNL     1      20.067  -0.411  53.389  1.00  0.00     0.040 C 
HETATM    2  C2  UNL     1      20.041  -0.143  52.038  1.00  0.00     0.011 C 
HETATM    3  C3  UNL     1      20.553   0.683  50.844  1.00  0.00     0.046 C 
HETATM    4  C4  UNL     1      21.438   1.740  50.887  1.00  0.00    -0.019 C 
HETATM    5  C5  UNL     1      21.583   2.145  49.447  1.00  0.00     0.007 C 
HETATM    6  C6  UNL     1      23.043   2.107  49.025  1.00  0.00     0.062 C 
HETATM    7  C7  UNL     1      23.797   3.246  49.630  1.00  0.00     0.064 A 
HETATM    8  N1  UNL     1      23.496   4.228  48.898  1.00  0.00    -0.242 NA
HETATM    9  C8  UNL     1      23.915   5.557  48.995  1.00  0.00     0.255 A 
HETATM   10  N2  UNL     1      24.716   5.860  49.945  1.00  0.00    -0.168 NA
HETATM   11  N3  UNL     1      25.124   4.838  50.834  1.00  0.00    -0.275 N 
HETATM   12  C9  UNL     1      24.682   3.458  50.725  1.00  0.00     0.075 A 
HETATM   13  C10 UNL     1      25.276   2.946  51.769  1.00  0.00     0.040 C 
HETATM   14  C11 UNL     1      25.174   1.608  52.274  1.00  0.00    -0.053 C 
HETATM   15  C12 UNL     1      24.795   0.550  52.938  1.00  0.00    -0.073 C 
HETATM   16  C13 UNL     1      25.020  -0.869  53.191  1.00  0.00     0.034 C 
HETATM   17  C14 UNL     1      26.418  -1.241  52.764  1.00  0.00     0.005 C 
HETATM   18  C15 UNL     1      27.111   0.014  52.333  1.00  0.00     0.005 C 
HETATM   19  C16 UNL     1      26.234   0.890  51.473  1.00  0.00     0.039 C 
HETATM   20  C17 UNL     1      23.567   1.014  53.678  1.00  0.00     0.035 C 
HETATM   21  C18 UNL     1      22.462   0.029  53.444  1.00  0.00     0.011 C 
HETATM   22  C19 UNL     1      21.121   0.597  53.831  1.00  0.00     0.064 C 
HETATM   23  H10 UNL     1      25.780   5.310  51.527  1.00  0.00     0.189 HD
ENDROOT
BRANCH   1  24
HETATM   24  O1  UNL     1      19.292  -1.375  53.983  1.00  0.00    -0.365 OA
HETATM   25  H1  UNL     1      19.186  -1.388  54.993  1.00  0.00     0.217 HD
ENDBRANCH   1  24
TORSDOF 1
ENDMDL
MODEL 3
REMARK VINA RESULT:      -8.6      3.915      5.918
REMARK  1 active torsions:
REMARK  status: ('A' for Active; 'I' for Inactive)
REMARK    1  A    between atoms: O1_1  and  C1_2 
ROOT
HETATM    1  C1  UNL     1      27.425  -0.115  53.712  1.00  0.00     0.040 C 
HETATM    2  C2  UNL     1      27.263   1.198  53.327  1.00  0.00     0.011 C 
HETATM    3  C3  UNL     1      26.541   2.240  52.454  1.00  0.00     0.046 C 
HETATM    4  C4  UNL     1      25.584   1.993  51.492  1.00  0.00    -0.019 C 
HETATM    5  C5  UNL     1      25.229   3.362  50.980  1.00  0.00     0.007 C 
HETATM    6  C6  UNL     1      23.737   3.615  51.118  1.00  0.00     0.062 C 
HETATM    7  C7  UNL     1      22.971   2.820  50.111  1.00  0.00     0.064 A 
HETATM    8  N1  UNL     1      23.097   3.483  49.046  1.00  0.00    -0.242 NA
HETATM    9  C8  UNL     1      22.584   3.210  47.776  1.00  0.00     0.255 A 
HETATM   10  N2  UNL     1      21.884   2.151  47.632  1.00  0.00    -0.168 NA
HETATM   11  N3  UNL     1      21.674   1.324  48.760  1.00  0.00    -0.275 N 
HETATM   12  C9  UNL     1      22.213   1.616  50.078  1.00  0.00     0.075 A 
HETATM   13  C10 UNL     1      21.796   0.565  50.732  1.00  0.00     0.040 C 
HETATM   14  C11 UNL     1      22.070   0.206  52.093  1.00  0.00    -0.053 C 
HETATM   15  C12 UNL     1      22.614  -0.305  53.164  1.00  0.00    -0.073 C 
HETATM   16  C13 UNL     1      22.540  -0.444  54.615  1.00  0.00     0.034 C 
HETATM   17  C14 UNL     1      21.137  -0.146  55.078  1.00  0.00     0.005 C 
HETATM   18  C15 UNL     1      20.294   0.080  53.861  1.00  0.00     0.005 C 
HETATM   19  C16 UNL     1      20.983   0.945  52.836  1.00  0.00     0.039 C 
HETATM   20  C17 UNL     1      23.881  -0.941  52.652  1.00  0.00     0.035 C 
HETATM   21  C18 UNL     1      25.027  -0.487  53.505  1.00  0.00     0.011 C 
HETATM   22  C19 UNL     1      26.354  -0.770  52.849  1.00  0.00     0.064 C 
HETATM   23  H10 UNL     1      21.071   0.518  48.413  1.00  0.00     0.189 HD
ENDROOT
BRANCH   1  24
HETATM   24  O1  UNL     1      28.345  -0.521  54.646  1.00  0.00    -0.365 OA
HETATM   25  H1  UNL     1      28.049  -1.084  55.437  1.00  0.00     0.217 HD
ENDBRANCH   1  24
TORSDOF 1
ENDMDL
MODEL 4
REMARK VINA RESULT:      -8.5      3.906      6.743
REMARK  1 active torsions:
REMARK  status: ('A' for Active; 'I' for Inactive)
REMARK    1  A    between atoms: O1_1  and  C1_2 
ROOT
HETATM    1  C1  UNL     1      26.298   0.048  54.687  1.00  0.00     0.040 C 
HETATM    2  C2  UNL     1      25.307  -0.691  54.077  1.00  0.00     0.011 C 
HETATM    3  C3  UNL     1      23.935  -0.743  53.381  1.00  0.00     0.046 C 
HETATM    4  C4  UNL     1      23.069   0.311  53.180  1.00  0.00    -0.019 C 
HETATM    5  C5  UNL     1      21.911  -0.311  52.450  1.00  0.00     0.007 C 
HETATM    6  C6  UNL     1      21.663   0.403  51.132  1.00  0.00     0.062 C 
HETATM    7  C7  UNL     1      21.053   1.747  51.367  1.00  0.00     0.064 A 
HETATM    8  N1  UNL     1      19.838   1.492  51.583  1.00  0.00    -0.242 NA
HETATM    9  C8  UNL     1      18.791   2.373  51.863  1.00  0.00     0.255 A 
HETATM   10  N2  UNL     1      19.062   3.621  51.914  1.00  0.00    -0.168 NA
HETATM   11  N3  UNL     1      20.398   4.030  51.688  1.00  0.00    -0.275 N 
HETATM   12  C9  UNL     1      21.480   3.104  51.399  1.00  0.00     0.075 A 
HETATM   13  C10 UNL     1      22.480   3.941  51.325  1.00  0.00     0.040 C 
HETATM   14  C11 UNL     1      23.870   3.640  51.137  1.00  0.00    -0.053 C 
HETATM   15  C12 UNL     1      25.127   3.363  51.352  1.00  0.00    -0.073 C 
HETATM   16  C13 UNL     1      26.431   3.097  50.754  1.00  0.00     0.034 C 
HETATM   17  C14 UNL     1      26.456   3.630  49.344  1.00  0.00     0.005 C 
HETATM   18  C15 UNL     1      25.161   4.343  49.104  1.00  0.00     0.005 C 
HETATM   19  C16 UNL     1      23.975   3.576  49.632  1.00  0.00     0.039 C 
HETATM   20  C17 UNL     1      25.200   3.174  52.846  1.00  0.00     0.035 C 
HETATM   21  C18 UNL     1      25.905   1.882  53.134  1.00  0.00     0.011 C 
HETATM   22  C19 UNL     1      25.694   1.441  54.559  1.00  0.00     0.064 C 
HETATM   23  H10 UNL     1      20.388   5.091  51.774  1.00  0.00     0.189 HD
ENDROOT
BRANCH   1  24
HETATM   24  O1  UNL     1      27.448  -0.503  55.194  1.00  0.00    -0.365 OA
HETATM   25  H1  UNL     1      27.857  -1.319  54.750  1.00  0.00     0.217 HD
ENDBRANCH   1  24
TORSDOF 1
ENDMDL
MODEL 5
REMARK VINA RESULT:      -8.3      7.730     10.997
REMARK  1 active torsions:
REMARK  status: ('A' for Active; 'I' for Inactive)
REMARK    1  A    between atoms: O1_1  and  C1_2 
ROOT
HETATM    1  C1  UNL     1      33.850   4.537  48.044  1.00  0.00     0.040 C 
HETATM    2  C2  UNL     1      32.561   4.350  47.595  1.00  0.00     0.011 C 
HETATM    3  C3  UNL     1      31.088   4.794  47.584  1.00  0.00     0.046 C 
HETATM    4  C4  UNL     1      30.527   5.819  48.318  1.00  0.00    -0.019 C 
HETATM    5  C5  UNL     1      29.082   5.807  47.904  1.00  0.00     0.007 C 
HETATM    6  C6  UNL     1      28.668   7.167  47.368  1.00  0.00     0.062 C 
HETATM    7  C7  UNL     1      28.549   8.159  48.479  1.00  0.00     0.064 A 
HETATM    8  N1  UNL     1      27.429   7.899  48.996  1.00  0.00    -0.242 NA
HETATM    9  C8  UNL     1      26.796   8.515  50.078  1.00  0.00     0.255 A 
HETATM   10  N2  UNL     1      27.405   9.482  50.651  1.00  0.00    -0.168 NA
HETATM   11  N3  UNL     1      28.674   9.865  50.158  1.00  0.00    -0.275 N 
HETATM   12  C9  UNL     1      29.325   9.217  49.032  1.00  0.00     0.075 A 
HETATM   13  C10 UNL     1      30.450   9.879  49.008  1.00  0.00     0.040 C 
HETATM   14  C11 UNL     1      31.585   9.660  48.159  1.00  0.00    -0.053 C 
HETATM   15  C12 UNL     1      32.722   9.235  47.680  1.00  0.00    -0.073 C 
HETATM   16  C13 UNL     1      33.668   9.288  46.569  1.00  0.00     0.034 C 
HETATM   17  C14 UNL     1      33.427  10.538  45.762  1.00  0.00     0.005 C 
HETATM   18  C15 UNL     1      32.368  11.334  46.461  1.00  0.00     0.005 C 
HETATM   19  C16 UNL     1      31.224  10.475  46.940  1.00  0.00     0.039 C 
HETATM   20  C17 UNL     1      33.173   8.209  48.688  1.00  0.00     0.035 C 
HETATM   21  C18 UNL     1      33.545   6.952  47.963  1.00  0.00     0.011 C 
HETATM   22  C19 UNL     1      33.646   5.778  48.904  1.00  0.00     0.064 C 
HETATM   23  H10 UNL     1      28.984  10.678  50.773  1.00  0.00     0.189 HD
ENDROOT
BRANCH   1  24
HETATM   24  O1  UNL     1      34.900   3.726  47.689  1.00  0.00    -0.365 OA
HETATM   25  H1  UNL     1      35.820   3.886  48.086  1.00  0.00     0.217 HD
ENDBRANCH   1  24
TORSDOF 1
ENDMDL
MODEL 6
REMARK VINA RESULT:      -8.0      3.104      4.831
REMARK  1 active torsions:
REMARK  status: ('A' for Active; 'I' for Inactive)
REMARK    1  A    between atoms: O1_1  and  C1_2 
ROOT
HETATM    1  C1  UNL     1      18.634   0.510  50.899  1.00  0.00     0.040 C 
HETATM    2  C2  UNL     1      19.268   0.999  49.777  1.00  0.00     0.011 C 
HETATM    3  C3  UNL     1      20.276   1.978  49.150  1.00  0.00     0.046 C 
HETATM    4  C4  UNL     1      20.991   2.961  49.803  1.00  0.00    -0.019 C 
HETATM    5  C5  UNL     1      21.815   3.588  48.713  1.00  0.00     0.007 C 
HETATM    6  C6  UNL     1      23.293   3.536  49.061  1.00  0.00     0.062 C 
HETATM    7  C7  UNL     1      23.616   4.514  50.144  1.00  0.00     0.064 A 
HETATM    8  N1  UNL     1      23.684   5.618  49.541  1.00  0.00    -0.242 NA
HETATM    9  C8  UNL     1      23.960   6.886  50.057  1.00  0.00     0.255 A 
HETATM   10  N2  UNL     1      24.179   6.982  51.313  1.00  0.00    -0.168 NA
HETATM   11  N3  UNL     1      24.128   5.805  52.097  1.00  0.00    -0.275 N 
HETATM   12  C9  UNL     1      23.839   4.491  51.549  1.00  0.00     0.075 A 
HETATM   13  C10 UNL     1      23.857   3.780  52.645  1.00  0.00     0.040 C 
HETATM   14  C11 UNL     1      23.562   2.385  52.797  1.00  0.00    -0.053 C 
HETATM   15  C12 UNL     1      22.937   1.256  52.997  1.00  0.00    -0.073 C 
HETATM   16  C13 UNL     1      23.052  -0.197  53.079  1.00  0.00     0.034 C 
HETATM   17  C14 UNL     1      24.490  -0.574  53.336  1.00  0.00     0.005 C 
HETATM   18  C15 UNL     1      25.266   0.693  53.522  1.00  0.00     0.005 C 
HETATM   19  C16 UNL     1      24.900   1.748  52.509  1.00  0.00     0.039 C 
HETATM   20  C17 UNL     1      21.490   1.663  53.107  1.00  0.00     0.035 C 
HETATM   21  C18 UNL     1      20.675   0.796  52.196  1.00  0.00     0.011 C 
HETATM   22  C19 UNL     1      19.301   1.369  51.966  1.00  0.00     0.064 C 
HETATM   23  H10 UNL     1      24.342   6.118  53.092  1.00  0.00     0.189 HD
ENDROOT
BRANCH   1  24
HETATM   24  O1  UNL     1      17.696  -0.491  50.861  1.00  0.00    -0.365 OA
HETATM   25  H1  UNL     1      17.469  -1.005  51.706  1.00  0.00     0.217 HD
ENDBRANCH   1  24
TORSDOF 1
ENDMDL
MODEL 7
REMARK VINA RESULT:      -7.9      3.367      5.334
REMARK  1 active torsions:
REMARK  status: ('A' for Active; 'I' for Inactive)
REMARK    1  A    between atoms: O1_1  and  C1_2 
ROOT
HETATM    1  C1  UNL     1      26.441   6.889  49.505  1.00  0.00     0.040 C 
HETATM    2  C2  UNL     1      25.406   7.225  50.350  1.00  0.00     0.011 C 
HETATM    3  C3  UNL     1      24.023   6.898  50.940  1.00  0.00     0.046 C 
HETATM    4  C4  UNL     1      23.206   5.840  50.599  1.00  0.00    -0.019 C 
HETATM    5  C5  UNL     1      22.008   6.010  51.491  1.00  0.00     0.007 C 
HETATM    6  C6  UNL     1      21.775   4.758  52.319  1.00  0.00     0.062 C 
HETATM    7  C7  UNL     1      21.236   3.655  51.468  1.00  0.00     0.064 A 
HETATM    8  N1  UNL     1      20.013   3.937  51.349  1.00  0.00    -0.242 NA
HETATM    9  C8  UNL     1      19.015   3.248  50.656  1.00  0.00     0.255 A 
HETATM   10  N2  UNL     1      19.348   2.177  50.043  1.00  0.00    -0.168 NA
HETATM   11  N3  UNL     1      20.699   1.759  50.104  1.00  0.00    -0.275 N 
HETATM   12  C9  UNL     1      21.730   2.483  50.828  1.00  0.00     0.075 A 
HETATM   13  C10 UNL     1      22.768   1.745  50.543  1.00  0.00     0.040 C 
HETATM   14  C11 UNL     1      24.138   1.975  50.900  1.00  0.00    -0.053 C 
HETATM   15  C12 UNL     1      25.384   2.366  50.883  1.00  0.00    -0.073 C 
HETATM   16  C13 UNL     1      26.663   2.372  51.584  1.00  0.00     0.034 C 
HETATM   17  C14 UNL     1      26.693   1.247  52.588  1.00  0.00     0.005 C 
HETATM   18  C15 UNL     1      25.431   0.458  52.423  1.00  0.00     0.005 C 
HETATM   19  C16 UNL     1      24.217   1.338  52.266  1.00  0.00     0.039 C 
HETATM   20  C17 UNL     1      25.471   3.228  49.650  1.00  0.00     0.035 C 
HETATM   21  C18 UNL     1      26.115   4.531  50.018  1.00  0.00     0.011 C 
HETATM   22  C19 UNL     1      25.905   5.575  48.951  1.00  0.00     0.064 C 
HETATM   23  H10 UNL     1      20.743   0.858  49.537  1.00  0.00     0.189 HD
ENDROOT
BRANCH   1  24
HETATM   24  O1  UNL     1      27.571   7.653  49.352  1.00  0.00    -0.365 OA
HETATM   25  H1  UNL     1      27.488   8.644  49.149  1.00  0.00     0.217 HD
ENDBRANCH   1  24
TORSDOF 1
ENDMDL
MODEL 8
REMARK VINA RESULT:      -7.9      4.225      6.210
REMARK  1 active torsions:
REMARK  status: ('A' for Active; 'I' for Inactive)
REMARK    1  A    between atoms: O1_1  and  C1_2 
ROOT
HETATM    1  C1  UNL     1      25.229   2.032  53.418  1.00  0.00     0.040 C 
HETATM    2  C2  UNL     1      24.563   3.231  53.286  1.00  0.00     0.011 C 
HETATM    3  C3  UNL     1      23.536   4.097  52.536  1.00  0.00     0.046 C 
HETATM    4  C4  UNL     1      22.836   3.751  51.398  1.00  0.00    -0.019 C 
HETATM    5  C5  UNL     1      21.982   4.957  51.123  1.00  0.00     0.007 C 
HETATM    6  C6  UNL     1      20.514   4.570  51.060  1.00  0.00     0.062 C 
HETATM    7  C7  UNL     1      20.218   3.824  49.800  1.00  0.00     0.064 A 
HETATM    8  N1  UNL     1      20.130   4.730  48.928  1.00  0.00    -0.242 NA
HETATM    9  C8  UNL     1      19.866   4.612  47.561  1.00  0.00     0.255 A 
HETATM   10  N2  UNL     1      19.681   3.438  47.091  1.00  0.00    -0.168 NA
HETATM   11  N3  UNL     1      19.756   2.338  47.977  1.00  0.00    -0.275 N 
HETATM   12  C9  UNL     1      20.033   2.471  49.397  1.00  0.00     0.075 A 
HETATM   13  C10 UNL     1      20.046   1.213  49.745  1.00  0.00     0.040 C 
HETATM   14  C11 UNL     1      20.350   0.656  51.031  1.00  0.00    -0.053 C 
HETATM   15  C12 UNL     1      20.982   0.142  52.051  1.00  0.00    -0.073 C 
HETATM   16  C13 UNL     1      20.873  -0.378  53.410  1.00  0.00     0.034 C 
HETATM   17  C14 UNL     1      19.444  -0.774  53.685  1.00  0.00     0.005 C 
HETATM   18  C15 UNL     1      18.670  -0.591  52.416  1.00  0.00     0.005 C 
HETATM   19  C16 UNL     1      19.006   0.703  51.718  1.00  0.00     0.039 C 
HETATM   20  C17 UNL     1      22.431   0.198  51.638  1.00  0.00     0.035 C 
HETATM   21  C18 UNL     1      23.223   0.827  52.744  1.00  0.00     0.011 C 
HETATM   22  C19 UNL     1      24.589   1.255  52.274  1.00  0.00     0.064 C 
HETATM   23  H10 UNL     1      19.568   1.478  47.378  1.00  0.00     0.189 HD
ENDROOT
BRANCH   1  24
HETATM   24  O1  UNL     1      26.168   1.791  54.390  1.00  0.00    -0.365 OA
HETATM   25  H1  UNL     1      26.276   2.442  55.161  1.00  0.00     0.217 HD
ENDBRANCH   1  24
TORSDOF 1
ENDMDL
MODEL 9
REMARK VINA RESULT:      -7.6      7.685      9.853
REMARK  1 active torsions:
REMARK  status: ('A' for Active; 'I' for Inactive)
REMARK    1  A    between atoms: O1_1  and  C1_2 
ROOT
HETATM    1  C1  UNL     1      31.881  11.267  46.544  1.00  0.00     0.040 C 
HETATM    2  C2  UNL     1      32.280  10.446  45.513  1.00  0.00     0.011 C 
HETATM    3  C3  UNL     1      32.801   9.077  45.039  1.00  0.00     0.046 C 
HETATM    4  C4  UNL     1      33.143   8.002  45.833  1.00  0.00    -0.019 C 
HETATM    5  C5  UNL     1      33.565   6.948  44.846  1.00  0.00     0.007 C 
HETATM    6  C6  UNL     1      32.749   5.681  45.036  1.00  0.00     0.062 C 
HETATM    7  C7  UNL     1      33.163   4.967  46.281  1.00  0.00     0.064 A 
HETATM    8  N1  UNL     1      34.221   4.367  45.946  1.00  0.00    -0.242 NA
HETATM    9  C8  UNL     1      35.044   3.541  46.714  1.00  0.00     0.255 A 
HETATM   10  N2  UNL     1      34.713   3.339  47.932  1.00  0.00    -0.168 NA
HETATM   11  N3  UNL     1      33.542   3.962  48.424  1.00  0.00    -0.275 N 
HETATM   12  C9  UNL     1      32.692   4.821  47.616  1.00  0.00     0.075 A 
HETATM   13  C10 UNL     1      31.809   5.172  48.511  1.00  0.00     0.040 C 
HETATM   14  C11 UNL     1      30.721   6.095  48.363  1.00  0.00    -0.053 C 
HETATM   15  C12 UNL     1      30.001   7.184  48.353  1.00  0.00    -0.073 C 
HETATM   16  C13 UNL     1      28.691   7.771  48.086  1.00  0.00     0.034 C 
HETATM   17  C14 UNL     1      27.641   6.689  48.115  1.00  0.00     0.005 C 
HETATM   18  C15 UNL     1      28.312   5.413  48.517  1.00  0.00     0.005 C 
HETATM   19  C16 UNL     1      29.630   5.209  47.813  1.00  0.00     0.039 C 
HETATM   20  C17 UNL     1      30.991   8.270  48.687  1.00  0.00     0.035 C 
HETATM   21  C18 UNL     1      30.856   9.371  47.678  1.00  0.00     0.011 C 
HETATM   22  C19 UNL     1      32.039  10.305  47.715  1.00  0.00     0.064 C 
HETATM   23  H10 UNL     1      33.462   3.654  49.440  1.00  0.00     0.189 HD
ENDROOT
BRANCH   1  24
HETATM   24  O1  UNL     1      31.473  12.565  46.362  1.00  0.00    -0.365 OA
HETATM   25  H1  UNL     1      30.650  12.910  46.847  1.00  0.00     0.217 HD
ENDBRANCH   1  24
TORSDOF 1
ENDMDL
