MODEL 1
REMARK VINA RESULT:      -6.5      0.000      0.000
REMARK  7 active torsions:
REMARK  status: ('A' for Active; 'I' for Inactive)
REMARK    1  A    between atoms: N1_2  and  C3_4 
REMARK    2  A    between atoms: C3_4  and  C4_5 
REMARK    3  A    between atoms: C5_6  and  C6_7 
REMARK       I    between atoms: C6_7  and  N2_9 
REMARK    4  A    between atoms: N2_9  and  C7_10 
REMARK    5  A    between atoms: C11_16  and  N5_17 
REMARK    6  A    between atoms: N5_17  and  C12_18 
REMARK    7  A    between atoms: C13_19  and  C14_20 
ROOT
HETATM    1  C7  UNL     1      24.136   0.422  52.767  1.00  0.00     0.057 C 
HETATM    2  C8  UNL     1      25.057  -0.207  53.563  1.00  0.00     0.191 C 
HETATM    3  N3  UNL     1      25.422  -0.955  54.682  1.00  0.00    -0.413 NA
HETATM    4  C9  UNL     1      24.660  -1.300  55.649  1.00  0.00     0.435 C 
HETATM    5  N4  UNL     1      23.440  -0.718  55.231  1.00  0.00    -0.272 NA
HETATM    6  C10 UNL     1      22.387  -1.375  54.905  1.00  0.00     0.115 C 
HETATM    7  C11 UNL     1      21.439  -0.280  54.555  1.00  0.00     0.144 C 
HETATM    8  C15 UNL     1      21.763   0.434  53.322  1.00  0.00     0.001 C 
HETATM    9  C16 UNL     1      22.722   0.803  52.493  1.00  0.00    -0.001 C 
ENDROOT
BRANCH   1  10
HETATM   10  N2  UNL     1      25.166   0.851  51.831  1.00  0.00    -0.347 N 
HETATM   11  C6  UNL     1      25.363   2.253  51.954  1.00  0.00     0.241 C 
HETATM   12  O1  UNL     1      24.660   2.885  52.804  1.00  0.00    -0.269 OA
HETATM   13  H11 UNL     1      25.802   0.414  51.096  1.00  0.00     0.163 HD
BRANCH  11  14
HETATM   14  C5  UNL     1      26.348   2.983  51.135  1.00  0.00     0.072 C 
HETATM   15  C4  UNL     1      26.102   3.458  49.908  1.00  0.00     0.008 C 
BRANCH  15  16
HETATM   16  C3  UNL     1      27.098   4.193  49.088  1.00  0.00     0.299 C 
BRANCH  16  17
HETATM   17  N1  UNL     1      26.908   5.610  49.058  1.00  0.00     0.083 N 
HETATM   18  C1  UNL     1      25.536   5.997  48.799  1.00  0.00     0.309 C 
HETATM   19  C2  UNL     1      27.874   6.313  48.264  1.00  0.00     0.309 C 
ENDBRANCH  16  17
ENDBRANCH  15  16
ENDBRANCH  11  14
ENDBRANCH   1  10
BRANCH   7  20
HETATM   20  N5  UNL     1      20.159  -0.981  54.330  1.00  0.00    -0.387 N 
HETATM   21  H16 UNL     1      19.775  -1.760  54.922  1.00  0.00     0.160 HD
BRANCH  20  22
HETATM   22  C12 UNL     1      19.213  -0.755  53.303  1.00  0.00     0.080 C 
HETATM   23  C13 UNL     1      18.046  -1.401  53.442  1.00  0.00     0.001 C 
BRANCH  23  24
HETATM   24  C14 UNL     1      16.794  -1.463  52.632  1.00  0.00     0.113 C 
HETATM   25 BR1  UNL     1      16.983  -0.267  51.117  1.00  0.00    -0.092 Br
ENDBRANCH  23  24
ENDBRANCH  20  22
ENDBRANCH   7  20
TORSDOF 7
ENDMDL
MODEL 2
REMARK VINA RESULT:      -6.5      2.531      3.180
REMARK  7 active torsions:
REMARK  status: ('A' for Active; 'I' for Inactive)
REMARK    1  A    between atoms: N1_2  and  C3_4 
REMARK    2  A    between atoms: C3_4  and  C4_5 
REMARK    3  A    between atoms: C5_6  and  C6_7 
REMARK       I    between atoms: C6_7  and  N2_9 
REMARK    4  A    between atoms: N2_9  and  C7_10 
REMARK    5  A    between atoms: C11_16  and  N5_17 
REMARK    6  A    between atoms: N5_17  and  C12_18 
REMARK    7  A    between atoms: C13_19  and  C14_20 
ROOT
HETATM    1  C7  UNL     1      25.793   2.283  51.985  1.00  0.00     0.057 C 
HETATM    2  C8  UNL     1      26.662   1.223  51.962  1.00  0.00     0.191 C 
HETATM    3  N3  UNL     1      27.009  -0.101  52.231  1.00  0.00    -0.413 NA
HETATM    4  C9  UNL     1      26.323  -0.946  52.901  1.00  0.00     0.435 C 
HETATM    5  N4  UNL     1      25.203  -0.153  53.241  1.00  0.00    -0.272 NA
HETATM    6  C10 UNL     1      24.006  -0.356  52.825  1.00  0.00     0.115 C 
HETATM    7  C11 UNL     1      23.262   0.758  53.478  1.00  0.00     0.144 C 
HETATM    8  C15 UNL     1      23.563   2.085  52.947  1.00  0.00     0.001 C 
HETATM    9  C16 UNL     1      24.462   2.845  52.349  1.00  0.00    -0.001 C 
ENDROOT
BRANCH   1  10
HETATM   10  N2  UNL     1      26.761   3.152  51.330  1.00  0.00    -0.347 N 
HETATM   11  C6  UNL     1      26.289   3.489  50.032  1.00  0.00     0.241 C 
HETATM   12  O1  UNL     1      25.170   3.016  49.658  1.00  0.00    -0.269 OA
HETATM   13  H11 UNL     1      27.703   3.598  51.548  1.00  0.00     0.163 HD
BRANCH  11  14
HETATM   14  C5  UNL     1      27.052   4.362  49.121  1.00  0.00     0.072 C 
HETATM   15  C4  UNL     1      26.816   5.669  48.958  1.00  0.00     0.008 C 
BRANCH  15  16
HETATM   16  C3  UNL     1      27.588   6.544  48.038  1.00  0.00     0.299 C 
BRANCH  16  17
HETATM   17  N1  UNL     1      27.754   7.886  48.501  1.00  0.00     0.083 N 
HETATM   18  C1  UNL     1      29.143   8.272  48.645  1.00  0.00     0.309 C 
HETATM   19  C2  UNL     1      26.933   8.223  49.627  1.00  0.00     0.309 C 
ENDBRANCH  16  17
ENDBRANCH  15  16
ENDBRANCH  11  14
ENDBRANCH   1  10
BRANCH   7  20
HETATM   20  N5  UNL     1      21.848   0.471  53.161  1.00  0.00    -0.387 N 
HETATM   21  H16 UNL     1      21.285  -0.327  53.547  1.00  0.00     0.160 HD
BRANCH  20  22
HETATM   22  C12 UNL     1      20.988   1.190  52.300  1.00  0.00     0.080 C 
HETATM   23  C13 UNL     1      20.922   0.734  51.040  1.00  0.00     0.001 C 
BRANCH  23  24
HETATM   24  C14 UNL     1      20.172   1.161  49.822  1.00  0.00     0.113 C 
HETATM   25 BR1  UNL     1      21.454   1.624  48.442  1.00  0.00    -0.092 Br
ENDBRANCH  23  24
ENDBRANCH  20  22
ENDBRANCH   7  20
TORSDOF 7
ENDMDL
MODEL 3
REMARK VINA RESULT:      -6.4      4.211      6.251
REMARK  7 active torsions:
REMARK  status: ('A' for Active; 'I' for Inactive)
REMARK    1  A    between atoms: N1_2  and  C3_4 
REMARK    2  A    between atoms: C3_4  and  C4_5 
REMARK    3  A    between atoms: C5_6  and  C6_7 
REMARK       I    between atoms: C6_7  and  N2_9 
REMARK    4  A    between atoms: N2_9  and  C7_10 
REMARK    5  A    between atoms: C11_16  and  N5_17 
REMARK    6  A    between atoms: N5_17  and  C12_18 
REMARK    7  A    between atoms: C13_19  and  C14_20 
ROOT
HETATM    1  C7  UNL     1      25.505   3.774  50.757  1.00  0.00     0.057 C 
HETATM    2  C8  UNL     1      24.209   4.188  50.597  1.00  0.00     0.191 C 
HETATM    3  N3  UNL     1      22.830   4.010  50.706  1.00  0.00    -0.413 NA
HETATM    4  C9  UNL     1      22.226   2.945  51.071  1.00  0.00     0.435 C 
HETATM    5  N4  UNL     1      23.330   2.093  51.303  1.00  0.00    -0.272 NA
HETATM    6  C10 UNL     1      23.669   1.624  52.449  1.00  0.00     0.115 C 
HETATM    7  C11 UNL     1      24.874   0.818  52.106  1.00  0.00     0.144 C 
HETATM    8  C15 UNL     1      26.045   1.604  51.726  1.00  0.00     0.001 C 
HETATM    9  C16 UNL     1      26.478   2.738  51.205  1.00  0.00    -0.001 C 
ENDROOT
BRANCH   1  10
HETATM   10  N2  UNL     1      26.021   5.011  50.184  1.00  0.00    -0.347 N 
HETATM   11  C6  UNL     1      26.950   4.703  49.154  1.00  0.00     0.241 C 
HETATM   12  O1  UNL     1      27.181   3.479  48.900  1.00  0.00    -0.269 OA
HETATM   13  H11 UNL     1      25.896   6.060  50.318  1.00  0.00     0.163 HD
BRANCH  11  14
HETATM   14  C5  UNL     1      27.644   5.751  48.382  1.00  0.00     0.072 C 
HETATM   15  C4  UNL     1      28.973   5.837  48.255  1.00  0.00     0.008 C 
BRANCH  15  16
HETATM   16  C3  UNL     1      29.666   6.895  47.476  1.00  0.00     0.299 C 
BRANCH  16  17
HETATM   17  N1  UNL     1      30.574   7.691  48.241  1.00  0.00     0.083 N 
HETATM   18  C1  UNL     1      29.913   8.692  49.053  1.00  0.00     0.309 C 
HETATM   19  C2  UNL     1      31.689   8.191  47.489  1.00  0.00     0.309 C 
ENDBRANCH  16  17
ENDBRANCH  15  16
ENDBRANCH  11  14
ENDBRANCH   1  10
BRANCH   7  20
HETATM   20  N5  UNL     1      25.205   0.125  53.367  1.00  0.00    -0.387 N 
HETATM   21  H16 UNL     1      24.553  -0.011  54.180  1.00  0.00     0.160 HD
BRANCH  20  22
HETATM   22  C12 UNL     1      26.429  -0.481  53.730  1.00  0.00     0.080 C 
HETATM   23  C13 UNL     1      27.295   0.312  54.379  1.00  0.00     0.001 C 
BRANCH  23  24
HETATM   24  C14 UNL     1      28.664   0.111  54.938  1.00  0.00     0.113 C 
HETATM   25 BR1  UNL     1      29.727  -0.850  53.631  1.00  0.00    -0.092 Br
ENDBRANCH  23  24
ENDBRANCH  20  22
ENDBRANCH   7  20
TORSDOF 7
ENDMDL
MODEL 4
REMARK VINA RESULT:      -6.4      1.841      2.831
REMARK  7 active torsions:
REMARK  status: ('A' for Active; 'I' for Inactive)
REMARK    1  A    between atoms: N1_2  and  C3_4 
REMARK    2  A    between atoms: C3_4  and  C4_5 
REMARK    3  A    between atoms: C5_6  and  C6_7 
REMARK       I    between atoms: C6_7  and  N2_9 
REMARK    4  A    between atoms: N2_9  and  C7_10 
REMARK    5  A    between atoms: C11_16  and  N5_17 
REMARK    6  A    between atoms: N5_17  and  C12_18 
REMARK    7  A    between atoms: C13_19  and  C14_20 
ROOT
HETATM    1  C7  UNL     1      25.713   2.541  51.774  1.00  0.00     0.057 C 
HETATM    2  C8  UNL     1      26.490   1.412  51.806  1.00  0.00     0.191 C 
HETATM    3  N3  UNL     1      26.713   0.071  52.115  1.00  0.00    -0.413 NA
HETATM    4  C9  UNL     1      25.935  -0.698  52.777  1.00  0.00     0.435 C 
HETATM    5  N4  UNL     1      24.875   0.195  53.058  1.00  0.00    -0.272 NA
HETATM    6  C10 UNL     1      23.680   0.083  52.602  1.00  0.00     0.115 C 
HETATM    7  C11 UNL     1      23.011   1.271  53.203  1.00  0.00     0.144 C 
HETATM    8  C15 UNL     1      23.441   2.554  52.656  1.00  0.00     0.001 C 
HETATM    9  C16 UNL     1      24.422   3.221  52.075  1.00  0.00    -0.001 C 
ENDROOT
BRANCH   1  10
HETATM   10  N2  UNL     1      26.773   3.310  51.136  1.00  0.00    -0.347 N 
HETATM   11  C6  UNL     1      26.385   3.639  49.810  1.00  0.00     0.241 C 
HETATM   12  O1  UNL     1      25.248   3.243  49.401  1.00  0.00    -0.269 OA
HETATM   13  H11 UNL     1      27.738   3.688  51.383  1.00  0.00     0.163 HD
BRANCH  11  14
HETATM   14  C5  UNL     1      27.253   4.420  48.907  1.00  0.00     0.072 C 
HETATM   15  C4  UNL     1      27.281   5.756  48.860  1.00  0.00     0.008 C 
BRANCH  15  16
HETATM   16  C3  UNL     1      28.157   6.537  47.950  1.00  0.00     0.299 C 
BRANCH  16  17
HETATM   17  N1  UNL     1      28.336   7.903  48.329  1.00  0.00     0.083 N 
HETATM   18  C1  UNL     1      29.710   8.232  48.650  1.00  0.00     0.309 C 
HETATM   19  C2  UNL     1      27.382   8.373  49.292  1.00  0.00     0.309 C 
ENDBRANCH  16  17
ENDBRANCH  15  16
ENDBRANCH  11  14
ENDBRANCH   1  10
BRANCH   7  20
HETATM   20  N5  UNL     1      21.590   1.096  52.840  1.00  0.00    -0.387 N 
HETATM   21  H16 UNL     1      21.143   1.415  51.944  1.00  0.00     0.160 HD
BRANCH  20  22
HETATM   22  C12 UNL     1      20.568   0.481  53.601  1.00  0.00     0.080 C 
HETATM   23  C13 UNL     1      19.708  -0.276  52.904  1.00  0.00     0.001 C 
BRANCH  23  24
HETATM   24  C14 UNL     1      18.512  -1.089  53.272  1.00  0.00     0.113 C 
HETATM   25 BR1  UNL     1      17.043  -0.582  52.111  1.00  0.00    -0.092 Br
ENDBRANCH  23  24
ENDBRANCH  20  22
ENDBRANCH   7  20
TORSDOF 7
ENDMDL
MODEL 5
REMARK VINA RESULT:      -6.4      4.045      8.656
REMARK  7 active torsions:
REMARK  status: ('A' for Active; 'I' for Inactive)
REMARK    1  A    between atoms: N1_2  and  C3_4 
REMARK    2  A    between atoms: C3_4  and  C4_5 
REMARK    3  A    between atoms: C5_6  and  C6_7 
REMARK       I    between atoms: C6_7  and  N2_9 
REMARK    4  A    between atoms: N2_9  and  C7_10 
REMARK    5  A    between atoms: C11_16  and  N5_17 
REMARK    6  A    between atoms: N5_17  and  C12_18 
REMARK    7  A    between atoms: C13_19  and  C14_20 
ROOT
HETATM    1  C7  UNL     1      22.090   1.111  52.385  1.00  0.00     0.057 C 
HETATM    2  C8  UNL     1      21.407   2.255  52.067  1.00  0.00     0.191 C 
HETATM    3  N3  UNL     1      21.316   3.637  51.896  1.00  0.00    -0.413 NA
HETATM    4  C9  UNL     1      22.211   4.501  52.188  1.00  0.00     0.435 C 
HETATM    5  N4  UNL     1      23.225   3.655  52.694  1.00  0.00    -0.272 NA
HETATM    6  C10 UNL     1      24.373   3.476  52.148  1.00  0.00     0.115 C 
HETATM    7  C11 UNL     1      25.009   2.507  53.084  1.00  0.00     0.144 C 
HETATM    8  C15 UNL     1      24.432   1.165  53.057  1.00  0.00     0.001 C 
HETATM    9  C16 UNL     1      23.350   0.446  52.819  1.00  0.00    -0.001 C 
ENDROOT
BRANCH   1  10
HETATM   10  N2  UNL     1      20.917   0.284  52.134  1.00  0.00    -0.347 N 
HETATM   11  C6  UNL     1      20.312  -0.064  53.372  1.00  0.00     0.241 C 
HETATM   12  O1  UNL     1      20.846   0.366  54.443  1.00  0.00    -0.269 OA
HETATM   13  H11 UNL     1      20.396  -0.122  51.299  1.00  0.00     0.163 HD
BRANCH  11  14
HETATM   14  C5  UNL     1      19.099  -0.899  53.447  1.00  0.00     0.072 C 
HETATM   15  C4  UNL     1      18.050  -0.778  52.624  1.00  0.00     0.008 C 
BRANCH  15  16
HETATM   16  C3  UNL     1      16.830  -1.621  52.704  1.00  0.00     0.299 C 
BRANCH  16  17
HETATM   17  N1  UNL     1      15.607  -0.910  52.499  1.00  0.00     0.083 N 
HETATM   18  C1  UNL     1      14.681  -1.607  51.628  1.00  0.00     0.309 C 
HETATM   19  C2  UNL     1      15.782   0.476  52.178  1.00  0.00     0.309 C 
ENDBRANCH  16  17
ENDBRANCH  15  16
ENDBRANCH  11  14
ENDBRANCH   1  10
BRANCH   7  20
HETATM   20  N5  UNL     1      26.395   2.395  52.587  1.00  0.00    -0.387 N 
HETATM   21  H16 UNL     1      26.688   2.420  51.578  1.00  0.00     0.160 HD
BRANCH  20  22
HETATM   22  C12 UNL     1      27.580   2.237  53.343  1.00  0.00     0.080 C 
HETATM   23  C13 UNL     1      27.825   0.990  53.775  1.00  0.00     0.001 C 
BRANCH  23  24
HETATM   24  C14 UNL     1      28.918   0.371  54.580  1.00  0.00     0.113 C 
HETATM   25 BR1  UNL     1      29.704  -1.069  53.545  1.00  0.00    -0.092 Br
ENDBRANCH  23  24
ENDBRANCH  20  22
ENDBRANCH   7  20
TORSDOF 7
ENDMDL
MODEL 6
REMARK VINA RESULT:      -6.3      3.447      4.890
REMARK  7 active torsions:
REMARK  status: ('A' for Active; 'I' for Inactive)
REMARK    1  A    between atoms: N1_2  and  C3_4 
REMARK    2  A    between atoms: C3_4  and  C4_5 
REMARK    3  A    between atoms: C5_6  and  C6_7 
REMARK       I    between atoms: C6_7  and  N2_9 
REMARK    4  A    between atoms: N2_9  and  C7_10 
REMARK    5  A    between atoms: C11_16  and  N5_17 
REMARK    6  A    between atoms: N5_17  and  C12_18 
REMARK    7  A    between atoms: C13_19  and  C14_20 
ROOT
HETATM    1  C7  UNL     1      22.840   1.489  51.624  1.00  0.00     0.057 C 
HETATM    2  C8  UNL     1      23.067   2.787  52.000  1.00  0.00     0.191 C 
HETATM    3  N3  UNL     1      22.661   4.105  52.208  1.00  0.00    -0.413 NA
HETATM    4  C9  UNL     1      21.529   4.612  51.897  1.00  0.00     0.435 C 
HETATM    5  N4  UNL     1      20.895   3.485  51.325  1.00  0.00    -0.272 NA
HETATM    6  C10 UNL     1      19.865   2.894  51.814  1.00  0.00     0.115 C 
HETATM    7  C11 UNL     1      19.642   1.800  50.827  1.00  0.00     0.144 C 
HETATM    8  C15 UNL     1      20.653   0.746  50.848  1.00  0.00     0.001 C 
HETATM    9  C16 UNL     1      21.910   0.442  51.118  1.00  0.00    -0.001 C 
ENDROOT
BRANCH   1  10
HETATM   10  N2  UNL     1      24.220   1.116  51.908  1.00  0.00    -0.347 N 
HETATM   11  C6  UNL     1      24.274   0.409  53.139  1.00  0.00     0.241 C 
HETATM   12  O1  UNL     1      23.187   0.217  53.770  1.00  0.00    -0.269 OA
HETATM   13  H11 UNL     1      25.179   1.223  51.457  1.00  0.00     0.163 HD
BRANCH  11  14
HETATM   14  C5  UNL     1      25.541  -0.104  53.696  1.00  0.00     0.072 C 
HETATM   15  C4  UNL     1      26.451   0.655  54.316  1.00  0.00     0.008 C 
BRANCH  15  16
HETATM   16  C3  UNL     1      27.725   0.133  54.875  1.00  0.00     0.299 C 
BRANCH  16  17
HETATM   17  N1  UNL     1      28.900   0.743  54.335  1.00  0.00     0.083 N 
HETATM   18  C1  UNL     1      28.644   2.030  53.720  1.00  0.00     0.309 C 
HETATM   19  C2  UNL     1      29.703  -0.138  53.538  1.00  0.00     0.309 C 
ENDBRANCH  16  17
ENDBRANCH  15  16
ENDBRANCH  11  14
ENDBRANCH   1  10
BRANCH   7  20
HETATM   20  N5  UNL     1      18.368   1.191  51.258  1.00  0.00    -0.387 N 
HETATM   21  H16 UNL     1      17.409   1.519  50.981  1.00  0.00     0.160 HD
BRANCH  20  22
HETATM   22  C12 UNL     1      18.181   0.076  52.107  1.00  0.00     0.080 C 
HETATM   23  C13 UNL     1      17.069  -0.640  51.881  1.00  0.00     0.001 C 
BRANCH  23  24
HETATM   24  C14 UNL     1      16.477  -1.858  52.507  1.00  0.00     0.113 C 
HETATM   25 BR1  UNL     1      17.813  -2.668  53.658  1.00  0.00    -0.092 Br
ENDBRANCH  23  24
ENDBRANCH  20  22
ENDBRANCH   7  20
TORSDOF 7
ENDMDL
MODEL 7
REMARK VINA RESULT:      -6.2      3.524      5.517
REMARK  7 active torsions:
REMARK  status: ('A' for Active; 'I' for Inactive)
REMARK    1  A    between atoms: N1_2  and  C3_4 
REMARK    2  A    between atoms: C3_4  and  C4_5 
REMARK    3  A    between atoms: C5_6  and  C6_7 
REMARK       I    between atoms: C6_7  and  N2_9 
REMARK    4  A    between atoms: N2_9  and  C7_10 
REMARK    5  A    between atoms: C11_16  and  N5_17 
REMARK    6  A    between atoms: N5_17  and  C12_18 
REMARK    7  A    between atoms: C13_19  and  C14_20 
ROOT
HETATM    1  C7  UNL     1      22.989   2.009  51.985  1.00  0.00     0.057 C 
HETATM    2  C8  UNL     1      21.717   1.891  52.480  1.00  0.00     0.191 C 
HETATM    3  N3  UNL     1      20.739   1.253  53.244  1.00  0.00    -0.413 NA
HETATM    4  C9  UNL     1      20.854   0.132  53.846  1.00  0.00     0.435 C 
HETATM    5  N4  UNL     1      22.184  -0.206  53.502  1.00  0.00    -0.272 NA
HETATM    6  C10 UNL     1      23.157  -0.296  54.335  1.00  0.00     0.115 C 
HETATM    7  C11 UNL     1      24.291  -0.664  53.441  1.00  0.00     0.144 C 
HETATM    8  C15 UNL     1      24.734   0.404  52.548  1.00  0.00     0.001 C 
HETATM    9  C16 UNL     1      24.385   1.497  51.894  1.00  0.00    -0.001 C 
ENDROOT
BRANCH   1  10
HETATM   10  N2  UNL     1      22.641   3.216  51.248  1.00  0.00    -0.347 N 
HETATM   11  C6  UNL     1      23.074   4.357  51.976  1.00  0.00     0.241 C 
HETATM   12  O1  UNL     1      23.661   4.171  53.089  1.00  0.00    -0.269 OA
HETATM   13  H11 UNL     1      22.163   3.477  50.332  1.00  0.00     0.163 HD
BRANCH  11  14
HETATM   14  C5  UNL     1      22.865   5.731  51.483  1.00  0.00     0.072 C 
HETATM   15  C4  UNL     1      23.853   6.580  51.180  1.00  0.00     0.008 C 
BRANCH  15  16
HETATM   16  C3  UNL     1      23.636   7.963  50.684  1.00  0.00     0.299 C 
BRANCH  16  17
HETATM   17  N1  UNL     1      24.649   8.437  49.792  1.00  0.00     0.083 N 
HETATM   18  C1  UNL     1      24.276   8.332  48.396  1.00  0.00     0.309 C 
HETATM   19  C2  UNL     1      25.963   7.944  50.086  1.00  0.00     0.309 C 
ENDBRANCH  16  17
ENDBRANCH  15  16
ENDBRANCH  11  14
ENDBRANCH   1  10
BRANCH   7  20
HETATM   20  N5  UNL     1      25.401  -0.940  54.375  1.00  0.00    -0.387 N 
HETATM   21  H16 UNL     1      25.629  -1.876  54.795  1.00  0.00     0.160 HD
BRANCH  20  22
HETATM   22  C12 UNL     1      26.356  -0.030  54.883  1.00  0.00     0.080 C 
HETATM   23  C13 UNL     1      27.585  -0.128  54.353  1.00  0.00     0.001 C 
BRANCH  23  24
HETATM   24  C14 UNL     1      28.869   0.599  54.574  1.00  0.00     0.113 C 
HETATM   25 BR1  UNL     1      28.742   2.340  53.727  1.00  0.00    -0.092 Br
ENDBRANCH  23  24
ENDBRANCH  20  22
ENDBRANCH   7  20
TORSDOF 7
ENDMDL
MODEL 8
REMARK VINA RESULT:      -6.2      1.604      1.997
REMARK  7 active torsions:
REMARK  status: ('A' for Active; 'I' for Inactive)
REMARK    1  A    between atoms: N1_2  and  C3_4 
REMARK    2  A    between atoms: C3_4  and  C4_5 
REMARK    3  A    between atoms: C5_6  and  C6_7 
REMARK       I    between atoms: C6_7  and  N2_9 
REMARK    4  A    between atoms: N2_9  and  C7_10 
REMARK    5  A    between atoms: C11_16  and  N5_17 
REMARK    6  A    between atoms: N5_17  and  C12_18 
REMARK    7  A    between atoms: C13_19  and  C14_20 
ROOT
HETATM    1  C7  UNL     1      22.895   1.789  51.942  1.00  0.00     0.057 C 
HETATM    2  C8  UNL     1      24.141   1.228  52.040  1.00  0.00     0.191 C 
HETATM    3  N3  UNL     1      25.054   0.325  52.586  1.00  0.00    -0.413 NA
HETATM    4  C9  UNL     1      24.854  -0.451  53.581  1.00  0.00     0.435 C 
HETATM    5  N4  UNL     1      23.519  -0.113  53.904  1.00  0.00    -0.272 NA
HETATM    6  C10 UNL     1      22.515  -0.906  53.800  1.00  0.00     0.115 C 
HETATM    7  C11 UNL     1      21.392  -0.039  54.257  1.00  0.00     0.144 C 
HETATM    8  C15 UNL     1      21.042   1.039  53.336  1.00  0.00     0.001 C 
HETATM    9  C16 UNL     1      21.476   1.853  52.390  1.00  0.00    -0.001 C 
ENDROOT
BRANCH   1  10
HETATM   10  N2  UNL     1      23.337   2.705  50.899  1.00  0.00    -0.347 N 
HETATM   11  C6  UNL     1      23.818   3.902  51.494  1.00  0.00     0.241 C 
HETATM   12  O1  UNL     1      23.794   3.994  52.762  1.00  0.00    -0.269 OA
HETATM   13  H11 UNL     1      23.401   2.726  49.836  1.00  0.00     0.163 HD
BRANCH  11  14
HETATM   14  C5  UNL     1      24.339   5.025  50.692  1.00  0.00     0.072 C 
HETATM   15  C4  UNL     1      25.052   4.881  49.569  1.00  0.00     0.008 C 
BRANCH  15  16
HETATM   16  C3  UNL     1      25.574   6.015  48.766  1.00  0.00     0.299 C 
BRANCH  16  17
HETATM   17  N1  UNL     1      26.999   6.138  48.772  1.00  0.00     0.083 N 
HETATM   18  C1  UNL     1      27.485   7.193  47.907  1.00  0.00     0.309 C 
HETATM   19  C2  UNL     1      27.694   4.892  48.624  1.00  0.00     0.309 C 
ENDBRANCH  16  17
ENDBRANCH  15  16
ENDBRANCH  11  14
ENDBRANCH   1  10
BRANCH   7  20
HETATM   20  N5  UNL     1      20.237  -0.958  54.311  1.00  0.00    -0.387 N 
HETATM   21  H16 UNL     1      20.025  -1.628  55.093  1.00  0.00     0.160 HD
BRANCH  20  22
HETATM   22  C12 UNL     1      19.211  -1.122  53.353  1.00  0.00     0.080 C 
HETATM   23  C13 UNL     1      18.200  -1.923  53.722  1.00  0.00     0.001 C 
BRANCH  23  24
HETATM   24  C14 UNL     1      16.942  -2.374  53.059  1.00  0.00     0.113 C 
HETATM   25 BR1  UNL     1      16.685  -4.257  53.445  1.00  0.00    -0.092 Br
ENDBRANCH  23  24
ENDBRANCH  20  22
ENDBRANCH   7  20
TORSDOF 7
ENDMDL
MODEL 9
REMARK VINA RESULT:      -6.2      4.297     10.048
REMARK  7 active torsions:
REMARK  status: ('A' for Active; 'I' for Inactive)
REMARK    1  A    between atoms: N1_2  and  C3_4 
REMARK    2  A    between atoms: C3_4  and  C4_5 
REMARK    3  A    between atoms: C5_6  and  C6_7 
REMARK       I    between atoms: C6_7  and  N2_9 
REMARK    4  A    between atoms: N2_9  and  C7_10 
REMARK    5  A    between atoms: C11_16  and  N5_17 
REMARK    6  A    between atoms: N5_17  and  C12_18 
REMARK    7  A    between atoms: C13_19  and  C14_20 
ROOT
HETATM    1  C7  UNL     1      25.788   4.142  49.948  1.00  0.00     0.057 C 
HETATM    2  C8  UNL     1      24.835   4.886  50.593  1.00  0.00     0.191 C 
HETATM    3  N3  UNL     1      24.243   6.096  50.954  1.00  0.00    -0.413 NA
HETATM    4  C9  UNL     1      24.696   7.267  50.715  1.00  0.00     0.435 C 
HETATM    5  N4  UNL     1      25.887   6.943  50.025  1.00  0.00    -0.272 NA
HETATM    6  C10 UNL     1      26.118   7.210  48.791  1.00  0.00     0.115 C 
HETATM    7  C11 UNL     1      27.486   6.648  48.607  1.00  0.00     0.144 C 
HETATM    8  C15 UNL     1      27.553   5.189  48.633  1.00  0.00     0.001 C 
HETATM    9  C16 UNL     1      27.000   4.078  49.084  1.00  0.00    -0.001 C 
ENDROOT
BRANCH   1  10
HETATM   10  N2  UNL     1      25.209   2.895  50.430  1.00  0.00    -0.347 N 
HETATM   11  C6  UNL     1      26.122   2.261  51.314  1.00  0.00     0.241 C 
HETATM   12  O1  UNL     1      27.235   2.834  51.542  1.00  0.00    -0.269 OA
HETATM   13  H11 UNL     1      24.309   2.339  50.307  1.00  0.00     0.163 HD
BRANCH  11  14
HETATM   14  C5  UNL     1      25.818   0.975  51.968  1.00  0.00     0.072 C 
HETATM   15  C4  UNL     1      24.749   0.758  52.743  1.00  0.00     0.008 C 
BRANCH  15  16
HETATM   16  C3  UNL     1      24.448  -0.539  53.399  1.00  0.00     0.299 C 
BRANCH  16  17
HETATM   17  N1  UNL     1      23.055  -0.848  53.486  1.00  0.00     0.083 N 
HETATM   18  C1  UNL     1      22.217   0.081  52.755  1.00  0.00     0.309 C 
HETATM   19  C2  UNL     1      22.599  -1.125  54.817  1.00  0.00     0.309 C 
ENDBRANCH  16  17
ENDBRANCH  15  16
ENDBRANCH  11  14
ENDBRANCH   1  10
BRANCH   7  20
HETATM   20  N5  UNL     1      27.862   7.078  47.245  1.00  0.00    -0.387 N 
HETATM   21  H16 UNL     1      27.329   6.863  46.366  1.00  0.00     0.160 HD
BRANCH  20  22
HETATM   22  C12 UNL     1      28.985   7.844  46.855  1.00  0.00     0.080 C 
HETATM   23  C13 UNL     1      30.177   7.340  47.208  1.00  0.00     0.001 C 
BRANCH  23  24
HETATM   24  C14 UNL     1      31.588   7.789  47.018  1.00  0.00     0.113 C 
HETATM   25 BR1  UNL     1      32.437   7.902  48.759  1.00  0.00    -0.092 Br
ENDBRANCH  23  24
ENDBRANCH  20  22
ENDBRANCH   7  20
TORSDOF 7
ENDMDL
