MODEL 1
REMARK VINA RESULT:      -8.8      0.000      0.000
REMARK  3 active torsions:
REMARK  status: ('A' for Active; 'I' for Inactive)
REMARK    1  A    between atoms: C1_2  and  C2_4 
REMARK    2  A    between atoms: C2_4  and  C3_5 
REMARK    3  A    between atoms: C3_5  and  C4_6 
ROOT
HETATM    1  C4  UNL     1      25.784   0.604  52.326  1.00  0.00    -0.025 A 
HETATM    2  C5  UNL     1      26.039   1.773  51.602  1.00  0.00    -0.026 A 
HETATM    3  C6  UNL     1      24.821   2.354  51.341  1.00  0.00     0.028 A 
HETATM    4  N1  UNL     1      23.859   1.571  51.884  1.00  0.00    -0.270 N 
HETATM    5  C7  UNL     1      24.422   0.489  52.496  1.00  0.00     0.042 A 
HETATM    6  C8  UNL     1      23.677  -0.569  53.187  1.00  0.00     0.110 A 
HETATM    7  C9  UNL     1      23.989  -0.711  54.627  1.00  0.00    -0.010 C 
HETATM    8  C10 UNL     1      23.080  -1.281  55.433  1.00  0.00    -0.002 C 
HETATM    9  C11 UNL     1      21.797  -1.754  54.872  1.00  0.00     0.014 C 
HETATM   10  C12 UNL     1      21.427  -1.215  53.719  1.00  0.00    -0.000 C 
HETATM   11  C13 UNL     1      22.194  -0.319  53.135  1.00  0.00     0.038 A 
HETATM   12  N2  UNL     1      21.562   0.794  52.511  1.00  0.00    -0.310 N 
HETATM   13  C14 UNL     1      22.427   1.732  51.887  1.00  0.00     0.331 A 
HETATM   14  O3  UNL     1      21.847   2.713  51.339  1.00  0.00    -0.246 OA
HETATM   15  C15 UNL     1      25.379   3.511  50.602  1.00  0.00     0.063 A 
HETATM   16  C16 UNL     1      26.701   2.887  50.879  1.00  0.00     0.047 A 
HETATM   17  H10 UNL     1      20.523   0.876  52.537  1.00  0.00     0.170 HD
ENDROOT
BRANCH   1  18
HETATM   18  C3  UNL     1      26.946  -0.228  52.742  1.00  0.00     0.048 C 
BRANCH  18  19
HETATM   19  C2  UNL     1      26.758  -1.646  52.239  1.00  0.00     0.075 C 
BRANCH  19  20
HETATM   20  C1  UNL     1      27.725  -2.573  52.815  1.00  0.00     0.117 A 
HETATM   21  O1  UNL     1      28.689  -2.055  53.482  1.00  0.00    -0.194 OA
HETATM   22  O2  UNL     1      28.612  -3.503  53.336  1.00  0.00     0.000 OA
HETATM   23  H1  UNL     1      28.743  -4.430  52.879  1.00  0.00     0.000 HD
ENDBRANCH  19  20
ENDBRANCH  18  19
ENDBRANCH   1  18
TORSDOF 3
ENDMDL
MODEL 2
REMARK VINA RESULT:      -8.6      1.864      2.055
REMARK  3 active torsions:
REMARK  status: ('A' for Active; 'I' for Inactive)
REMARK    1  A    between atoms: C1_2  and  C2_4 
REMARK    2  A    between atoms: C2_4  and  C3_5 
REMARK    3  A    between atoms: C3_5  and  C4_6 
ROOT
HETATM    1  C4  UNL     1      25.739   0.828  52.077  1.00  0.00    -0.025 A 
HETATM    2  C5  UNL     1      25.924   2.025  51.378  1.00  0.00    -0.026 A 
HETATM    3  C6  UNL     1      24.685   2.606  51.246  1.00  0.00     0.028 A 
HETATM    4  N1  UNL     1      23.778   1.796  51.841  1.00  0.00    -0.270 N 
HETATM    5  C7  UNL     1      24.398   0.696  52.360  1.00  0.00     0.042 A 
HETATM    6  C8  UNL     1      23.721  -0.393  53.073  1.00  0.00     0.110 A 
HETATM    7  C9  UNL     1      24.158  -0.585  54.474  1.00  0.00    -0.010 C 
HETATM    8  C10 UNL     1      23.326  -1.193  55.334  1.00  0.00    -0.002 C 
HETATM    9  C11 UNL     1      22.001  -1.655  54.870  1.00  0.00     0.014 C 
HETATM   10  C12 UNL     1      21.529  -1.077  53.774  1.00  0.00    -0.000 C 
HETATM   11  C13 UNL     1      22.238  -0.154  53.160  1.00  0.00     0.038 A 
HETATM   12  N2  UNL     1      21.549   0.977  52.636  1.00  0.00    -0.310 N 
HETATM   13  C14 UNL     1      22.351   1.944  51.974  1.00  0.00     0.331 A 
HETATM   14  O3  UNL     1      21.720   2.940  51.516  1.00  0.00    -0.246 OA
HETATM   15  C15 UNL     1      25.171   3.795  50.505  1.00  0.00     0.063 A 
HETATM   16  C16 UNL     1      26.515   3.171  50.642  1.00  0.00     0.047 A 
HETATM   17  H10 UNL     1      20.515   1.049  52.755  1.00  0.00     0.170 HD
ENDROOT
BRANCH   1  18
HETATM   18  C3  UNL     1      26.937  -0.008  52.359  1.00  0.00     0.048 C 
BRANCH  18  19
HETATM   19  C2  UNL     1      27.584   0.455  53.650  1.00  0.00     0.075 C 
BRANCH  19  20
HETATM   20  C1  UNL     1      28.439   1.620  53.457  1.00  0.00     0.117 A 
HETATM   21  O1  UNL     1      28.199   2.636  54.200  1.00  0.00    -0.194 OA
HETATM   22  O2  UNL     1      29.282   2.697  53.228  1.00  0.00     0.000 OA
HETATM   23  H1  UNL     1      29.730   2.835  52.298  1.00  0.00     0.000 HD
ENDBRANCH  19  20
ENDBRANCH  18  19
ENDBRANCH   1  18
TORSDOF 3
ENDMDL
MODEL 3
REMARK VINA RESULT:      -8.5      2.889      5.156
REMARK  3 active torsions:
REMARK  status: ('A' for Active; 'I' for Inactive)
REMARK    1  A    between atoms: C1_2  and  C2_4 
REMARK    2  A    between atoms: C2_4  and  C3_5 
REMARK    3  A    between atoms: C3_5  and  C4_6 
ROOT
HETATM    1  C4  UNL     1      23.758   0.635  52.595  1.00  0.00    -0.025 A 
HETATM    2  C5  UNL     1      22.880   1.054  51.590  1.00  0.00    -0.026 A 
HETATM    3  C6  UNL     1      23.557   1.978  50.829  1.00  0.00     0.028 A 
HETATM    4  N1  UNL     1      24.799   2.119  51.349  1.00  0.00    -0.270 N 
HETATM    5  C7  UNL     1      24.950   1.306  52.435  1.00  0.00     0.042 A 
HETATM    6  C8  UNL     1      26.169   1.202  53.245  1.00  0.00     0.110 A 
HETATM    7  C9  UNL     1      26.790  -0.141  53.266  1.00  0.00    -0.010 C 
HETATM    8  C10 UNL     1      28.095  -0.246  53.557  1.00  0.00    -0.002 C 
HETATM    9  C11 UNL     1      28.882   0.971  53.849  1.00  0.00     0.014 C 
HETATM   10  C12 UNL     1      28.385   2.113  53.395  1.00  0.00    -0.000 C 
HETATM   11  C13 UNL     1      27.247   2.119  52.734  1.00  0.00     0.038 A 
HETATM   12  N2  UNL     1      27.136   2.982  51.607  1.00  0.00    -0.310 N 
HETATM   13  C14 UNL     1      25.889   2.962  50.928  1.00  0.00     0.331 A 
HETATM   14  O3  UNL     1      25.810   3.736  49.931  1.00  0.00    -0.246 OA
HETATM   15  C15 UNL     1      22.435   2.230  49.893  1.00  0.00     0.063 A 
HETATM   16  C16 UNL     1      21.696   1.231  50.713  1.00  0.00     0.047 A 
HETATM   17  H10 UNL     1      27.948   3.576  51.332  1.00  0.00     0.170 HD
ENDROOT
BRANCH   1  18
HETATM   18  C3  UNL     1      23.271  -0.379  53.570  1.00  0.00     0.048 C 
BRANCH  18  19
HETATM   19  C2  UNL     1      21.993   0.118  54.218  1.00  0.00     0.075 C 
BRANCH  19  20
HETATM   20  C1  UNL     1      20.954  -0.904  54.254  1.00  0.00     0.117 A 
HETATM   21  O1  UNL     1      21.209  -1.958  54.937  1.00  0.00    -0.194 OA
HETATM   22  O2  UNL     1      19.930  -1.839  54.251  1.00  0.00     0.000 OA
HETATM   23  H1  UNL     1      19.259  -1.893  53.456  1.00  0.00     0.000 HD
ENDBRANCH  19  20
ENDBRANCH  18  19
ENDBRANCH   1  18
TORSDOF 3
ENDMDL
MODEL 4
REMARK VINA RESULT:      -8.5      2.705      5.716
REMARK  3 active torsions:
REMARK  status: ('A' for Active; 'I' for Inactive)
REMARK    1  A    between atoms: C1_2  and  C2_4 
REMARK    2  A    between atoms: C2_4  and  C3_5 
REMARK    3  A    between atoms: C3_5  and  C4_6 
ROOT
HETATM    1  C4  UNL     1      23.878   0.709  52.560  1.00  0.00    -0.025 A 
HETATM    2  C5  UNL     1      24.672   0.109  53.542  1.00  0.00    -0.026 A 
HETATM    3  C6  UNL     1      25.918   0.681  53.453  1.00  0.00     0.028 A 
HETATM    4  N1  UNL     1      25.888   1.596  52.455  1.00  0.00    -0.270 N 
HETATM    5  C7  UNL     1      24.646   1.635  51.889  1.00  0.00     0.042 A 
HETATM    6  C8  UNL     1      24.255   2.510  50.779  1.00  0.00     0.110 A 
HETATM    7  C9  UNL     1      23.167   3.463  51.092  1.00  0.00    -0.010 C 
HETATM    8  C10 UNL     1      23.054   4.580  50.357  1.00  0.00    -0.002 C 
HETATM    9  C11 UNL     1      24.009   4.835  49.258  1.00  0.00     0.014 C 
HETATM   10  C12 UNL     1      25.164   4.189  49.325  1.00  0.00    -0.000 C 
HETATM   11  C13 UNL     1      25.404   3.369  50.326  1.00  0.00     0.038 A 
HETATM   12  N2  UNL     1      26.713   3.365  50.885  1.00  0.00    -0.310 N 
HETATM   13  C14 UNL     1      26.929   2.459  51.958  1.00  0.00     0.331 A 
HETATM   14  O3  UNL     1      28.098   2.471  52.441  1.00  0.00    -0.246 OA
HETATM   15  C15 UNL     1      26.511  -0.111  54.557  1.00  0.00     0.063 A 
HETATM   16  C16 UNL     1      25.165  -0.737  54.658  1.00  0.00     0.047 A 
HETATM   17  H10 UNL     1      27.439   4.006  50.500  1.00  0.00     0.170 HD
ENDROOT
BRANCH   1  18
HETATM   18  C3  UNL     1      22.462   0.266  52.439  1.00  0.00     0.048 C 
BRANCH  18  19
HETATM   19  C2  UNL     1      21.749   0.488  53.759  1.00  0.00     0.075 C 
BRANCH  19  20
HETATM   20  C1  UNL     1      21.151  -0.735  54.281  1.00  0.00     0.117 A 
HETATM   21  O1  UNL     1      21.785  -1.325  55.225  1.00  0.00    -0.194 OA
HETATM   22  O2  UNL     1      20.535  -1.891  54.736  1.00  0.00     0.000 OA
HETATM   23  H1  UNL     1      19.912  -2.444  54.111  1.00  0.00     0.000 HD
ENDBRANCH  19  20
ENDBRANCH  18  19
ENDBRANCH   1  18
TORSDOF 3
ENDMDL
MODEL 5
REMARK VINA RESULT:      -8.5      2.164      4.982
REMARK  3 active torsions:
REMARK  status: ('A' for Active; 'I' for Inactive)
REMARK    1  A    between atoms: C1_2  and  C2_4 
REMARK    2  A    between atoms: C2_4  and  C3_5 
REMARK    3  A    between atoms: C3_5  and  C4_6 
ROOT
HETATM    1  C4  UNL     1      25.175   0.890  52.787  1.00  0.00    -0.025 A 
HETATM    2  C5  UNL     1      24.072   0.210  53.313  1.00  0.00    -0.026 A 
HETATM    3  C6  UNL     1      22.956   0.939  52.977  1.00  0.00     0.028 A 
HETATM    4  N1  UNL     1      23.361   2.023  52.274  1.00  0.00    -0.270 N 
HETATM    5  C7  UNL     1      24.720   2.018  52.141  1.00  0.00     0.042 A 
HETATM    6  C8  UNL     1      25.501   3.042  51.439  1.00  0.00     0.110 A 
HETATM    7  C9  UNL     1      26.276   2.547  50.280  1.00  0.00    -0.010 C 
HETATM    8  C10 UNL     1      26.627   3.414  49.317  1.00  0.00    -0.002 C 
HETATM    9  C11 UNL     1      26.235   4.835  49.432  1.00  0.00     0.014 C 
HETATM   10  C12 UNL     1      25.212   5.098  50.233  1.00  0.00    -0.000 C 
HETATM   11  C13 UNL     1      24.613   4.120  50.878  1.00  0.00     0.038 A 
HETATM   12  N2  UNL     1      23.194   4.166  50.989  1.00  0.00    -0.310 N 
HETATM   13  C14 UNL     1      22.589   3.096  51.700  1.00  0.00     0.331 A 
HETATM   14  O3  UNL     1      21.329   3.155  51.788  1.00  0.00    -0.246 OA
HETATM   15  C15 UNL     1      21.993   0.023  53.633  1.00  0.00     0.063 A 
HETATM   16  C16 UNL     1      23.197  -0.771  54.002  1.00  0.00     0.047 A 
HETATM   17  H10 UNL     1      22.670   4.958  50.558  1.00  0.00     0.170 HD
ENDROOT
BRANCH   1  18
HETATM   18  C3  UNL     1      26.526   0.306  53.009  1.00  0.00     0.048 C 
BRANCH  18  19
HETATM   19  C2  UNL     1      27.238   1.082  54.101  1.00  0.00     0.075 C 
BRANCH  19  20
HETATM   20  C1  UNL     1      28.221   2.018  53.568  1.00  0.00     0.117 A 
HETATM   21  O1  UNL     1      29.038   2.531  54.411  1.00  0.00    -0.194 OA
HETATM   22  O2  UNL     1      29.130   2.900  53.004  1.00  0.00     0.000 OA
HETATM   23  H1  UNL     1      28.899   3.419  52.131  1.00  0.00     0.000 HD
ENDBRANCH  19  20
ENDBRANCH  18  19
ENDBRANCH   1  18
TORSDOF 3
ENDMDL
MODEL 6
REMARK VINA RESULT:      -8.4      1.100      4.385
REMARK  3 active torsions:
REMARK  status: ('A' for Active; 'I' for Inactive)
REMARK    1  A    between atoms: C1_2  and  C2_4 
REMARK    2  A    between atoms: C2_4  and  C3_5 
REMARK    3  A    between atoms: C3_5  and  C4_6 
ROOT
HETATM    1  C4  UNL     1      25.046   0.586  53.063  1.00  0.00    -0.025 A 
HETATM    2  C5  UNL     1      23.935  -0.068  53.603  1.00  0.00    -0.026 A 
HETATM    3  C6  UNL     1      22.830   0.680  53.270  1.00  0.00     0.028 A 
HETATM    4  N1  UNL     1      23.250   1.750  52.555  1.00  0.00    -0.270 N 
HETATM    5  C7  UNL     1      24.607   1.718  52.412  1.00  0.00     0.042 A 
HETATM    6  C8  UNL     1      25.401   2.722  51.695  1.00  0.00     0.110 A 
HETATM    7  C9  UNL     1      26.158   2.202  50.533  1.00  0.00    -0.010 C 
HETATM    8  C10 UNL     1      26.517   3.055  49.561  1.00  0.00    -0.002 C 
HETATM    9  C11 UNL     1      26.153   4.484  49.668  1.00  0.00     0.014 C 
HETATM   10  C12 UNL     1      25.143   4.773  50.475  1.00  0.00    -0.000 C 
HETATM   11  C13 UNL     1      24.530   3.812  51.133  1.00  0.00     0.038 A 
HETATM   12  N2  UNL     1      23.113   3.886  51.255  1.00  0.00    -0.310 N 
HETATM   13  C14 UNL     1      22.494   2.833  51.978  1.00  0.00     0.331 A 
HETATM   14  O3  UNL     1      21.236   2.917  52.076  1.00  0.00    -0.246 OA
HETATM   15  C15 UNL     1      21.855  -0.212  53.941  1.00  0.00     0.063 A 
HETATM   16  C16 UNL     1      23.046  -1.026  54.307  1.00  0.00     0.047 A 
HETATM   17  H10 UNL     1      22.601   4.685  50.822  1.00  0.00     0.170 HD
ENDROOT
BRANCH   1  18
HETATM   18  C3  UNL     1      26.387  -0.021  53.279  1.00  0.00     0.048 C 
BRANCH  18  19
HETATM   19  C2  UNL     1      26.636  -1.084  52.226  1.00  0.00     0.075 C 
BRANCH  19  20
HETATM   20  C1  UNL     1      27.506  -2.150  52.707  1.00  0.00     0.117 A 
HETATM   21  O1  UNL     1      28.445  -1.807  53.509  1.00  0.00    -0.194 OA
HETATM   22  O2  UNL     1      28.300  -3.206  53.130  1.00  0.00     0.000 OA
HETATM   23  H1  UNL     1      28.414  -4.057  52.539  1.00  0.00     0.000 HD
ENDBRANCH  19  20
ENDBRANCH  18  19
ENDBRANCH   1  18
TORSDOF 3
ENDMDL
MODEL 7
REMARK VINA RESULT:      -8.3      2.364      5.926
REMARK  3 active torsions:
REMARK  status: ('A' for Active; 'I' for Inactive)
REMARK    1  A    between atoms: C1_2  and  C2_4 
REMARK    2  A    between atoms: C2_4  and  C3_5 
REMARK    3  A    between atoms: C3_5  and  C4_6 
ROOT
HETATM    1  C4  UNL     1      23.913   1.323  52.159  1.00  0.00    -0.025 A 
HETATM    2  C5  UNL     1      22.683   0.874  52.652  1.00  0.00    -0.026 A 
HETATM    3  C6  UNL     1      22.958   0.012  53.687  1.00  0.00     0.028 A 
HETATM    4  N1  UNL     1      24.303  -0.063  53.822  1.00  0.00    -0.270 N 
HETATM    5  C7  UNL     1      24.915   0.732  52.897  1.00  0.00     0.042 A 
HETATM    6  C8  UNL     1      26.366   0.892  52.753  1.00  0.00     0.110 A 
HETATM    7  C9  UNL     1      26.864   2.271  52.959  1.00  0.00    -0.010 C 
HETATM    8  C10 UNL     1      28.145   2.451  53.314  1.00  0.00    -0.002 C 
HETATM    9  C11 UNL     1      29.029   1.278  53.490  1.00  0.00     0.014 C 
HETATM   10  C12 UNL     1      28.426   0.119  53.712  1.00  0.00    -0.000 C 
HETATM   11  C13 UNL     1      27.113   0.057  53.758  1.00  0.00     0.038 A 
HETATM   12  N2  UNL     1      26.519  -0.784  54.741  1.00  0.00    -0.310 N 
HETATM   13  C14 UNL     1      25.099  -0.826  54.750  1.00  0.00     0.331 A 
HETATM   14  O3  UNL     1      24.591  -1.579  55.630  1.00  0.00    -0.246 OA
HETATM   15  C15 UNL     1      21.540  -0.287  53.995  1.00  0.00     0.063 A 
HETATM   16  C16 UNL     1      21.234   0.643  52.874  1.00  0.00     0.047 A 
HETATM   17  H10 UNL     1      27.129  -1.319  55.397  1.00  0.00     0.170 HD
ENDROOT
BRANCH   1  18
HETATM   18  C3  UNL     1      23.902   2.280  51.020  1.00  0.00     0.048 C 
BRANCH  18  19
HETATM   19  C2  UNL     1      22.927   3.403  51.314  1.00  0.00     0.075 C 
BRANCH  19  20
HETATM   20  C1  UNL     1      23.470   4.381  52.249  1.00  0.00     0.117 A 
HETATM   21  O1  UNL     1      23.843   5.503  51.754  1.00  0.00    -0.194 OA
HETATM   22  O2  UNL     1      23.978   5.269  53.186  1.00  0.00     0.000 OA
HETATM   23  H1  UNL     1      24.419   4.923  54.064  1.00  0.00     0.000 HD
ENDBRANCH  19  20
ENDBRANCH  18  19
ENDBRANCH   1  18
TORSDOF 3
ENDMDL
MODEL 8
REMARK VINA RESULT:      -7.8      2.887      5.733
REMARK  3 active torsions:
REMARK  status: ('A' for Active; 'I' for Inactive)
REMARK    1  A    between atoms: C1_2  and  C2_4 
REMARK    2  A    between atoms: C2_4  and  C3_5 
REMARK    3  A    between atoms: C3_5  and  C4_6 
ROOT
HETATM    1  C4  UNL     1      25.605   2.358  50.736  1.00  0.00    -0.025 A 
HETATM    2  C5  UNL     1      24.221   2.372  50.532  1.00  0.00    -0.026 A 
HETATM    3  C6  UNL     1      23.671   1.532  51.471  1.00  0.00     0.028 A 
HETATM    4  N1  UNL     1      24.679   1.024  52.219  1.00  0.00    -0.270 N 
HETATM    5  C7  UNL     1      25.878   1.514  51.790  1.00  0.00     0.042 A 
HETATM    6  C8  UNL     1      27.182   1.175  52.370  1.00  0.00     0.110 A 
HETATM    7  C9  UNL     1      27.926   2.321  52.939  1.00  0.00    -0.010 C 
HETATM    8  C10 UNL     1      28.857   2.087  53.877  1.00  0.00    -0.002 C 
HETATM    9  C11 UNL     1      29.120   0.702  54.320  1.00  0.00     0.014 C 
HETATM   10  C12 UNL     1      28.152  -0.177  54.100  1.00  0.00    -0.000 C 
HETATM   11  C13 UNL     1      27.039   0.203  53.509  1.00  0.00     0.038 A 
HETATM   12  N2  UNL     1      25.812  -0.334  53.993  1.00  0.00    -0.310 N 
HETATM   13  C14 UNL     1      24.637   0.098  53.322  1.00  0.00     0.331 A 
HETATM   14  O3  UNL     1      23.557  -0.390  53.766  1.00  0.00    -0.246 OA
HETATM   15  C15 UNL     1      22.270   1.739  51.034  1.00  0.00     0.063 A 
HETATM   16  C16 UNL     1      22.859   2.649  50.013  1.00  0.00     0.047 A 
HETATM   17  H10 UNL     1      25.823  -1.000  54.795  1.00  0.00     0.170 HD
ENDROOT
BRANCH   1  18
HETATM   18  C3  UNL     1      26.451   3.194  49.842  1.00  0.00     0.048 C 
BRANCH  18  19
HETATM   19  C2  UNL     1      25.696   4.454  49.466  1.00  0.00     0.075 C 
BRANCH  19  20
HETATM   20  C1  UNL     1      26.579   5.603  49.299  1.00  0.00     0.117 A 
HETATM   21  O1  UNL     1      26.105   6.601  48.651  1.00  0.00    -0.194 OA
HETATM   22  O2  UNL     1      27.463   6.664  49.174  1.00  0.00     0.000 OA
HETATM   23  H1  UNL     1      28.492   6.505  49.192  1.00  0.00     0.000 HD
ENDBRANCH  19  20
ENDBRANCH  18  19
ENDBRANCH   1  18
TORSDOF 3
ENDMDL
MODEL 9
REMARK VINA RESULT:      -7.8      2.289      6.458
REMARK  3 active torsions:
REMARK  status: ('A' for Active; 'I' for Inactive)
REMARK    1  A    between atoms: C1_2  and  C2_4 
REMARK    2  A    between atoms: C2_4  and  C3_5 
REMARK    3  A    between atoms: C3_5  and  C4_6 
ROOT
HETATM    1  C4  UNL     1      22.395   0.174  52.461  1.00  0.00    -0.025 A 
HETATM    2  C5  UNL     1      22.115  -0.619  53.579  1.00  0.00    -0.026 A 
HETATM    3  C6  UNL     1      23.285  -0.730  54.293  1.00  0.00     0.028 A 
HETATM    4  N1  UNL     1      24.243  -0.033  53.637  1.00  0.00    -0.270 N 
HETATM    5  C7  UNL     1      23.724   0.533  52.508  1.00  0.00     0.042 A 
HETATM    6  C8  UNL     1      24.479   1.356  51.557  1.00  0.00     0.110 A 
HETATM    7  C9  UNL     1      23.985   2.744  51.407  1.00  0.00    -0.010 C 
HETATM    8  C10 UNL     1      24.830   3.686  50.961  1.00  0.00    -0.002 C 
HETATM    9  C11 UNL     1      26.225   3.324  50.629  1.00  0.00     0.014 C 
HETATM   10  C12 UNL     1      26.689   2.214  51.185  1.00  0.00    -0.000 C 
HETATM   11  C13 UNL     1      25.917   1.500  51.975  1.00  0.00     0.038 A 
HETATM   12  N2  UNL     1      26.501   0.930  53.142  1.00  0.00    -0.310 N 
HETATM   13  C14 UNL     1      25.633   0.161  53.962  1.00  0.00     0.331 A 
HETATM   14  O3  UNL     1      26.171  -0.336  54.993  1.00  0.00    -0.246 OA
HETATM   15  C15 UNL     1      22.710  -1.578  55.363  1.00  0.00     0.063 A 
HETATM   16  C16 UNL     1      21.440  -1.464  54.595  1.00  0.00     0.047 A 
HETATM   17  H10 UNL     1      27.510   1.095  53.345  1.00  0.00     0.170 HD
ENDROOT
BRANCH   1  18
HETATM   18  C3  UNL     1      21.287   0.455  51.509  1.00  0.00     0.048 C 
BRANCH  18  19
HETATM   19  C2  UNL     1      20.052   0.877  52.282  1.00  0.00     0.075 C 
BRANCH  19  20
HETATM   20  C1  UNL     1      18.868   0.119  51.896  1.00  0.00     0.117 A 
HETATM   21  O1  UNL     1      18.508  -0.823  52.685  1.00  0.00    -0.194 OA
HETATM   22  O2  UNL     1      17.737  -0.565  51.477  1.00  0.00     0.000 OA
HETATM   23  H1  UNL     1      17.490  -0.619  50.466  1.00  0.00     0.000 HD
ENDBRANCH  19  20
ENDBRANCH  18  19
ENDBRANCH   1  18
TORSDOF 3
ENDMDL
