MODEL 1
REMARK VINA RESULT:      -9.2      0.000      0.000
REMARK  5 active torsions:
REMARK  status: ('A' for Active; 'I' for Inactive)
REMARK    1  A    between atoms: C7_7  and  C8_8 
REMARK    2  A    between atoms: C14_16  and  C15_17 
REMARK    3  A    between atoms: C15_17  and  O1_18 
REMARK    4  A    between atoms: O1_18  and  C16_19 
REMARK    5  A    between atoms: C19_22  and  O2_23 
ROOT
HETATM    1  C8  UNL     1      24.585  -0.443  53.769  1.00  0.00     0.062 A 
HETATM    2  N1  UNL     1      25.027  -1.204  54.812  1.00  0.00    -0.244 NA
HETATM    3  C9  UNL     1      24.129  -1.656  55.704  1.00  0.00     0.235 A 
HETATM    4  N2  UNL     1      22.784  -1.422  55.665  1.00  0.00    -0.224 NA
HETATM    5  C10 UNL     1      22.340  -0.673  54.640  1.00  0.00     0.137 A 
HETATM    6  C11 UNL     1      23.234  -0.197  53.714  1.00  0.00     0.035 A 
HETATM    7  C12 UNL     1      22.832   0.621  52.579  1.00  0.00     0.015 A 
HETATM    8  C13 UNL     1      21.557   0.932  52.411  1.00  0.00     0.001 A 
HETATM    9  C14 UNL     1      20.486   0.477  53.349  1.00  0.00     0.130 A 
HETATM   10  N3  UNL     1      20.977  -0.323  54.429  1.00  0.00    -0.364 N 
HETATM   11  H21 UNL     1      20.267  -0.660  55.096  1.00  0.00     0.162 HD
ENDROOT
BRANCH   9  12
HETATM   12  C15 UNL     1      19.409  -0.286  52.611  1.00  0.00     0.204 C 
BRANCH  12  13
HETATM   13  O1  UNL     1      18.380  -0.656  53.472  1.00  0.00    -0.349 OA
BRANCH  13  14
HETATM   14  C16 UNL     1      17.520  -1.721  53.267  1.00  0.00     0.069 A 
HETATM   15  C17 UNL     1      16.396  -1.458  52.542  1.00  0.00     0.039 A 
HETATM   16  C18 UNL     1      15.506  -2.510  52.316  1.00  0.00     0.039 A 
HETATM   17  C19 UNL     1      15.792  -3.779  52.832  1.00  0.00     0.068 A 
HETATM   18  C21 UNL     1      16.952  -3.969  53.556  1.00  0.00     0.039 A 
HETATM   19  C22 UNL     1      17.849  -2.952  53.796  1.00  0.00     0.039 A 
BRANCH  17  20
HETATM   20  O2  UNL     1      14.822  -4.693  52.520  1.00  0.00    -0.356 OA
HETATM   21  C20 UNL     1      14.596  -5.075  51.193  1.00  0.00     0.210 C 
ENDBRANCH  17  20
ENDBRANCH  13  14
ENDBRANCH  12  13
ENDBRANCH   9  12
BRANCH   1  22
HETATM   22  C7  UNL     1      25.681  -0.021  52.871  1.00  0.00     0.093 A 
HETATM   23  C2  UNL     1      26.530   0.997  53.590  1.00  0.00    -0.054 A 
HETATM   24  C1  UNL     1      25.947   2.140  53.918  1.00  0.00     0.020 C 
HETATM   25  C3  UNL     1      27.931   0.843  53.959  1.00  0.00     0.007 A 
HETATM   26  C4  UNL     1      28.508  -0.300  53.629  1.00  0.00     0.000 A 
HETATM   27  C5  UNL     1      27.782  -1.357  52.934  1.00  0.00    -0.003 A 
HETATM   28  C6  UNL     1      26.511  -1.227  52.594  1.00  0.00    -0.011 A 
ENDBRANCH   1  22
TORSDOF 5
ENDMDL
MODEL 2
REMARK VINA RESULT:      -9.0      1.904      2.958
REMARK  5 active torsions:
REMARK  status: ('A' for Active; 'I' for Inactive)
REMARK    1  A    between atoms: C7_7  and  C8_8 
REMARK    2  A    between atoms: C14_16  and  C15_17 
REMARK    3  A    between atoms: C15_17  and  O1_18 
REMARK    4  A    between atoms: O1_18  and  C16_19 
REMARK    5  A    between atoms: C19_22  and  O2_23 
ROOT
HETATM    1  C8  UNL     1      25.880   0.468  52.966  1.00  0.00     0.062 A 
HETATM    2  N1  UNL     1      26.691   1.382  52.358  1.00  0.00    -0.244 NA
HETATM    3  C9  UNL     1      26.143   2.248  51.487  1.00  0.00     0.235 A 
HETATM    4  N2  UNL     1      24.823   2.302  51.144  1.00  0.00    -0.224 NA
HETATM    5  C10 UNL     1      24.016   1.404  51.739  1.00  0.00     0.137 A 
HETATM    6  C11 UNL     1      24.547   0.508  52.633  1.00  0.00     0.035 A 
HETATM    7  C12 UNL     1      23.741  -0.495  53.314  1.00  0.00     0.015 A 
HETATM    8  C13 UNL     1      22.441  -0.565  53.080  1.00  0.00     0.001 A 
HETATM    9  C14 UNL     1      21.743   0.353  52.129  1.00  0.00     0.130 A 
HETATM   10  N3  UNL     1      22.616   1.305  51.511  1.00  0.00    -0.364 N 
HETATM   11  H21 UNL     1      22.170   1.959  50.851  1.00  0.00     0.162 HD
ENDROOT
BRANCH   9  12
HETATM   12  C15 UNL     1      20.611   1.085  52.815  1.00  0.00     0.204 C 
BRANCH  12  13
HETATM   13  O1  UNL     1      19.429   0.968  52.090  1.00  0.00    -0.349 OA
BRANCH  13  14
HETATM   14  C16 UNL     1      18.487  -0.031  52.269  1.00  0.00     0.069 A 
HETATM   15  C17 UNL     1      17.416  -0.007  51.427  1.00  0.00     0.039 A 
HETATM   16  C18 UNL     1      16.446  -1.001  51.580  1.00  0.00     0.039 A 
HETATM   17  C19 UNL     1      16.604  -1.972  52.575  1.00  0.00     0.068 A 
HETATM   18  C21 UNL     1      17.718  -1.931  53.390  1.00  0.00     0.039 A 
HETATM   19  C22 UNL     1      18.690  -0.964  53.264  1.00  0.00     0.039 A 
BRANCH  17  20
HETATM   20  O2  UNL     1      15.569  -2.867  52.590  1.00  0.00    -0.356 OA
HETATM   21  C20 UNL     1      15.736  -4.147  53.130  1.00  0.00     0.210 C 
ENDBRANCH  17  20
ENDBRANCH  13  14
ENDBRANCH  12  13
ENDBRANCH   9  12
BRANCH   1  22
HETATM   22  C7  UNL     1      26.616  -0.413  53.896  1.00  0.00     0.093 A 
HETATM   23  C2  UNL     1      27.519  -1.316  53.095  1.00  0.00    -0.054 A 
HETATM   24  C1  UNL     1      26.933  -2.169  52.268  1.00  0.00     0.020 C 
HETATM   25  C3  UNL     1      28.974  -1.341  53.143  1.00  0.00     0.007 A 
HETATM   26  C4  UNL     1      29.554  -0.488  53.969  1.00  0.00     0.000 A 
HETATM   27  C5  UNL     1      28.781   0.434  54.792  1.00  0.00    -0.003 A 
HETATM   28  C6  UNL     1      27.459   0.464  54.757  1.00  0.00    -0.011 A 
ENDBRANCH   1  22
TORSDOF 5
ENDMDL
MODEL 3
REMARK VINA RESULT:      -8.5      1.582      2.078
REMARK  5 active torsions:
REMARK  status: ('A' for Active; 'I' for Inactive)
REMARK    1  A    between atoms: C7_7  and  C8_8 
REMARK    2  A    between atoms: C14_16  and  C15_17 
REMARK    3  A    between atoms: C15_17  and  O1_18 
REMARK    4  A    between atoms: O1_18  and  C16_19 
REMARK    5  A    between atoms: C19_22  and  O2_23 
ROOT
HETATM    1  C8  UNL     1      25.544  -0.287  53.450  1.00  0.00     0.062 A 
HETATM    2  N1  UNL     1      25.725  -1.017  54.588  1.00  0.00    -0.244 NA
HETATM    3  C9  UNL     1      24.658  -1.270  55.366  1.00  0.00     0.235 A 
HETATM    4  N2  UNL     1      23.381  -0.856  55.121  1.00  0.00    -0.224 NA
HETATM    5  C10 UNL     1      23.193  -0.135  54.000  1.00  0.00     0.137 A 
HETATM    6  C11 UNL     1      24.264   0.138  53.186  1.00  0.00     0.035 A 
HETATM    7  C12 UNL     1      24.142   0.913  51.960  1.00  0.00     0.015 A 
HETATM    8  C13 UNL     1      22.962   1.383  51.592  1.00  0.00     0.001 A 
HETATM    9  C14 UNL     1      21.720   1.155  52.391  1.00  0.00     0.130 A 
HETATM   10  N3  UNL     1      21.938   0.382  53.576  1.00  0.00    -0.364 N 
HETATM   11  H21 UNL     1      21.103   0.200  54.152  1.00  0.00     0.162 HD
ENDROOT
BRANCH   9  12
HETATM   12  C15 UNL     1      20.650   0.493  51.552  1.00  0.00     0.204 C 
BRANCH  12  13
HETATM   13  O1  UNL     1      19.710  -0.146  52.355  1.00  0.00    -0.349 OA
BRANCH  13  14
HETATM   14  C16 UNL     1      18.412  -0.440  51.973  1.00  0.00     0.069 A 
HETATM   15  C17 UNL     1      17.683  -1.193  52.843  1.00  0.00     0.039 A 
HETATM   16  C18 UNL     1      16.368  -1.508  52.489  1.00  0.00     0.039 A 
HETATM   17  C19 UNL     1      15.852  -1.045  51.274  1.00  0.00     0.068 A 
HETATM   18  C21 UNL     1      16.652  -0.285  50.444  1.00  0.00     0.039 A 
HETATM   19  C22 UNL     1      17.951   0.041  50.765  1.00  0.00     0.039 A 
BRANCH  17  20
HETATM   20  O2  UNL     1      14.556  -1.440  51.081  1.00  0.00    -0.356 OA
HETATM   21  C20 UNL     1      13.693  -1.624  52.167  1.00  0.00     0.210 C 
ENDBRANCH  17  20
ENDBRANCH  13  14
ENDBRANCH  12  13
ENDBRANCH   9  12
BRANCH   1  22
HETATM   22  C7  UNL     1      26.800  -0.091  52.696  1.00  0.00     0.093 A 
HETATM   23  C2  UNL     1      27.666   0.890  53.444  1.00  0.00    -0.054 A 
HETATM   24  C1  UNL     1      27.198   2.122  53.580  1.00  0.00     0.020 C 
HETATM   25  C3  UNL     1      28.969   0.614  54.034  1.00  0.00     0.007 A 
HETATM   26  C4  UNL     1      29.432  -0.617  53.896  1.00  0.00     0.000 A 
HETATM   27  C5  UNL     1      28.679  -1.649  53.192  1.00  0.00    -0.003 A 
HETATM   28  C6  UNL     1      27.496  -1.408  52.653  1.00  0.00    -0.011 A 
ENDBRANCH   1  22
TORSDOF 5
ENDMDL
MODEL 4
REMARK VINA RESULT:      -8.4      3.044      4.261
REMARK  5 active torsions:
REMARK  status: ('A' for Active; 'I' for Inactive)
REMARK    1  A    between atoms: C7_7  and  C8_8 
REMARK    2  A    between atoms: C14_16  and  C15_17 
REMARK    3  A    between atoms: C15_17  and  O1_18 
REMARK    4  A    between atoms: O1_18  and  C16_19 
REMARK    5  A    between atoms: C19_22  and  O2_23 
ROOT
HETATM    1  C8  UNL     1      26.050   0.459  52.943  1.00  0.00     0.062 A 
HETATM    2  N1  UNL     1      26.869   1.320  52.271  1.00  0.00    -0.244 NA
HETATM    3  C9  UNL     1      26.318   2.177  51.393  1.00  0.00     0.235 A 
HETATM    4  N2  UNL     1      24.987   2.272  51.104  1.00  0.00    -0.224 NA
HETATM    5  C10 UNL     1      24.173   1.427  51.763  1.00  0.00     0.137 A 
HETATM    6  C11 UNL     1      24.707   0.540  52.664  1.00  0.00     0.035 A 
HETATM    7  C12 UNL     1      23.893  -0.406  53.414  1.00  0.00     0.015 A 
HETATM    8  C13 UNL     1      22.583  -0.432  53.236  1.00  0.00     0.001 A 
HETATM    9  C14 UNL     1      21.881   0.480  52.284  1.00  0.00     0.130 A 
HETATM   10  N3  UNL     1      22.761   1.376  51.597  1.00  0.00    -0.364 N 
HETATM   11  H21 UNL     1      22.313   2.024  50.934  1.00  0.00     0.162 HD
ENDROOT
BRANCH   9  12
HETATM   12  C15 UNL     1      20.808   1.279  52.990  1.00  0.00     0.204 C 
BRANCH  12  13
HETATM   13  O1  UNL     1      19.557   0.694  52.821  1.00  0.00    -0.349 OA
BRANCH  13  14
HETATM   14  C16 UNL     1      18.738   0.881  51.720  1.00  0.00     0.069 A 
HETATM   15  C17 UNL     1      18.661   2.151  51.234  1.00  0.00     0.039 A 
HETATM   16  C18 UNL     1      17.843   2.375  50.124  1.00  0.00     0.039 A 
HETATM   17  C19 UNL     1      17.143   1.306  49.556  1.00  0.00     0.068 A 
HETATM   18  C21 UNL     1      17.272   0.045  50.103  1.00  0.00     0.039 A 
HETATM   19  C22 UNL     1      18.069  -0.207  51.197  1.00  0.00     0.039 A 
BRANCH  17  20
HETATM   20  O2  UNL     1      16.392   1.695  48.479  1.00  0.00    -0.356 OA
HETATM   21  C20 UNL     1      16.806   2.752  47.661  1.00  0.00     0.210 C 
ENDBRANCH  17  20
ENDBRANCH  13  14
ENDBRANCH  12  13
ENDBRANCH   9  12
BRANCH   1  22
HETATM   22  C7  UNL     1      26.792  -0.419  53.872  1.00  0.00     0.093 A 
HETATM   23  C2  UNL     1      27.601  -1.403  53.066  1.00  0.00    -0.054 A 
HETATM   24  C1  UNL     1      26.927  -2.258  52.312  1.00  0.00     0.020 C 
HETATM   25  C3  UNL     1      29.054  -1.504  53.036  1.00  0.00     0.007 A 
HETATM   26  C4  UNL     1      29.722  -0.648  53.790  1.00  0.00     0.000 A 
HETATM   27  C5  UNL     1      29.044   0.349  54.610  1.00  0.00    -0.003 A 
HETATM   28  C6  UNL     1      27.726   0.448  54.645  1.00  0.00    -0.011 A 
ENDBRANCH   1  22
TORSDOF 5
ENDMDL
MODEL 5
REMARK VINA RESULT:      -8.3      1.927      2.365
REMARK  5 active torsions:
REMARK  status: ('A' for Active; 'I' for Inactive)
REMARK    1  A    between atoms: C7_7  and  C8_8 
REMARK    2  A    between atoms: C14_16  and  C15_17 
REMARK    3  A    between atoms: C15_17  and  O1_18 
REMARK    4  A    between atoms: O1_18  and  C16_19 
REMARK    5  A    between atoms: C19_22  and  O2_23 
ROOT
HETATM    1  C8  UNL     1      24.423  -0.288  53.720  1.00  0.00     0.062 A 
HETATM    2  N1  UNL     1      25.137  -0.858  54.734  1.00  0.00    -0.244 NA
HETATM    3  C9  UNL     1      24.466  -1.428  55.750  1.00  0.00     0.235 A 
HETATM    4  N2  UNL     1      23.108  -1.494  55.868  1.00  0.00    -0.224 NA
HETATM    5  C10 UNL     1      22.396  -0.934  54.872  1.00  0.00     0.137 A 
HETATM    6  C11 UNL     1      23.054  -0.344  53.821  1.00  0.00     0.035 A 
HETATM    7  C12 UNL     1      22.355   0.283  52.709  1.00  0.00     0.015 A 
HETATM    8  C13 UNL     1      21.033   0.299  52.686  1.00  0.00     0.001 A 
HETATM    9  C14 UNL     1      20.202  -0.308  53.770  1.00  0.00     0.130 A 
HETATM   10  N3  UNL     1      20.975  -0.903  54.817  1.00  0.00    -0.364 N 
HETATM   11  H21 UNL     1      20.437  -1.336  55.581  1.00  0.00     0.162 HD
ENDROOT
BRANCH   9  12
HETATM   12  C15 UNL     1      19.247  -1.337  53.207  1.00  0.00     0.204 C 
BRANCH  12  13
HETATM   13  O1  UNL     1      17.951  -0.833  53.143  1.00  0.00    -0.349 OA
BRANCH  13  14
HETATM   14  C16 UNL     1      17.184  -0.768  51.992  1.00  0.00     0.069 A 
HETATM   15  C17 UNL     1      17.758  -0.159  50.917  1.00  0.00     0.039 A 
HETATM   16  C18 UNL     1      17.011  -0.076  49.740  1.00  0.00     0.039 A 
HETATM   17  C19 UNL     1      15.719  -0.612  49.703  1.00  0.00     0.068 A 
HETATM   18  C21 UNL     1      15.205  -1.216  50.833  1.00  0.00     0.039 A 
HETATM   19  C22 UNL     1      15.916  -1.313  52.008  1.00  0.00     0.039 A 
BRANCH  17  20
HETATM   20  O2  UNL     1      15.128  -0.448  48.480  1.00  0.00    -0.356 OA
HETATM   21  C20 UNL     1      13.751  -0.226  48.372  1.00  0.00     0.210 C 
ENDBRANCH  17  20
ENDBRANCH  13  14
ENDBRANCH  12  13
ENDBRANCH   9  12
BRANCH   1  22
HETATM   22  C7  UNL     1      25.290   0.295  52.675  1.00  0.00     0.093 A 
HETATM   23  C2  UNL     1      25.826   1.615  53.171  1.00  0.00    -0.054 A 
HETATM   24  C1  UNL     1      24.940   2.573  53.402  1.00  0.00     0.020 C 
HETATM   25  C3  UNL     1      27.224   1.937  53.422  1.00  0.00     0.007 A 
HETATM   26  C4  UNL     1      28.103   0.977  53.190  1.00  0.00     0.000 A 
HETATM   27  C5  UNL     1      27.699  -0.339  52.709  1.00  0.00    -0.003 A 
HETATM   28  C6  UNL     1      26.432  -0.642  52.478  1.00  0.00    -0.011 A 
ENDBRANCH   1  22
TORSDOF 5
ENDMDL
MODEL 6
REMARK VINA RESULT:      -8.2      2.655      3.736
REMARK  5 active torsions:
REMARK  status: ('A' for Active; 'I' for Inactive)
REMARK    1  A    between atoms: C7_7  and  C8_8 
REMARK    2  A    between atoms: C14_16  and  C15_17 
REMARK    3  A    between atoms: C15_17  and  O1_18 
REMARK    4  A    between atoms: O1_18  and  C16_19 
REMARK    5  A    between atoms: C19_22  and  O2_23 
ROOT
HETATM    1  C8  UNL     1      24.704  -0.363  53.725  1.00  0.00     0.062 A 
HETATM    2  N1  UNL     1      25.120  -1.112  54.787  1.00  0.00    -0.244 NA
HETATM    3  C9  UNL     1      24.200  -1.543  55.668  1.00  0.00     0.235 A 
HETATM    4  N2  UNL     1      22.859  -1.296  55.601  1.00  0.00    -0.224 NA
HETATM    5  C10 UNL     1      22.441  -0.558  54.557  1.00  0.00     0.137 A 
HETATM    6  C11 UNL     1      23.357  -0.104  53.641  1.00  0.00     0.035 A 
HETATM    7  C12 UNL     1      22.984   0.701  52.487  1.00  0.00     0.015 A 
HETATM    8  C13 UNL     1      21.716   1.022  52.291  1.00  0.00     0.001 A 
HETATM    9  C14 UNL     1      20.624   0.591  53.215  1.00  0.00     0.130 A 
HETATM   10  N3  UNL     1      21.086  -0.198  54.316  1.00  0.00    -0.364 N 
HETATM   11  H21 UNL     1      20.360  -0.518  54.974  1.00  0.00     0.162 HD
ENDROOT
BRANCH   9  12
HETATM   12  C15 UNL     1      19.552  -0.172  52.469  1.00  0.00     0.204 C 
BRANCH  12  13
HETATM   13  O1  UNL     1      19.104   0.547  51.365  1.00  0.00    -0.349 OA
BRANCH  13  14
HETATM   14  C16 UNL     1      18.142   1.542  51.405  1.00  0.00     0.069 A 
HETATM   15  C17 UNL     1      16.848   1.127  51.495  1.00  0.00     0.039 A 
HETATM   16  C18 UNL     1      15.851   2.105  51.538  1.00  0.00     0.039 A 
HETATM   17  C19 UNL     1      16.209   3.456  51.489  1.00  0.00     0.068 A 
HETATM   18  C21 UNL     1      17.543   3.800  51.399  1.00  0.00     0.039 A 
HETATM   19  C22 UNL     1      18.548   2.860  51.355  1.00  0.00     0.039 A 
BRANCH  17  20
HETATM   20  O2  UNL     1      15.118   4.280  51.542  1.00  0.00    -0.356 OA
HETATM   21  C20 UNL     1      14.013   4.062  50.711  1.00  0.00     0.210 C 
ENDBRANCH  17  20
ENDBRANCH  13  14
ENDBRANCH  12  13
ENDBRANCH   9  12
BRANCH   1  22
HETATM   22  C7  UNL     1      25.820   0.036  52.842  1.00  0.00     0.093 A 
HETATM   23  C2  UNL     1      26.683   1.034  53.572  1.00  0.00    -0.054 A 
HETATM   24  C1  UNL     1      26.121   2.190  53.894  1.00  0.00     0.020 C 
HETATM   25  C3  UNL     1      28.075   0.849  53.960  1.00  0.00     0.007 A 
HETATM   26  C4  UNL     1      28.631  -0.306  53.636  1.00  0.00     0.000 A 
HETATM   27  C5  UNL     1      27.891  -1.346  52.930  1.00  0.00    -0.003 A 
HETATM   28  C6  UNL     1      26.627  -1.188  52.574  1.00  0.00    -0.011 A 
ENDBRANCH   1  22
TORSDOF 5
ENDMDL
MODEL 7
REMARK VINA RESULT:      -8.2      4.244      6.816
REMARK  5 active torsions:
REMARK  status: ('A' for Active; 'I' for Inactive)
REMARK    1  A    between atoms: C7_7  and  C8_8 
REMARK    2  A    between atoms: C14_16  and  C15_17 
REMARK    3  A    between atoms: C15_17  and  O1_18 
REMARK    4  A    between atoms: O1_18  and  C16_19 
REMARK    5  A    between atoms: C19_22  and  O2_23 
ROOT
HETATM    1  C8  UNL     1      23.480   4.122  50.235  1.00  0.00     0.062 A 
HETATM    2  N1  UNL     1      23.819   5.113  51.110  1.00  0.00    -0.244 NA
HETATM    3  C9  UNL     1      23.100   5.248  52.238  1.00  0.00     0.235 A 
HETATM    4  N2  UNL     1      22.039   4.469  52.602  1.00  0.00    -0.224 NA
HETATM    5  C10 UNL     1      21.698   3.489  51.744  1.00  0.00     0.137 A 
HETATM    6  C11 UNL     1      22.414   3.328  50.585  1.00  0.00     0.035 A 
HETATM    7  C12 UNL     1      22.106   2.294  49.607  1.00  0.00     0.015 A 
HETATM    8  C13 UNL     1      21.100   1.463  49.823  1.00  0.00     0.001 A 
HETATM    9  C14 UNL     1      20.245   1.534  51.046  1.00  0.00     0.130 A 
HETATM   10  N3  UNL     1      20.625   2.578  51.948  1.00  0.00    -0.364 N 
HETATM   11  H21 UNL     1      20.060   2.657  52.806  1.00  0.00     0.162 HD
ENDROOT
BRANCH   9  12
HETATM   12  C15 UNL     1      20.242   0.213  51.783  1.00  0.00     0.204 C 
BRANCH  12  13
HETATM   13  O1  UNL     1      20.632   0.380  53.108  1.00  0.00    -0.349 OA
BRANCH  13  14
HETATM   14  C16 UNL     1      21.849  -0.023  53.631  1.00  0.00     0.069 A 
HETATM   15  C17 UNL     1      22.961   0.399  52.968  1.00  0.00     0.039 A 
HETATM   16  C18 UNL     1      24.206   0.010  53.469  1.00  0.00     0.039 A 
HETATM   17  C19 UNL     1      24.269  -0.787  54.616  1.00  0.00     0.068 A 
HETATM   18  C21 UNL     1      23.097  -1.176  55.235  1.00  0.00     0.039 A 
HETATM   19  C22 UNL     1      21.856  -0.809  54.766  1.00  0.00     0.039 A 
BRANCH  17  20
HETATM   20  O2  UNL     1      25.558  -1.076  54.973  1.00  0.00    -0.356 OA
HETATM   21  C20 UNL     1      26.546  -0.086  54.959  1.00  0.00     0.210 C 
ENDBRANCH  17  20
ENDBRANCH  13  14
ENDBRANCH  12  13
ENDBRANCH   9  12
BRANCH   1  22
HETATM   22  C7  UNL     1      24.356   4.093  49.046  1.00  0.00     0.093 A 
HETATM   23  C2  UNL     1      24.541   5.503  48.546  1.00  0.00    -0.054 A 
HETATM   24  C1  UNL     1      23.459   6.132  48.112  1.00  0.00     0.020 C 
HETATM   25  C3  UNL     1      25.796   6.241  48.495  1.00  0.00     0.007 A 
HETATM   26  C4  UNL     1      26.873   5.609  48.930  1.00  0.00     0.000 A 
HETATM   27  C5  UNL     1      26.812   4.243  49.436  1.00  0.00    -0.003 A 
HETATM   28  C6  UNL     1      25.678   3.564  49.486  1.00  0.00    -0.011 A 
ENDBRANCH   1  22
TORSDOF 5
ENDMDL
MODEL 8
REMARK VINA RESULT:      -8.1      3.730      4.784
REMARK  5 active torsions:
REMARK  status: ('A' for Active; 'I' for Inactive)
REMARK    1  A    between atoms: C7_7  and  C8_8 
REMARK    2  A    between atoms: C14_16  and  C15_17 
REMARK    3  A    between atoms: C15_17  and  O1_18 
REMARK    4  A    between atoms: O1_18  and  C16_19 
REMARK    5  A    between atoms: C19_22  and  O2_23 
ROOT
HETATM    1  C8  UNL     1      26.080   0.640  52.882  1.00  0.00     0.062 A 
HETATM    2  N1  UNL     1      26.949   1.498  52.273  1.00  0.00    -0.244 NA
HETATM    3  C9  UNL     1      26.465   2.368  51.369  1.00  0.00     0.235 A 
HETATM    4  N2  UNL     1      25.157   2.477  50.992  1.00  0.00    -0.224 NA
HETATM    5  C10 UNL     1      24.294   1.635  51.588  1.00  0.00     0.137 A 
HETATM    6  C11 UNL     1      24.759   0.736  52.516  1.00  0.00     0.035 A 
HETATM    7  C12 UNL     1      23.888  -0.209  53.201  1.00  0.00     0.015 A 
HETATM    8  C13 UNL     1      22.592  -0.221  52.937  1.00  0.00     0.001 A 
HETATM    9  C14 UNL     1      21.963   0.706  51.948  1.00  0.00     0.130 A 
HETATM   10  N3  UNL     1      22.896   1.598  51.329  1.00  0.00    -0.364 N 
HETATM   11  H21 UNL     1      22.498   2.256  50.643  1.00  0.00     0.162 HD
ENDROOT
BRANCH   9  12
HETATM   12  C15 UNL     1      20.853   1.509  52.588  1.00  0.00     0.204 C 
BRANCH  12  13
HETATM   13  O1  UNL     1      20.361   2.470  51.710  1.00  0.00    -0.349 OA
BRANCH  13  14
HETATM   14  C16 UNL     1      19.019   2.729  51.491  1.00  0.00     0.069 A 
HETATM   15  C17 UNL     1      18.172   1.669  51.612  1.00  0.00     0.039 A 
HETATM   16  C18 UNL     1      16.810   1.895  51.397  1.00  0.00     0.039 A 
HETATM   17  C19 UNL     1      16.368   3.182  51.071  1.00  0.00     0.068 A 
HETATM   18  C21 UNL     1      17.287   4.207  50.967  1.00  0.00     0.039 A 
HETATM   19  C22 UNL     1      18.635   4.015  51.173  1.00  0.00     0.039 A 
BRANCH  17  20
HETATM   20  O2  UNL     1      15.012   3.231  50.895  1.00  0.00    -0.356 OA
HETATM   21  C20 UNL     1      14.177   3.749  51.892  1.00  0.00     0.210 C 
ENDBRANCH  17  20
ENDBRANCH  13  14
ENDBRANCH  12  13
ENDBRANCH   9  12
BRANCH   1  22
HETATM   22  C7  UNL     1      26.750  -0.252  53.851  1.00  0.00     0.093 A 
HETATM   23  C2  UNL     1      27.551  -1.278  53.090  1.00  0.00    -0.054 A 
HETATM   24  C1  UNL     1      26.874  -2.118  52.321  1.00  0.00     0.020 C 
HETATM   25  C3  UNL     1      28.999  -1.435  53.119  1.00  0.00     0.007 A 
HETATM   26  C4  UNL     1      29.670  -0.594  53.888  1.00  0.00     0.000 A 
HETATM   27  C5  UNL     1      29.000   0.439  54.668  1.00  0.00    -0.003 A 
HETATM   28  C6  UNL     1      27.686   0.590  54.649  1.00  0.00    -0.011 A 
ENDBRANCH   1  22
TORSDOF 5
ENDMDL
MODEL 9
REMARK VINA RESULT:      -8.1      8.675     13.436
REMARK  5 active torsions:
REMARK  status: ('A' for Active; 'I' for Inactive)
REMARK    1  A    between atoms: C7_7  and  C8_8 
REMARK    2  A    between atoms: C14_16  and  C15_17 
REMARK    3  A    between atoms: C15_17  and  O1_18 
REMARK    4  A    between atoms: O1_18  and  C16_19 
REMARK    5  A    between atoms: C19_22  and  O2_23 
ROOT
HETATM    1  C8  UNL     1      25.309   4.694  49.806  1.00  0.00     0.062 A 
HETATM    2  N1  UNL     1      24.282   5.262  50.503  1.00  0.00    -0.244 NA
HETATM    3  C9  UNL     1      24.335   6.579  50.766  1.00  0.00     0.235 A 
HETATM    4  N2  UNL     1      25.340   7.424  50.393  1.00  0.00    -0.224 NA
HETATM    5  C10 UNL     1      26.357   6.873  49.705  1.00  0.00     0.137 A 
HETATM    6  C11 UNL     1      26.330   5.530  49.422  1.00  0.00     0.035 A 
HETATM    7  C12 UNL     1      27.392   4.860  48.685  1.00  0.00     0.015 A 
HETATM    8  C13 UNL     1      28.436   5.552  48.259  1.00  0.00     0.001 A 
HETATM    9  C14 UNL     1      28.583   7.019  48.503  1.00  0.00     0.130 A 
HETATM   10  N3  UNL     1      27.491   7.589  49.231  1.00  0.00    -0.364 N 
HETATM   11  H21 UNL     1      27.555   8.601  49.415  1.00  0.00     0.162 HD
ENDROOT
BRANCH   9  12
HETATM   12  C15 UNL     1      28.763   7.769  47.202  1.00  0.00     0.204 C 
BRANCH  12  13
HETATM   13  O1  UNL     1      29.974   8.453  47.183  1.00  0.00    -0.349 OA
BRANCH  13  14
HETATM   14  C16 UNL     1      31.214   7.875  47.398  1.00  0.00     0.069 A 
HETATM   15  C17 UNL     1      31.615   6.951  46.482  1.00  0.00     0.039 A 
HETATM   16  C18 UNL     1      32.861   6.347  46.669  1.00  0.00     0.039 A 
HETATM   17  C19 UNL     1      33.643   6.706  47.772  1.00  0.00     0.068 A 
HETATM   18  C21 UNL     1      33.168   7.652  48.658  1.00  0.00     0.039 A 
HETATM   19  C22 UNL     1      31.945   8.264  48.502  1.00  0.00     0.039 A 
BRANCH  17  20
HETATM   20  O2  UNL     1      34.829   6.025  47.807  1.00  0.00    -0.356 OA
HETATM   21  C20 UNL     1      35.378   5.600  49.022  1.00  0.00     0.210 C 
ENDBRANCH  17  20
ENDBRANCH  13  14
ENDBRANCH  12  13
ENDBRANCH   9  12
BRANCH   1  22
HETATM   22  C7  UNL     1      25.114   3.245  49.590  1.00  0.00     0.093 A 
HETATM   23  C2  UNL     1      25.328   2.528  50.898  1.00  0.00    -0.054 A 
HETATM   24  C1  UNL     1      26.539   2.597  51.430  1.00  0.00     0.020 C 
HETATM   25  C3  UNL     1      24.328   1.767  51.636  1.00  0.00     0.007 A 
HETATM   26  C4  UNL     1      23.121   1.701  51.102  1.00  0.00     0.000 A 
HETATM   27  C5  UNL     1      22.800   2.358  49.840  1.00  0.00    -0.003 A 
HETATM   28  C6  UNL     1      23.700   3.051  49.162  1.00  0.00    -0.011 A 
ENDBRANCH   1  22
TORSDOF 5
ENDMDL
