MODEL 1
REMARK VINA RESULT:      -7.8      0.000      0.000
REMARK  6 active torsions:
REMARK  status: ('A' for Active; 'I' for Inactive)
REMARK    1  A    between atoms: C2_2  and  C3_3 
REMARK    2  A    between atoms: C3_3  and  C4_4 
REMARK    3  A    between atoms: C4_4  and  C5_5 
REMARK    4  A    between atoms: C11_13  and  C12_14 
REMARK    5  A    between atoms: C12_14  and  C13_15 
REMARK    6  A    between atoms: N2_19  and  C15_20 
ROOT
HETATM    1  C5  UNL     1      26.683  -0.269  55.026  1.00  0.00     0.030 C 
HETATM    2  C6  UNL     1      25.421  -0.582  54.967  1.00  0.00     0.053 A 
HETATM    3  N1  UNL     1      24.745  -1.441  55.872  1.00  0.00    -0.322 N 
HETATM    4  C7  UNL     1      23.616  -1.171  55.069  1.00  0.00     0.260 A 
HETATM    5  O1  UNL     1      22.533  -1.718  55.395  1.00  0.00    -0.267 OA
HETATM    6  C8  UNL     1      24.279  -0.294  54.135  1.00  0.00     0.085 A 
HETATM    7  C9  UNL     1      23.895   0.402  53.110  1.00  0.00     0.049 A 
HETATM    8  C10 UNL     1      24.714   1.309  52.338  1.00  0.00     0.035 A 
HETATM    9  C11 UNL     1      24.097   1.900  51.357  1.00  0.00    -0.054 A 
HETATM   10  C14 UNL     1      22.671   1.513  51.392  1.00  0.00     0.157 A 
HETATM   11  N2  UNL     1      22.643   0.496  52.458  1.00  0.00    -0.376 N 
HETATM   12  H9  UNL     1      25.005  -2.004  56.738  1.00  0.00     0.169 HD
ENDROOT
BRANCH  11  13
HETATM   13  C15 UNL     1      21.430  -0.214  52.662  1.00  0.00     0.119 C 
HETATM   14  C16 UNL     1      20.465   0.476  53.628  1.00  0.00     0.026 C 
ENDBRANCH  11  13
BRANCH   9  15
HETATM   15  C12 UNL     1      24.420   2.871  50.290  1.00  0.00     0.106 C 
BRANCH  15  16
HETATM   16  C13 UNL     1      25.855   3.217  50.377  1.00  0.00     0.121 A 
HETATM   17  O2  UNL     1      26.580   3.497  49.397  1.00  0.00    -0.194 OA
HETATM   18  O3  UNL     1      27.140   3.491  50.793  1.00  0.00     0.000 OA
HETATM   19  H13 UNL     1      27.379   3.937  51.688  1.00  0.00     0.000 HD
ENDBRANCH  15  16
ENDBRANCH   9  15
BRANCH   1  20
HETATM   20  C4  UNL     1      27.803   0.412  54.530  1.00  0.00    -0.002 C 
BRANCH  20  21
HETATM   21  C3  UNL     1      28.883   0.658  53.840  1.00  0.00    -0.027 C 
BRANCH  21  22
HETATM   22  C2  UNL     1      30.007  -0.229  53.548  1.00  0.00     0.022 C 
HETATM   23  C1  UNL     1      29.530  -1.660  53.381  1.00  0.00     0.009 C 
ENDBRANCH  21  22
ENDBRANCH  20  21
ENDBRANCH   1  20
TORSDOF 6
ENDMDL
MODEL 2
REMARK VINA RESULT:      -7.7      2.249      5.172
REMARK  6 active torsions:
REMARK  status: ('A' for Active; 'I' for Inactive)
REMARK    1  A    between atoms: C2_2  and  C3_3 
REMARK    2  A    between atoms: C3_3  and  C4_4 
REMARK    3  A    between atoms: C4_4  and  C5_5 
REMARK    4  A    between atoms: C11_13  and  C12_14 
REMARK    5  A    between atoms: C12_14  and  C13_15 
REMARK    6  A    between atoms: N2_19  and  C15_20 
ROOT
HETATM    1  C5  UNL     1      24.349   3.250  49.688  1.00  0.00     0.030 C 
HETATM    2  C6  UNL     1      23.524   2.429  50.271  1.00  0.00     0.053 A 
HETATM    3  N1  UNL     1      22.162   2.242  49.916  1.00  0.00    -0.322 N 
HETATM    4  C7  UNL     1      22.159   1.307  50.973  1.00  0.00     0.260 A 
HETATM    5  O1  UNL     1      21.080   0.704  51.204  1.00  0.00    -0.267 OA
HETATM    6  C8  UNL     1      23.539   1.476  51.353  1.00  0.00     0.085 A 
HETATM    7  C9  UNL     1      24.314   0.925  52.235  1.00  0.00     0.049 A 
HETATM    8  C10 UNL     1      25.727   1.177  52.408  1.00  0.00     0.035 A 
HETATM    9  C11 UNL     1      26.291   0.494  53.360  1.00  0.00    -0.054 A 
HETATM   10  C14 UNL     1      25.291  -0.431  53.935  1.00  0.00     0.157 A 
HETATM   11  N2  UNL     1      24.052  -0.031  53.245  1.00  0.00    -0.376 N 
HETATM   12  H9  UNL     1      21.496   2.642  49.187  1.00  0.00     0.169 HD
ENDROOT
BRANCH  11  13
HETATM   13  C15 UNL     1      22.835  -0.624  53.674  1.00  0.00     0.119 C 
HETATM   14  C16 UNL     1      22.869  -1.126  55.119  1.00  0.00     0.026 C 
ENDBRANCH  11  13
BRANCH   9  15
HETATM   15  C12 UNL     1      27.635   0.357  53.958  1.00  0.00     0.106 C 
BRANCH  15  16
HETATM   16  C13 UNL     1      28.411   1.584  53.677  1.00  0.00     0.121 A 
HETATM   17  O2  UNL     1      28.254   2.676  54.265  1.00  0.00    -0.194 OA
HETATM   18  O3  UNL     1      29.287   2.526  53.183  1.00  0.00     0.000 OA
HETATM   19  H13 UNL     1      30.234   2.318  52.841  1.00  0.00     0.000 HD
ENDBRANCH  15  16
ENDBRANCH   9  15
BRANCH   1  20
HETATM   20  C4  UNL     1      25.618   3.830  49.561  1.00  0.00    -0.002 C 
BRANCH  20  21
HETATM   21  C3  UNL     1      26.895   3.947  49.318  1.00  0.00    -0.027 C 
BRANCH  21  22
HETATM   22  C2  UNL     1      27.605   5.034  48.649  1.00  0.00     0.022 C 
HETATM   23  C1  UNL     1      26.751   6.288  48.609  1.00  0.00     0.009 C 
ENDBRANCH  21  22
ENDBRANCH  20  21
ENDBRANCH   1  20
TORSDOF 6
ENDMDL
MODEL 3
REMARK VINA RESULT:      -7.4      2.105      4.998
REMARK  6 active torsions:
REMARK  status: ('A' for Active; 'I' for Inactive)
REMARK    1  A    between atoms: C2_2  and  C3_3 
REMARK    2  A    between atoms: C3_3  and  C4_4 
REMARK    3  A    between atoms: C4_4  and  C5_5 
REMARK    4  A    between atoms: C11_13  and  C12_14 
REMARK    5  A    between atoms: C12_14  and  C13_15 
REMARK    6  A    between atoms: N2_19  and  C15_20 
ROOT
HETATM    1  C5  UNL     1      26.864   1.165  51.927  1.00  0.00     0.030 C 
HETATM    2  C6  UNL     1      26.086   2.162  51.618  1.00  0.00     0.053 A 
HETATM    3  N1  UNL     1      26.487   3.331  50.921  1.00  0.00    -0.322 N 
HETATM    4  C7  UNL     1      25.138   3.717  51.073  1.00  0.00     0.260 A 
HETATM    5  O1  UNL     1      24.800   4.829  50.594  1.00  0.00    -0.267 OA
HETATM    6  C8  UNL     1      24.705   2.539  51.783  1.00  0.00     0.085 A 
HETATM    7  C9  UNL     1      23.566   2.123  52.243  1.00  0.00     0.049 A 
HETATM    8  C10 UNL     1      23.313   0.842  52.864  1.00  0.00     0.035 A 
HETATM    9  C11 UNL     1      22.082   0.651  53.240  1.00  0.00    -0.054 A 
HETATM   10  C14 UNL     1      21.273   1.814  52.817  1.00  0.00     0.157 A 
HETATM   11  N2  UNL     1      22.292   2.737  52.287  1.00  0.00    -0.376 N 
HETATM   12  H9  UNL     1      27.392   3.702  50.498  1.00  0.00     0.169 HD
ENDROOT
BRANCH  11  13
HETATM   13  C15 UNL     1      21.875   4.045  51.925  1.00  0.00     0.119 C 
HETATM   14  C16 UNL     1      20.421   4.121  51.454  1.00  0.00     0.026 C 
ENDBRANCH  11  13
BRANCH   9  15
HETATM   15  C12 UNL     1      21.293  -0.411  53.898  1.00  0.00     0.106 C 
BRANCH  15  16
HETATM   16  C13 UNL     1      22.159  -1.120  54.864  1.00  0.00     0.121 A 
HETATM   17  O2  UNL     1      21.999  -2.307  55.226  1.00  0.00    -0.194 OA
HETATM   18  O3  UNL     1      23.131  -1.481  55.771  1.00  0.00     0.000 OA
HETATM   19  H13 UNL     1      24.097  -1.127  55.762  1.00  0.00     0.000 HD
ENDBRANCH  15  16
ENDBRANCH   9  15
BRANCH   1  20
HETATM   20  C4  UNL     1      27.076  -0.091  52.512  1.00  0.00    -0.002 C 
BRANCH  20  21
HETATM   21  C3  UNL     1      27.668  -1.060  53.155  1.00  0.00    -0.027 C 
BRANCH  21  22
HETATM   22  C2  UNL     1      29.089  -1.395  53.204  1.00  0.00     0.022 C 
HETATM   23  C1  UNL     1      29.911  -0.183  53.600  1.00  0.00     0.009 C 
ENDBRANCH  21  22
ENDBRANCH  20  21
ENDBRANCH   1  20
TORSDOF 6
ENDMDL
MODEL 4
REMARK VINA RESULT:      -7.2      1.803      5.371
REMARK  6 active torsions:
REMARK  status: ('A' for Active; 'I' for Inactive)
REMARK    1  A    between atoms: C2_2  and  C3_3 
REMARK    2  A    between atoms: C3_3  and  C4_4 
REMARK    3  A    between atoms: C4_4  and  C5_5 
REMARK    4  A    between atoms: C11_13  and  C12_14 
REMARK    5  A    between atoms: C12_14  and  C13_15 
REMARK    6  A    between atoms: N2_19  and  C15_20 
ROOT
HETATM    1  C5  UNL     1      19.708  -0.097  52.772  1.00  0.00     0.030 C 
HETATM    2  C6  UNL     1      20.696  -0.568  53.476  1.00  0.00     0.053 A 
HETATM    3  N1  UNL     1      20.584  -1.553  54.492  1.00  0.00    -0.322 N 
HETATM    4  C7  UNL     1      21.980  -1.388  54.614  1.00  0.00     0.260 A 
HETATM    5  O1  UNL     1      22.570  -2.087  55.476  1.00  0.00    -0.267 OA
HETATM    6  C8  UNL     1      22.122  -0.386  53.586  1.00  0.00     0.085 A 
HETATM    7  C9  UNL     1      23.127   0.250  53.069  1.00  0.00     0.049 A 
HETATM    8  C10 UNL     1      23.072   1.175  51.959  1.00  0.00     0.035 A 
HETATM    9  C11 UNL     1      24.219   1.684  51.615  1.00  0.00    -0.054 A 
HETATM   10  C14 UNL     1      25.277   1.065  52.441  1.00  0.00     0.157 A 
HETATM   11  N2  UNL     1      24.504   0.251  53.395  1.00  0.00    -0.376 N 
HETATM   12  H9  UNL     1      19.796  -2.124  54.927  1.00  0.00     0.169 HD
ENDROOT
BRANCH  11  13
HETATM   13  C15 UNL     1      25.211  -0.376  54.455  1.00  0.00     0.119 C 
HETATM   14  C16 UNL     1      26.511   0.335  54.835  1.00  0.00     0.026 C 
ENDBRANCH  11  13
BRANCH   9  15
HETATM   15  C12 UNL     1      24.734   2.637  50.610  1.00  0.00     0.106 C 
BRANCH  15  16
HETATM   16  C13 UNL     1      26.164   2.896  50.885  1.00  0.00     0.121 A 
HETATM   17  O2  UNL     1      27.043   3.040  50.008  1.00  0.00    -0.194 OA
HETATM   18  O3  UNL     1      27.392   3.123  51.468  1.00  0.00     0.000 OA
HETATM   19  H13 UNL     1      27.532   3.632  52.352  1.00  0.00     0.000 HD
ENDBRANCH  15  16
ENDBRANCH   9  15
BRANCH   1  20
HETATM   20  C4  UNL     1      19.207   0.750  51.774  1.00  0.00    -0.002 C 
BRANCH  20  21
HETATM   21  C3  UNL     1      18.762   1.150  50.615  1.00  0.00    -0.027 C 
BRANCH  21  22
HETATM   22  C2  UNL     1      19.485   1.819  49.536  1.00  0.00     0.022 C 
HETATM   23  C1  UNL     1      20.806   1.124  49.264  1.00  0.00     0.009 C 
ENDBRANCH  21  22
ENDBRANCH  20  21
ENDBRANCH   1  20
TORSDOF 6
ENDMDL
MODEL 5
REMARK VINA RESULT:      -7.2      2.896      4.590
REMARK  6 active torsions:
REMARK  status: ('A' for Active; 'I' for Inactive)
REMARK    1  A    between atoms: C2_2  and  C3_3 
REMARK    2  A    between atoms: C3_3  and  C4_4 
REMARK    3  A    between atoms: C4_4  and  C5_5 
REMARK    4  A    between atoms: C11_13  and  C12_14 
REMARK    5  A    between atoms: C12_14  and  C13_15 
REMARK    6  A    between atoms: N2_19  and  C15_20 
ROOT
HETATM    1  C5  UNL     1      26.781   2.199  51.816  1.00  0.00     0.030 C 
HETATM    2  C6  UNL     1      26.319   1.339  52.676  1.00  0.00     0.053 A 
HETATM    3  N1  UNL     1      27.088   0.672  53.665  1.00  0.00    -0.322 N 
HETATM    4  C7  UNL     1      25.862   0.064  54.011  1.00  0.00     0.260 A 
HETATM    5  O1  UNL     1      25.875  -0.757  54.962  1.00  0.00    -0.267 OA
HETATM    6  C8  UNL     1      25.057   0.728  53.015  1.00  0.00     0.085 A 
HETATM    7  C9  UNL     1      23.796   0.726  52.716  1.00  0.00     0.049 A 
HETATM    8  C10 UNL     1      23.154   1.547  51.714  1.00  0.00     0.035 A 
HETATM    9  C11 UNL     1      21.870   1.368  51.603  1.00  0.00    -0.054 A 
HETATM   10  C14 UNL     1      21.434   0.408  52.638  1.00  0.00     0.157 A 
HETATM   11  N2  UNL     1      22.712  -0.025  53.231  1.00  0.00    -0.376 N 
HETATM   12  H9  UNL     1      28.109   0.664  53.970  1.00  0.00     0.169 HD
ENDROOT
BRANCH  11  13
HETATM   13  C15 UNL     1      22.677  -1.083  54.177  1.00  0.00     0.119 C 
HETATM   14  C16 UNL     1      21.275  -1.638  54.432  1.00  0.00     0.026 C 
ENDBRANCH  11  13
BRANCH   9  15
HETATM   15  C12 UNL     1      20.760   1.900  50.785  1.00  0.00     0.106 C 
BRANCH  15  16
HETATM   16  C13 UNL     1      19.922   2.779  51.629  1.00  0.00     0.121 A 
HETATM   17  O2  UNL     1      20.361   3.545  52.514  1.00  0.00    -0.194 OA
HETATM   18  O3  UNL     1      18.886   3.458  52.233  1.00  0.00     0.000 OA
HETATM   19  H13 UNL     1      18.024   3.750  51.754  1.00  0.00     0.000 HD
ENDBRANCH  15  16
ENDBRANCH   9  15
BRANCH   1  20
HETATM   20  C4  UNL     1      26.597   3.082  50.743  1.00  0.00    -0.002 C 
BRANCH  20  21
HETATM   21  C3  UNL     1      26.404   3.509  49.526  1.00  0.00    -0.027 C 
BRANCH  21  22
HETATM   22  C2  UNL     1      26.610   4.848  48.979  1.00  0.00     0.022 C 
HETATM   23  C1  UNL     1      28.051   5.030  48.537  1.00  0.00     0.009 C 
ENDBRANCH  21  22
ENDBRANCH  20  21
ENDBRANCH   1  20
TORSDOF 6
ENDMDL
MODEL 6
REMARK VINA RESULT:      -7.1      2.267      6.667
REMARK  6 active torsions:
REMARK  status: ('A' for Active; 'I' for Inactive)
REMARK    1  A    between atoms: C2_2  and  C3_3 
REMARK    2  A    between atoms: C3_3  and  C4_4 
REMARK    3  A    between atoms: C4_4  and  C5_5 
REMARK    4  A    between atoms: C11_13  and  C12_14 
REMARK    5  A    between atoms: C12_14  and  C13_15 
REMARK    6  A    between atoms: N2_19  and  C15_20 
ROOT
HETATM    1  C5  UNL     1      24.641   3.982  49.603  1.00  0.00     0.030 C 
HETATM    2  C6  UNL     1      25.418   3.350  50.435  1.00  0.00     0.053 A 
HETATM    3  N1  UNL     1      26.793   3.628  50.647  1.00  0.00    -0.322 N 
HETATM    4  C7  UNL     1      26.722   2.567  51.575  1.00  0.00     0.260 A 
HETATM    5  O1  UNL     1      27.775   2.273  52.195  1.00  0.00    -0.267 OA
HETATM    6  C8  UNL     1      25.326   2.264  51.379  1.00  0.00     0.085 A 
HETATM    7  C9  UNL     1      24.495   1.423  51.910  1.00  0.00     0.049 A 
HETATM    8  C10 UNL     1      23.079   1.329  51.632  1.00  0.00     0.035 A 
HETATM    9  C11 UNL     1      22.451   0.405  52.298  1.00  0.00    -0.054 A 
HETATM   10  C14 UNL     1      23.401  -0.229  53.236  1.00  0.00     0.157 A 
HETATM   11  N2  UNL     1      24.683   0.394  52.863  1.00  0.00    -0.376 N 
HETATM   12  H9  UNL     1      27.506   4.322  50.265  1.00  0.00     0.169 HD
ENDROOT
BRANCH  11  13
HETATM   13  C15 UNL     1      25.864  -0.105  53.475  1.00  0.00     0.119 C 
HETATM   14  C16 UNL     1      26.651  -1.078  52.595  1.00  0.00     0.026 C 
ENDBRANCH  11  13
BRANCH   9  15
HETATM   15  C12 UNL     1      21.074  -0.118  52.407  1.00  0.00     0.106 C 
BRANCH  15  16
HETATM   16  C13 UNL     1      20.917  -0.784  53.719  1.00  0.00     0.121 A 
HETATM   17  O2  UNL     1      20.077  -1.676  53.969  1.00  0.00    -0.194 OA
HETATM   18  O3  UNL     1      21.028  -1.195  55.029  1.00  0.00     0.000 OA
HETATM   19  H13 UNL     1      21.911  -1.230  55.556  1.00  0.00     0.000 HD
ENDBRANCH  15  16
ENDBRANCH   9  15
BRANCH   1  20
HETATM   20  C4  UNL     1      23.392   4.182  49.001  1.00  0.00    -0.002 C 
BRANCH  20  21
HETATM   21  C3  UNL     1      22.161   3.962  48.627  1.00  0.00    -0.027 C 
BRANCH  21  22
HETATM   22  C2  UNL     1      21.649   2.951  47.705  1.00  0.00     0.022 C 
HETATM   23  C1  UNL     1      22.031   1.558  48.170  1.00  0.00     0.009 C 
ENDBRANCH  21  22
ENDBRANCH  20  21
ENDBRANCH   1  20
TORSDOF 6
ENDMDL
MODEL 7
REMARK VINA RESULT:      -7.0      2.943      5.458
REMARK  6 active torsions:
REMARK  status: ('A' for Active; 'I' for Inactive)
REMARK    1  A    between atoms: C2_2  and  C3_3 
REMARK    2  A    between atoms: C3_3  and  C4_4 
REMARK    3  A    between atoms: C4_4  and  C5_5 
REMARK    4  A    between atoms: C11_13  and  C12_14 
REMARK    5  A    between atoms: C12_14  and  C13_15 
REMARK    6  A    between atoms: N2_19  and  C15_20 
ROOT
HETATM    1  C5  UNL     1      21.219   0.593  52.512  1.00  0.00     0.030 C 
HETATM    2  C6  UNL     1      21.579   1.500  51.651  1.00  0.00     0.053 A 
HETATM    3  N1  UNL     1      20.695   2.278  50.859  1.00  0.00    -0.322 N 
HETATM    4  C7  UNL     1      21.879   2.854  50.350  1.00  0.00     0.260 A 
HETATM    5  O1  UNL     1      21.754   3.750  49.478  1.00  0.00    -0.267 OA
HETATM    6  C8  UNL     1      22.799   2.077  51.143  1.00  0.00     0.085 A 
HETATM    7  C9  UNL     1      24.089   2.053  51.277  1.00  0.00     0.049 A 
HETATM    8  C10 UNL     1      24.836   1.241  52.211  1.00  0.00     0.035 A 
HETATM    9  C11 UNL     1      26.126   1.399  52.161  1.00  0.00    -0.054 A 
HETATM   10  C14 UNL     1      26.435   2.467  51.187  1.00  0.00     0.157 A 
HETATM   11  N2  UNL     1      25.114   2.759  50.603  1.00  0.00    -0.376 N 
HETATM   12  H9  UNL     1      19.639   2.358  50.737  1.00  0.00     0.169 HD
ENDROOT
BRANCH  11  13
HETATM   13  C15 UNL     1      25.061   3.652  49.500  1.00  0.00     0.119 C 
HETATM   14  C16 UNL     1      25.155   5.126  49.894  1.00  0.00     0.026 C 
ENDBRANCH  11  13
BRANCH   9  15
HETATM   15  C12 UNL     1      27.321   0.856  52.841  1.00  0.00     0.106 C 
BRANCH  15  16
HETATM   16  C13 UNL     1      28.237   1.972  53.163  1.00  0.00     0.121 A 
HETATM   17  O2  UNL     1      28.220   2.621  54.232  1.00  0.00    -0.194 OA
HETATM   18  O3  UNL     1      29.215   2.942  53.151  1.00  0.00     0.000 OA
HETATM   19  H13 UNL     1      30.126   2.845  52.682  1.00  0.00     0.000 HD
ENDBRANCH  15  16
ENDBRANCH   9  15
BRANCH   1  20
HETATM   20  C4  UNL     1      21.529  -0.383  53.469  1.00  0.00    -0.002 C 
BRANCH  20  21
HETATM   21  C3  UNL     1      22.201  -1.294  54.119  1.00  0.00    -0.027 C 
BRANCH  21  22
HETATM   22  C2  UNL     1      22.982  -1.158  55.345  1.00  0.00     0.022 C 
HETATM   23  C1  UNL     1      24.466  -1.102  55.032  1.00  0.00     0.009 C 
ENDBRANCH  21  22
ENDBRANCH  20  21
ENDBRANCH   1  20
TORSDOF 6
ENDMDL
MODEL 8
REMARK VINA RESULT:      -6.8      1.935      6.868
REMARK  6 active torsions:
REMARK  status: ('A' for Active; 'I' for Inactive)
REMARK    1  A    between atoms: C2_2  and  C3_3 
REMARK    2  A    between atoms: C3_3  and  C4_4 
REMARK    3  A    between atoms: C4_4  and  C5_5 
REMARK    4  A    between atoms: C11_13  and  C12_14 
REMARK    5  A    between atoms: C12_14  and  C13_15 
REMARK    6  A    between atoms: N2_19  and  C15_20 
ROOT
HETATM    1  C5  UNL     1      22.654   3.509  51.156  1.00  0.00     0.030 C 
HETATM    2  C6  UNL     1      23.911   3.179  51.104  1.00  0.00     0.053 A 
HETATM    3  N1  UNL     1      24.908   3.853  50.352  1.00  0.00    -0.322 N 
HETATM    4  C7  UNL     1      25.775   2.874  50.882  1.00  0.00     0.260 A 
HETATM    5  O1  UNL     1      26.985   2.933  50.546  1.00  0.00    -0.267 OA
HETATM    6  C8  UNL     1      24.782   2.171  51.656  1.00  0.00     0.085 A 
HETATM    7  C9  UNL     1      24.810   1.159  52.467  1.00  0.00     0.049 A 
HETATM    8  C10 UNL     1      23.695   0.646  53.231  1.00  0.00     0.035 A 
HETATM    9  C11 UNL     1      23.974  -0.379  53.983  1.00  0.00    -0.054 A 
HETATM   10  C14 UNL     1      25.423  -0.656  53.887  1.00  0.00     0.157 A 
HETATM   11  N2  UNL     1      25.860   0.287  52.842  1.00  0.00    -0.376 N 
HETATM   12  H9  UNL     1      24.942   4.699  49.704  1.00  0.00     0.169 HD
ENDROOT
BRANCH  11  13
HETATM   13  C15 UNL     1      27.198   0.187  52.378  1.00  0.00     0.119 C 
HETATM   14  C16 UNL     1      28.191  -0.262  53.451  1.00  0.00     0.026 C 
ENDBRANCH  11  13
BRANCH   9  15
HETATM   15  C12 UNL     1      23.263  -1.269  54.924  1.00  0.00     0.106 C 
BRANCH  15  16
HETATM   16  C13 UNL     1      21.815  -0.975  54.859  1.00  0.00     0.121 A 
HETATM   17  O2  UNL     1      20.918  -1.837  54.733  1.00  0.00    -0.194 OA
HETATM   18  O3  UNL     1      20.574  -0.377  54.832  1.00  0.00     0.000 OA
HETATM   19  H13 UNL     1      20.327   0.475  55.353  1.00  0.00     0.000 HD
ENDBRANCH  15  16
ENDBRANCH   9  15
BRANCH   1  20
HETATM   20  C4  UNL     1      21.349   3.305  51.624  1.00  0.00    -0.002 C 
BRANCH  20  21
HETATM   21  C3  UNL     1      20.329   2.730  52.200  1.00  0.00    -0.027 C 
BRANCH  21  22
HETATM   22  C2  UNL     1      19.583   1.547  51.778  1.00  0.00     0.022 C 
HETATM   23  C1  UNL     1      20.529   0.423  51.400  1.00  0.00     0.009 C 
ENDBRANCH  21  22
ENDBRANCH  20  21
ENDBRANCH   1  20
TORSDOF 6
ENDMDL
MODEL 9
REMARK VINA RESULT:      -6.8      1.932      5.467
REMARK  6 active torsions:
REMARK  status: ('A' for Active; 'I' for Inactive)
REMARK    1  A    between atoms: C2_2  and  C3_3 
REMARK    2  A    between atoms: C3_3  and  C4_4 
REMARK    3  A    between atoms: C4_4  and  C5_5 
REMARK    4  A    between atoms: C11_13  and  C12_14 
REMARK    5  A    between atoms: C12_14  and  C13_15 
REMARK    6  A    between atoms: N2_19  and  C15_20 
ROOT
HETATM    1  C5  UNL     1      21.196  -0.762  54.182  1.00  0.00     0.030 C 
HETATM    2  C6  UNL     1      22.458  -0.834  54.494  1.00  0.00     0.053 A 
HETATM    3  N1  UNL     1      23.005  -1.641  55.525  1.00  0.00    -0.322 N 
HETATM    4  C7  UNL     1      24.237  -1.088  55.114  1.00  0.00     0.260 A 
HETATM    5  O1  UNL     1      25.268  -1.459  55.730  1.00  0.00    -0.267 OA
HETATM    6  C8  UNL     1      23.707  -0.259  54.060  1.00  0.00     0.085 A 
HETATM    7  C9  UNL     1      24.229   0.536  53.179  1.00  0.00     0.049 A 
HETATM    8  C10 UNL     1      23.520   1.227  52.125  1.00  0.00     0.035 A 
HETATM    9  C11 UNL     1      24.267   1.966  51.358  1.00  0.00    -0.054 A 
HETATM   10  C14 UNL     1      25.678   1.793  51.763  1.00  0.00     0.157 A 
HETATM   11  N2  UNL     1      25.564   0.960  52.973  1.00  0.00    -0.376 N 
HETATM   12  H9  UNL     1      22.628  -2.328  56.246  1.00  0.00     0.169 HD
ENDROOT
BRANCH  11  13
HETATM   13  C15 UNL     1      26.744   0.720  53.725  1.00  0.00     0.119 C 
HETATM   14  C16 UNL     1      27.593  -0.435  53.191  1.00  0.00     0.026 C 
ENDBRANCH  11  13
BRANCH   9  15
HETATM   15  C12 UNL     1      24.092   2.854  50.190  1.00  0.00     0.106 C 
BRANCH  15  16
HETATM   16  C13 UNL     1      24.538   4.216  50.553  1.00  0.00     0.121 A 
HETATM   17  O2  UNL     1      25.211   4.966  49.812  1.00  0.00    -0.194 OA
HETATM   18  O3  UNL     1      24.789   5.415  51.184  1.00  0.00     0.000 OA
HETATM   19  H13 UNL     1      24.146   5.872  51.843  1.00  0.00     0.000 HD
ENDBRANCH  15  16
ENDBRANCH   9  15
BRANCH   1  20
HETATM   20  C4  UNL     1      20.152  -0.249  53.401  1.00  0.00    -0.002 C 
BRANCH  20  21
HETATM   21  C3  UNL     1      19.312  -0.114  52.412  1.00  0.00    -0.027 C 
BRANCH  21  22
HETATM   22  C2  UNL     1      17.977  -0.687  52.257  1.00  0.00     0.022 C 
HETATM   23  C1  UNL     1      17.346  -0.229  50.955  1.00  0.00     0.009 C 
ENDBRANCH  21  22
ENDBRANCH  20  21
ENDBRANCH   1  20
TORSDOF 6
ENDMDL
