MODEL 1
REMARK VINA RESULT:      -7.4      0.000      0.000
REMARK  6 active torsions:
REMARK  status: ('A' for Active; 'I' for Inactive)
REMARK    1  A    between atoms: C2_2  and  C3_3 
REMARK    2  A    between atoms: C3_3  and  C4_4 
REMARK    3  A    between atoms: C3_3  and  S1_18 
REMARK    4  A    between atoms: C5_5  and  C6_6 
REMARK    5  A    between atoms: C11_12  and  C12_13 
REMARK    6  A    between atoms: C12_13  and  O2_14 
ROOT
HETATM    1  C6  UNL     1      23.862  -0.555  54.206  1.00  0.00    -0.001 A 
HETATM    2  C7  UNL     1      23.895  -1.349  55.323  1.00  0.00     0.154 A 
HETATM    3  O1  UNL     1      22.654  -1.777  55.512  1.00  0.00    -0.321 OA
HETATM    4  C8  UNL     1      21.855  -1.297  54.582  1.00  0.00     0.086 A 
HETATM    5  C9  UNL     1      20.504  -1.445  54.346  1.00  0.00     0.039 A 
HETATM    6  C10 UNL     1      19.939  -0.790  53.249  1.00  0.00     0.012 A 
HETATM    7  C11 UNL     1      20.662   0.014  52.366  1.00  0.00    -0.033 A 
HETATM    8  C13 UNL     1      22.012   0.145  52.626  1.00  0.00     0.024 A 
HETATM    9  C14 UNL     1      22.576  -0.500  53.710  1.00  0.00     0.010 A 
ENDROOT
BRANCH   1  10
HETATM   10  C5  UNL     1      25.006   0.134  53.622  1.00  0.00     0.012 C 
HETATM   11  C4  UNL     1      26.143  -0.510  53.404  1.00  0.00    -0.005 C 
BRANCH  11  12
HETATM   12  C3  UNL     1      27.406   0.036  52.817  1.00  0.00     0.123 C 
BRANCH  12  13
HETATM   13  C2  UNL     1      28.476  -0.376  53.798  1.00  0.00    -0.016 C 
HETATM   14  C1  UNL     1      29.398  -1.261  53.437  1.00  0.00     0.008 C 
ENDBRANCH  12  13
BRANCH  12  15
HETATM   15  S1  UNL     1      27.266   1.841  52.910  1.00  0.00     0.022 S 
HETATM   16  C15 UNL     1      28.768   2.412  53.726  1.00  0.00     0.128 C 
HETATM   17  O3  UNL     1      27.198   2.370  51.472  1.00  0.00    -0.257 OA
ENDBRANCH  12  15
ENDBRANCH  11  12
ENDBRANCH   1  10
BRANCH   7  18
HETATM   18  C12 UNL     1      20.027   0.685  51.225  1.00  0.00     0.223 C 
BRANCH  18  19
HETATM   19  O2  UNL     1      20.832   1.691  50.672  1.00  0.00    -0.308 OA
HETATM   20 BR1  UNL     1      21.367   1.162  48.994  1.00  0.00     0.099 Br
ENDBRANCH  18  19
ENDBRANCH   7  18
TORSDOF 6
ENDMDL
MODEL 2
REMARK VINA RESULT:      -7.3      1.570      2.120
REMARK  6 active torsions:
REMARK  status: ('A' for Active; 'I' for Inactive)
REMARK    1  A    between atoms: C2_2  and  C3_3 
REMARK    2  A    between atoms: C3_3  and  C4_4 
REMARK    3  A    between atoms: C3_3  and  S1_18 
REMARK    4  A    between atoms: C5_5  and  C6_6 
REMARK    5  A    between atoms: C11_12  and  C12_13 
REMARK    6  A    between atoms: C12_13  and  O2_14 
ROOT
HETATM    1  C6  UNL     1      23.198  -0.604  53.886  1.00  0.00    -0.001 A 
HETATM    2  C7  UNL     1      22.824  -1.242  55.039  1.00  0.00     0.154 A 
HETATM    3  O1  UNL     1      21.499  -1.306  55.016  1.00  0.00    -0.321 OA
HETATM    4  C8  UNL     1      21.031  -0.748  53.920  1.00  0.00     0.086 A 
HETATM    5  C9  UNL     1      19.750  -0.564  53.440  1.00  0.00     0.039 A 
HETATM    6  C10 UNL     1      19.580   0.082  52.214  1.00  0.00     0.012 A 
HETATM    7  C11 UNL     1      20.634   0.560  51.433  1.00  0.00    -0.033 A 
HETATM    8  C13 UNL     1      21.904   0.363  51.937  1.00  0.00     0.024 A 
HETATM    9  C14 UNL     1      22.079  -0.274  53.150  1.00  0.00     0.010 A 
ENDROOT
BRANCH   1  10
HETATM   10  C5  UNL     1      24.569  -0.311  53.486  1.00  0.00     0.012 C 
HETATM   11  C4  UNL     1      25.137   0.840  53.817  1.00  0.00    -0.005 C 
BRANCH  11  12
HETATM   12  C3  UNL     1      26.523   1.302  53.493  1.00  0.00     0.123 C 
BRANCH  12  13
HETATM   13  C2  UNL     1      26.691   0.962  52.032  1.00  0.00    -0.016 C 
HETATM   14  C1  UNL     1      26.487   1.894  51.109  1.00  0.00     0.008 C 
ENDBRANCH  12  13
BRANCH  12  15
HETATM   15  S1  UNL     1      27.644   0.224  54.423  1.00  0.00     0.022 S 
HETATM   16  C15 UNL     1      28.322  -0.938  53.224  1.00  0.00     0.128 C 
HETATM   17  O3  UNL     1      28.754   1.109  55.004  1.00  0.00    -0.257 OA
ENDBRANCH  12  15
ENDBRANCH  11  12
ENDBRANCH   1  10
BRANCH   7  18
HETATM   18  C12 UNL     1      20.409   1.235  50.148  1.00  0.00     0.223 C 
BRANCH  18  19
HETATM   19  O2  UNL     1      21.218   0.728  49.122  1.00  0.00    -0.308 OA
HETATM   20 BR1  UNL     1      22.217   2.106  48.425  1.00  0.00     0.099 Br
ENDBRANCH  18  19
ENDBRANCH   7  18
TORSDOF 6
ENDMDL
MODEL 3
REMARK VINA RESULT:      -6.9      5.718      8.583
REMARK  6 active torsions:
REMARK  status: ('A' for Active; 'I' for Inactive)
REMARK    1  A    between atoms: C2_2  and  C3_3 
REMARK    2  A    between atoms: C3_3  and  C4_4 
REMARK    3  A    between atoms: C3_3  and  S1_18 
REMARK    4  A    between atoms: C5_5  and  C6_6 
REMARK    5  A    between atoms: C11_12  and  C12_13 
REMARK    6  A    between atoms: C12_13  and  O2_14 
ROOT
HETATM    1  C6  UNL     1      26.134   4.298  49.425  1.00  0.00    -0.001 A 
HETATM    2  C7  UNL     1      24.874   4.836  49.469  1.00  0.00     0.154 A 
HETATM    3  O1  UNL     1      24.959   6.029  48.895  1.00  0.00    -0.321 OA
HETATM    4  C8  UNL     1      26.193   6.262  48.499  1.00  0.00     0.086 A 
HETATM    5  C9  UNL     1      26.781   7.336  47.864  1.00  0.00     0.039 A 
HETATM    6  C10 UNL     1      28.146   7.278  47.574  1.00  0.00     0.012 A 
HETATM    7  C11 UNL     1      28.963   6.190  47.889  1.00  0.00    -0.033 A 
HETATM    8  C13 UNL     1      28.348   5.129  48.523  1.00  0.00     0.024 A 
HETATM    9  C14 UNL     1      26.999   5.182  48.814  1.00  0.00     0.010 A 
ENDROOT
BRANCH   1  10
HETATM   10  C5  UNL     1      26.515   2.990  49.944  1.00  0.00     0.012 C 
HETATM   11  C4  UNL     1      26.137   2.608  51.155  1.00  0.00    -0.005 C 
BRANCH  11  12
HETATM   12  C3  UNL     1      26.436   1.311  51.840  1.00  0.00     0.123 C 
BRANCH  12  13
HETATM   13  C2  UNL     1      25.091   0.838  52.333  1.00  0.00    -0.016 C 
HETATM   14  C1  UNL     1      23.983   1.421  51.892  1.00  0.00     0.008 C 
ENDBRANCH  12  13
BRANCH  12  15
HETATM   15  S1  UNL     1      27.422   1.729  53.302  1.00  0.00     0.022 S 
HETATM   16  C15 UNL     1      27.953   0.156  54.006  1.00  0.00     0.128 C 
HETATM   17  O3  UNL     1      28.632   2.541  52.822  1.00  0.00    -0.257 OA
ENDBRANCH  12  15
ENDBRANCH  11  12
ENDBRANCH   1  10
BRANCH   7  18
HETATM   18  C12 UNL     1      30.395   6.172  47.564  1.00  0.00     0.223 C 
BRANCH  18  19
HETATM   19  O2  UNL     1      31.109   5.235  48.325  1.00  0.00    -0.308 OA
HETATM   20 BR1  UNL     1      31.929   6.111  49.718  1.00  0.00     0.099 Br
ENDBRANCH  18  19
ENDBRANCH   7  18
TORSDOF 6
ENDMDL
MODEL 4
REMARK VINA RESULT:      -6.7      3.253      6.097
REMARK  6 active torsions:
REMARK  status: ('A' for Active; 'I' for Inactive)
REMARK    1  A    between atoms: C2_2  and  C3_3 
REMARK    2  A    between atoms: C3_3  and  C4_4 
REMARK    3  A    between atoms: C3_3  and  S1_18 
REMARK    4  A    between atoms: C5_5  and  C6_6 
REMARK    5  A    between atoms: C11_12  and  C12_13 
REMARK    6  A    between atoms: C12_13  and  O2_14 
ROOT
HETATM    1  C6  UNL     1      21.819  -0.707  53.276  1.00  0.00    -0.001 A 
HETATM    2  C7  UNL     1      20.987  -1.343  54.160  1.00  0.00     0.154 A 
HETATM    3  O1  UNL     1      21.735  -1.671  55.206  1.00  0.00    -0.321 OA
HETATM    4  C8  UNL     1      22.978  -1.277  55.024  1.00  0.00     0.086 A 
HETATM    5  C9  UNL     1      24.112  -1.379  55.802  1.00  0.00     0.039 A 
HETATM    6  C10 UNL     1      25.309  -0.849  55.316  1.00  0.00     0.012 A 
HETATM    7  C11 UNL     1      25.433  -0.214  54.079  1.00  0.00    -0.033 A 
HETATM    8  C13 UNL     1      24.283  -0.125  53.321  1.00  0.00     0.024 A 
HETATM    9  C14 UNL     1      23.096  -0.649  53.796  1.00  0.00     0.010 A 
ENDROOT
BRANCH   1  10
HETATM   10  C5  UNL     1      21.427  -0.170  51.979  1.00  0.00     0.012 C 
HETATM   11  C4  UNL     1      21.179   1.123  51.832  1.00  0.00    -0.005 C 
BRANCH  11  12
HETATM   12  C3  UNL     1      20.769   1.839  50.583  1.00  0.00     0.123 C 
BRANCH  12  13
HETATM   13  C2  UNL     1      22.015   1.838  49.733  1.00  0.00    -0.016 C 
HETATM   14  C1  UNL     1      23.080   2.530  50.122  1.00  0.00     0.008 C 
ENDBRANCH  12  13
BRANCH  12  15
HETATM   15  S1  UNL     1      20.455   3.557  51.067  1.00  0.00     0.022 S 
HETATM   16  C15 UNL     1      19.603   4.316  49.672  1.00  0.00     0.128 C 
HETATM   17  O3  UNL     1      19.547   3.527  52.303  1.00  0.00    -0.257 OA
ENDBRANCH  12  15
ENDBRANCH  11  12
ENDBRANCH   1  10
BRANCH   7  18
HETATM   18  C12 UNL     1      26.713   0.330  53.607  1.00  0.00     0.223 C 
BRANCH  18  19
HETATM   19  O2  UNL     1      27.727   0.241  54.572  1.00  0.00    -0.308 OA
HETATM   20 BR1  UNL     1      29.173  -0.618  53.828  1.00  0.00     0.099 Br
ENDBRANCH  18  19
ENDBRANCH   7  18
TORSDOF 6
ENDMDL
MODEL 5
REMARK VINA RESULT:      -6.7      2.970      4.158
REMARK  6 active torsions:
REMARK  status: ('A' for Active; 'I' for Inactive)
REMARK    1  A    between atoms: C2_2  and  C3_3 
REMARK    2  A    between atoms: C3_3  and  C4_4 
REMARK    3  A    between atoms: C3_3  and  S1_18 
REMARK    4  A    between atoms: C5_5  and  C6_6 
REMARK    5  A    between atoms: C11_12  and  C12_13 
REMARK    6  A    between atoms: C12_13  and  O2_14 
ROOT
HETATM    1  C6  UNL     1      24.182   3.206  51.429  1.00  0.00    -0.001 A 
HETATM    2  C7  UNL     1      24.072   4.550  51.182  1.00  0.00     0.154 A 
HETATM    3  O1  UNL     1      22.819   4.880  51.467  1.00  0.00    -0.321 OA
HETATM    4  C8  UNL     1      22.148   3.824  51.877  1.00  0.00     0.086 A 
HETATM    5  C9  UNL     1      20.840   3.650  52.281  1.00  0.00     0.039 A 
HETATM    6  C10 UNL     1      20.422   2.374  52.665  1.00  0.00     0.012 A 
HETATM    7  C11 UNL     1      21.250   1.250  52.664  1.00  0.00    -0.033 A 
HETATM    8  C13 UNL     1      22.553   1.453  52.254  1.00  0.00     0.024 A 
HETATM    9  C14 UNL     1      22.972   2.713  51.873  1.00  0.00     0.010 A 
ENDROOT
BRANCH   1  10
HETATM   10  C5  UNL     1      25.389   2.408  51.254  1.00  0.00     0.012 C 
HETATM   11  C4  UNL     1      25.996   1.865  52.299  1.00  0.00    -0.005 C 
BRANCH  11  12
HETATM   12  C3  UNL     1      27.234   1.023  52.302  1.00  0.00     0.123 C 
BRANCH  12  13
HETATM   13  C2  UNL     1      26.716  -0.391  52.211  1.00  0.00    -0.016 C 
HETATM   14  C1  UNL     1      25.726  -0.785  53.003  1.00  0.00     0.008 C 
ENDBRANCH  12  13
BRANCH  12  15
HETATM   15  S1  UNL     1      27.971   1.215  53.946  1.00  0.00     0.022 S 
HETATM   16  C15 UNL     1      29.411   0.132  53.973  1.00  0.00     0.128 C 
HETATM   17  O3  UNL     1      28.396   2.683  54.090  1.00  0.00    -0.257 OA
ENDBRANCH  12  15
ENDBRANCH  11  12
ENDBRANCH   1  10
BRANCH   7  18
HETATM   18  C12 UNL     1      20.767  -0.074  53.075  1.00  0.00     0.223 C 
BRANCH  18  19
HETATM   19  O2  UNL     1      20.817  -0.261  54.464  1.00  0.00    -0.308 OA
HETATM   20 BR1  UNL     1      22.323  -1.233  54.873  1.00  0.00     0.099 Br
ENDBRANCH  18  19
ENDBRANCH   7  18
TORSDOF 6
ENDMDL
MODEL 6
REMARK VINA RESULT:      -6.6      2.576      6.180
REMARK  6 active torsions:
REMARK  status: ('A' for Active; 'I' for Inactive)
REMARK    1  A    between atoms: C2_2  and  C3_3 
REMARK    2  A    between atoms: C3_3  and  C4_4 
REMARK    3  A    between atoms: C3_3  and  S1_18 
REMARK    4  A    between atoms: C5_5  and  C6_6 
REMARK    5  A    between atoms: C11_12  and  C12_13 
REMARK    6  A    between atoms: C12_13  and  O2_14 
ROOT
HETATM    1  C6  UNL     1      23.779  -0.412  53.811  1.00  0.00    -0.001 A 
HETATM    2  C7  UNL     1      24.135  -1.184  54.886  1.00  0.00     0.154 A 
HETATM    3  O1  UNL     1      25.450  -1.059  55.014  1.00  0.00    -0.321 OA
HETATM    4  C8  UNL     1      25.928  -0.258  54.086  1.00  0.00     0.086 A 
HETATM    5  C9  UNL     1      27.205   0.180  53.800  1.00  0.00     0.039 A 
HETATM    6  C10 UNL     1      27.390   1.048  52.721  1.00  0.00     0.012 A 
HETATM    7  C11 UNL     1      26.355   1.505  51.903  1.00  0.00    -0.033 A 
HETATM    8  C13 UNL     1      25.088   1.051  52.212  1.00  0.00     0.024 A 
HETATM    9  C14 UNL     1      24.899   0.192  53.278  1.00  0.00     0.010 A 
ENDROOT
BRANCH   1  10
HETATM   10  C5  UNL     1      22.424  -0.246  53.299  1.00  0.00     0.012 C 
HETATM   11  C4  UNL     1      21.675   0.775  53.690  1.00  0.00    -0.005 C 
BRANCH  11  12
HETATM   12  C3  UNL     1      20.276   1.097  53.269  1.00  0.00     0.123 C 
BRANCH  12  13
HETATM   13  C2  UNL     1      19.815  -0.145  52.547  1.00  0.00    -0.016 C 
HETATM   14  C1  UNL     1      18.687  -0.743  52.915  1.00  0.00     0.008 C 
ENDBRANCH  12  13
BRANCH  12  15
HETATM   15  S1  UNL     1      20.412   2.412  52.029  1.00  0.00     0.022 S 
HETATM   16  C15 UNL     1      20.243   1.603  50.428  1.00  0.00     0.128 C 
HETATM   17  O3  UNL     1      19.252   3.388  52.267  1.00  0.00    -0.257 OA
ENDBRANCH  12  15
ENDBRANCH  11  12
ENDBRANCH   1  10
BRANCH   7  18
HETATM   18  C12 UNL     1      26.595   2.417  50.778  1.00  0.00     0.223 C 
BRANCH  18  19
HETATM   19  O2  UNL     1      25.699   3.495  50.755  1.00  0.00    -0.308 OA
HETATM   20 BR1  UNL     1      26.188   4.638  49.400  1.00  0.00     0.099 Br
ENDBRANCH  18  19
ENDBRANCH   7  18
TORSDOF 6
ENDMDL
MODEL 7
REMARK VINA RESULT:      -6.6      3.687      5.304
REMARK  6 active torsions:
REMARK  status: ('A' for Active; 'I' for Inactive)
REMARK    1  A    between atoms: C2_2  and  C3_3 
REMARK    2  A    between atoms: C3_3  and  C4_4 
REMARK    3  A    between atoms: C3_3  and  S1_18 
REMARK    4  A    between atoms: C5_5  and  C6_6 
REMARK    5  A    between atoms: C11_12  and  C12_13 
REMARK    6  A    between atoms: C12_13  and  O2_14 
ROOT
HETATM    1  C6  UNL     1      26.919   1.720  52.398  1.00  0.00    -0.001 A 
HETATM    2  C7  UNL     1      27.993   2.009  53.198  1.00  0.00     0.154 A 
HETATM    3  O1  UNL     1      27.790   1.365  54.340  1.00  0.00    -0.321 OA
HETATM    4  C8  UNL     1      26.657   0.696  54.296  1.00  0.00     0.086 A 
HETATM    5  C9  UNL     1      26.015  -0.112  55.212  1.00  0.00     0.039 A 
HETATM    6  C10 UNL     1      24.795  -0.691  54.855  1.00  0.00     0.012 A 
HETATM    7  C11 UNL     1      24.177  -0.504  53.617  1.00  0.00    -0.033 A 
HETATM    8  C13 UNL     1      24.842   0.309  52.720  1.00  0.00     0.024 A 
HETATM    9  C14 UNL     1      26.048   0.885  53.068  1.00  0.00     0.010 A 
ENDROOT
BRANCH   1  10
HETATM   10  C5  UNL     1      26.715   2.214  51.042  1.00  0.00     0.012 C 
HETATM   11  C4  UNL     1      25.787   3.125  50.788  1.00  0.00    -0.005 C 
BRANCH  11  12
HETATM   12  C3  UNL     1      25.445   3.738  49.466  1.00  0.00     0.123 C 
BRANCH  12  13
HETATM   13  C2  UNL     1      26.320   4.965  49.393  1.00  0.00    -0.016 C 
HETATM   14  C1  UNL     1      27.424   4.947  48.656  1.00  0.00     0.008 C 
ENDBRANCH  12  13
BRANCH  12  15
HETATM   15  S1  UNL     1      23.732   4.313  49.605  1.00  0.00     0.022 S 
HETATM   16  C15 UNL     1      23.776   6.084  49.270  1.00  0.00     0.128 C 
HETATM   17  O3  UNL     1      22.914   3.581  48.534  1.00  0.00    -0.257 OA
ENDBRANCH  12  15
ENDBRANCH  11  12
ENDBRANCH   1  10
BRANCH   7  18
HETATM   18  C12 UNL     1      22.893  -1.133  53.284  1.00  0.00     0.223 C 
BRANCH  18  19
HETATM   19  O2  UNL     1      21.924  -0.204  52.878  1.00  0.00    -0.308 OA
HETATM   20 BR1  UNL     1      20.828   0.165  54.308  1.00  0.00     0.099 Br
ENDBRANCH  18  19
ENDBRANCH   7  18
TORSDOF 6
ENDMDL
MODEL 8
REMARK VINA RESULT:      -6.5      2.682      3.524
REMARK  6 active torsions:
REMARK  status: ('A' for Active; 'I' for Inactive)
REMARK    1  A    between atoms: C2_2  and  C3_3 
REMARK    2  A    between atoms: C3_3  and  C4_4 
REMARK    3  A    between atoms: C3_3  and  S1_18 
REMARK    4  A    between atoms: C5_5  and  C6_6 
REMARK    5  A    between atoms: C11_12  and  C12_13 
REMARK    6  A    between atoms: C12_13  and  O2_14 
ROOT
HETATM    1  C6  UNL     1      24.282   1.611  52.145  1.00  0.00    -0.001 A 
HETATM    2  C7  UNL     1      24.572   2.880  51.716  1.00  0.00     0.154 A 
HETATM    3  O1  UNL     1      23.422   3.542  51.707  1.00  0.00    -0.321 OA
HETATM    4  C8  UNL     1      22.439   2.761  52.104  1.00  0.00     0.086 A 
HETATM    5  C9  UNL     1      21.086   2.974  52.263  1.00  0.00     0.039 A 
HETATM    6  C10 UNL     1      20.289   1.918  52.712  1.00  0.00     0.012 A 
HETATM    7  C11 UNL     1      20.780   0.646  53.012  1.00  0.00    -0.033 A 
HETATM    8  C13 UNL     1      22.138   0.461  52.844  1.00  0.00     0.024 A 
HETATM    9  C14 UNL     1      22.930   1.502  52.400  1.00  0.00     0.010 A 
ENDROOT
BRANCH   1  10
HETATM   10  C5  UNL     1      25.247   0.530  52.309  1.00  0.00     0.012 C 
HETATM   11  C4  UNL     1      26.548   0.782  52.313  1.00  0.00    -0.005 C 
BRANCH  11  12
HETATM   12  C3  UNL     1      27.668  -0.197  52.469  1.00  0.00     0.123 C 
BRANCH  12  13
HETATM   13  C2  UNL     1      26.974  -1.508  52.745  1.00  0.00    -0.016 C 
HETATM   14  C1  UNL     1      27.664  -2.642  52.710  1.00  0.00     0.008 C 
ENDBRANCH  12  13
BRANCH  12  15
HETATM   15  S1  UNL     1      28.541   0.273  53.986  1.00  0.00     0.022 S 
HETATM   16  C15 UNL     1      28.777   2.057  53.888  1.00  0.00     0.128 C 
HETATM   17  O3  UNL     1      27.632  -0.087  55.169  1.00  0.00    -0.257 OA
ENDBRANCH  12  15
ENDBRANCH  11  12
ENDBRANCH   1  10
BRANCH   7  18
HETATM   18  C12 UNL     1      19.905  -0.436  53.481  1.00  0.00     0.223 C 
BRANCH  18  19
HETATM   19  O2  UNL     1      18.643  -0.413  52.871  1.00  0.00    -0.308 OA
HETATM   20 BR1  UNL     1      17.732  -1.938  53.346  1.00  0.00     0.099 Br
ENDBRANCH  18  19
ENDBRANCH   7  18
TORSDOF 6
ENDMDL
MODEL 9
REMARK VINA RESULT:      -6.3      3.059      4.468
REMARK  6 active torsions:
REMARK  status: ('A' for Active; 'I' for Inactive)
REMARK    1  A    between atoms: C2_2  and  C3_3 
REMARK    2  A    between atoms: C3_3  and  C4_4 
REMARK    3  A    between atoms: C3_3  and  S1_18 
REMARK    4  A    between atoms: C5_5  and  C6_6 
REMARK    5  A    between atoms: C11_12  and  C12_13 
REMARK    6  A    between atoms: C12_13  and  O2_14 
ROOT
HETATM    1  C6  UNL     1      25.821   2.381  51.275  1.00  0.00    -0.001 A 
HETATM    2  C7  UNL     1      26.389   3.236  50.367  1.00  0.00     0.154 A 
HETATM    3  O1  UNL     1      25.430   3.557  49.508  1.00  0.00    -0.321 OA
HETATM    4  C8  UNL     1      24.305   2.955  49.829  1.00  0.00     0.086 A 
HETATM    5  C9  UNL     1      23.048   2.963  49.261  1.00  0.00     0.039 A 
HETATM    6  C10 UNL     1      22.040   2.198  49.852  1.00  0.00     0.012 A 
HETATM    7  C11 UNL     1      22.225   1.416  50.994  1.00  0.00    -0.033 A 
HETATM    8  C13 UNL     1      23.492   1.426  51.541  1.00  0.00     0.024 A 
HETATM    9  C14 UNL     1      24.493   2.180  50.960  1.00  0.00     0.010 A 
ENDROOT
BRANCH   1  10
HETATM   10  C5  UNL     1      26.507   1.769  52.407  1.00  0.00     0.012 C 
HETATM   11  C4  UNL     1      26.821   0.482  52.390  1.00  0.00    -0.005 C 
BRANCH  11  12
HETATM   12  C3  UNL     1      27.520  -0.303  53.455  1.00  0.00     0.123 C 
BRANCH  12  13
HETATM   13  C2  UNL     1      26.921   0.211  54.742  1.00  0.00    -0.016 C 
HETATM   14  C1  UNL     1      25.835  -0.367  55.243  1.00  0.00     0.008 C 
ENDBRANCH  12  13
BRANCH  12  15
HETATM   15  S1  UNL     1      29.251   0.232  53.423  1.00  0.00     0.022 S 
HETATM   16  C15 UNL     1      29.373   1.586  54.607  1.00  0.00     0.128 C 
HETATM   17  O3  UNL     1      30.107  -0.959  53.874  1.00  0.00    -0.257 OA
ENDBRANCH  12  15
ENDBRANCH  11  12
ENDBRANCH   1  10
BRANCH   7  18
HETATM   18  C12 UNL     1      21.135   0.627  51.582  1.00  0.00     0.223 C 
BRANCH  18  19
HETATM   19  O2  UNL     1      21.597  -0.350  52.476  1.00  0.00    -0.308 OA
HETATM   20 BR1  UNL     1      21.044   0.096  54.172  1.00  0.00     0.099 Br
ENDBRANCH  18  19
ENDBRANCH   7  18
TORSDOF 6
ENDMDL
