MODEL 1
REMARK VINA RESULT:      -8.9      0.000      0.000
REMARK  3 active torsions:
REMARK  status: ('A' for Active; 'I' for Inactive)
REMARK    1  A    between atoms: C2_2  and  C3_3 
REMARK    2  A    between atoms: C4_4  and  C5_5 
REMARK    3  A    between atoms: N2_17  and  N3_18 
ROOT
HETATM    1  C5  UNL     1      26.196   1.556  52.358  1.00  0.00     0.022 C 
HETATM    2  C6  UNL     1      25.148   0.577  52.733  1.00  0.00     0.010 C 
HETATM    3  C7  UNL     1      23.749   1.019  52.363  1.00  0.00     0.007 C 
HETATM    4  C8  UNL     1      23.352   2.352  52.955  1.00  0.00     0.057 C 
HETATM    5  C9  UNL     1      23.417   3.440  51.941  1.00  0.00     0.020 A 
HETATM    6  C10 UNL     1      22.813   4.532  51.434  1.00  0.00    -0.001 A 
HETATM    7  C11 UNL     1      22.060   5.721  50.955  1.00  0.00     0.162 C 
HETATM    8  N1  UNL     1      21.925   5.409  49.522  1.00  0.00    -0.354 N 
HETATM    9  C12 UNL     1      23.074   4.604  49.168  1.00  0.00     0.252 C 
HETATM   10  O1  UNL     1      23.064   4.063  48.020  1.00  0.00    -0.270 OA
HETATM   11  C13 UNL     1      23.837   4.781  50.428  1.00  0.00     0.158 A 
HETATM   12  C14 UNL     1      24.672   5.987  50.427  1.00  0.00     0.154 C 
HETATM   13  N2  UNL     1      26.063   5.847  50.142  1.00  0.00    -0.248 NA
HETATM   14  C15 UNL     1      26.407   4.966  49.054  1.00  0.00     0.137 C 
HETATM   15  C16 UNL     1      26.609   3.598  49.676  1.00  0.00     0.014 C 
HETATM   16  C17 UNL     1      25.706   3.082  50.510  1.00  0.00     0.011 C 
HETATM   17  C18 UNL     1      26.305   1.772  50.857  1.00  0.00     0.066 C 
HETATM   18  N4  UNL     1      24.464   3.612  50.984  1.00  0.00    -0.330 N 
HETATM   19  H15 UNL     1      21.095   5.761  48.950  1.00  0.00     0.162 HD
ENDROOT
BRANCH   1  20
HETATM   20  C4  UNL     1      27.488   1.260  52.969  1.00  0.00    -0.044 C 
HETATM   21  C3  UNL     1      28.261   0.250  53.255  1.00  0.00     0.049 C 
HETATM   22  O2  UNL     1      29.442   0.630  53.877  1.00  0.00    -0.355 OA
HETATM   23  C20 UNL     1      29.371   1.990  54.258  1.00  0.00     0.179 C 
HETATM   24  C19 UNL     1      28.232   2.487  53.437  1.00  0.00     0.064 C 
BRANCH  21  25
HETATM   25  C2  UNL     1      28.143  -1.185  53.055  1.00  0.00     0.060 C 
HETATM   26  C1  UNL     1      29.478  -1.878  53.379  1.00  0.00     0.012 C 
ENDBRANCH  21  25
ENDBRANCH   1  20
BRANCH  13  27
HETATM   27  N3  UNL     1      26.533   7.128  49.758  1.00  0.00    -0.268 NA
HETATM   28  H18 UNL     1      27.076   7.522  50.572  1.00  0.00     0.137 HD
HETATM   29  H19 UNL     1      27.268   6.921  49.019  1.00  0.00     0.137 HD
ENDBRANCH  13  27
TORSDOF 3
ENDMDL
MODEL 2
REMARK VINA RESULT:      -8.5      2.564      4.856
REMARK  3 active torsions:
REMARK  status: ('A' for Active; 'I' for Inactive)
REMARK    1  A    between atoms: C2_2  and  C3_3 
REMARK    2  A    between atoms: C4_4  and  C5_5 
REMARK    3  A    between atoms: N2_17  and  N3_18 
ROOT
HETATM    1  C5  UNL     1      23.980   1.561  52.646  1.00  0.00     0.022 C 
HETATM    2  C6  UNL     1      25.202   1.359  53.459  1.00  0.00     0.010 C 
HETATM    3  C7  UNL     1      26.361   2.235  53.036  1.00  0.00     0.007 C 
HETATM    4  C8  UNL     1      26.754   2.070  51.586  1.00  0.00     0.057 C 
HETATM    5  C9  UNL     1      26.256   3.199  50.753  1.00  0.00     0.020 A 
HETATM    6  C10 UNL     1      26.543   4.073  49.770  1.00  0.00    -0.001 A 
HETATM    7  C11 UNL     1      26.969   4.987  48.676  1.00  0.00     0.162 C 
HETATM    8  N1  UNL     1      26.702   6.299  49.290  1.00  0.00    -0.354 N 
HETATM    9  C12 UNL     1      25.606   6.105  50.213  1.00  0.00     0.252 C 
HETATM   10  O1  UNL     1      25.334   7.069  50.992  1.00  0.00    -0.270 OA
HETATM   11  C13 UNL     1      25.242   4.726  49.804  1.00  0.00     0.158 A 
HETATM   12  C14 UNL     1      24.307   4.692  48.674  1.00  0.00     0.154 C 
HETATM   13  N2  UNL     1      22.922   4.485  48.948  1.00  0.00    -0.248 NA
HETATM   14  C15 UNL     1      22.375   5.214  50.065  1.00  0.00     0.137 C 
HETATM   15  C16 UNL     1      22.535   4.310  51.270  1.00  0.00     0.014 C 
HETATM   16  C17 UNL     1      23.703   3.725  51.541  1.00  0.00     0.011 C 
HETATM   17  C18 UNL     1      23.398   2.959  52.772  1.00  0.00     0.066 C 
HETATM   18  N4  UNL     1      24.957   3.785  50.853  1.00  0.00    -0.330 N 
HETATM   19  H15 UNL     1      27.273   7.163  49.028  1.00  0.00     0.162 HD
ENDROOT
BRANCH   1  20
HETATM   20  C4  UNL     1      22.977   0.523  52.868  1.00  0.00    -0.044 C 
HETATM   21  C3  UNL     1      21.792   0.162  52.460  1.00  0.00     0.049 C 
HETATM   22  O2  UNL     1      21.331  -0.987  53.085  1.00  0.00    -0.355 OA
HETATM   23  C20 UNL     1      22.169  -1.313  54.177  1.00  0.00     0.179 C 
HETATM   24  C19 UNL     1      23.390  -0.511  53.885  1.00  0.00     0.064 C 
BRANCH  21  25
HETATM   25  C2  UNL     1      20.859   0.713  51.490  1.00  0.00     0.060 C 
HETATM   26  C1  UNL     1      21.521   0.792  50.103  1.00  0.00     0.012 C 
ENDBRANCH  21  25
ENDBRANCH   1  20
BRANCH  13  27
HETATM   27  N3  UNL     1      22.208   4.937  47.810  1.00  0.00    -0.268 NA
HETATM   28  H18 UNL     1      21.531   4.176  47.538  1.00  0.00     0.137 HD
HETATM   29  H19 UNL     1      21.595   5.720  48.187  1.00  0.00     0.137 HD
ENDBRANCH  13  27
TORSDOF 3
ENDMDL
MODEL 3
REMARK VINA RESULT:      -8.4      1.718      2.561
REMARK  3 active torsions:
REMARK  status: ('A' for Active; 'I' for Inactive)
REMARK    1  A    between atoms: C2_2  and  C3_3 
REMARK    2  A    between atoms: C4_4  and  C5_5 
REMARK    3  A    between atoms: N2_17  and  N3_18 
ROOT
HETATM    1  C5  UNL     1      23.864   2.087  51.863  1.00  0.00     0.022 C 
HETATM    2  C6  UNL     1      22.536   1.429  51.846  1.00  0.00     0.010 C 
HETATM    3  C7  UNL     1      21.421   2.333  51.368  1.00  0.00     0.007 C 
HETATM    4  C8  UNL     1      21.281   3.607  52.168  1.00  0.00     0.057 C 
HETATM    5  C9  UNL     1      21.853   4.774  51.440  1.00  0.00     0.020 A 
HETATM    6  C10 UNL     1      21.688   6.066  51.097  1.00  0.00    -0.001 A 
HETATM    7  C11 UNL     1      21.403   7.490  50.779  1.00  0.00     0.162 C 
HETATM    8  N1  UNL     1      21.499   7.473  49.310  1.00  0.00    -0.354 N 
HETATM    9  C12 UNL     1      22.437   6.424  48.971  1.00  0.00     0.252 C 
HETATM   10  O1  UNL     1      22.527   6.108  47.745  1.00  0.00    -0.270 OA
HETATM   11  C13 UNL     1      22.932   6.150  50.343  1.00  0.00     0.158 A 
HETATM   12  C14 UNL     1      24.040   7.025  50.737  1.00  0.00     0.154 C 
HETATM   13  N2  UNL     1      25.370   6.514  50.649  1.00  0.00    -0.248 NA
HETATM   14  C15 UNL     1      25.688   5.760  49.462  1.00  0.00     0.137 C 
HETATM   15  C16 UNL     1      25.376   4.314  49.792  1.00  0.00     0.014 C 
HETATM   16  C17 UNL     1      24.210   3.970  50.341  1.00  0.00     0.011 C 
HETATM   17  C18 UNL     1      24.346   2.502  50.482  1.00  0.00     0.066 C 
HETATM   18  N4  UNL     1      23.086   4.771  50.720  1.00  0.00    -0.330 N 
HETATM   19  H15 UNL     1      20.937   8.151  48.706  1.00  0.00     0.162 HD
ENDROOT
BRANCH   1  20
HETATM   20  C4  UNL     1      24.868   1.314  52.589  1.00  0.00    -0.044 C 
HETATM   21  C3  UNL     1      26.152   1.285  52.811  1.00  0.00     0.049 C 
HETATM   22  O2  UNL     1      26.535   0.240  53.639  1.00  0.00    -0.355 OA
HETATM   23  C20 UNL     1      25.457  -0.659  53.814  1.00  0.00     0.179 C 
HETATM   24  C19 UNL     1      24.293   0.159  53.371  1.00  0.00     0.064 C 
BRANCH  21  25
HETATM   25  C2  UNL     1      27.260   2.118  52.372  1.00  0.00     0.060 C 
HETATM   26  C1  UNL     1      28.260   2.321  53.524  1.00  0.00     0.012 C 
ENDBRANCH  21  25
ENDBRANCH   1  20
BRANCH  13  27
HETATM   27  N3  UNL     1      26.239   7.634  50.633  1.00  0.00    -0.268 NA
HETATM   28  H18 UNL     1      27.098   7.376  51.188  1.00  0.00     0.137 HD
HETATM   29  H19 UNL     1      26.574   7.685  49.626  1.00  0.00     0.137 HD
ENDBRANCH  13  27
TORSDOF 3
ENDMDL
MODEL 4
REMARK VINA RESULT:      -8.4      3.112      7.214
REMARK  3 active torsions:
REMARK  status: ('A' for Active; 'I' for Inactive)
REMARK    1  A    between atoms: C2_2  and  C3_3 
REMARK    2  A    between atoms: C4_4  and  C5_5 
REMARK    3  A    between atoms: N2_17  and  N3_18 
ROOT
HETATM    1  C5  UNL     1      24.157   2.430  51.755  1.00  0.00     0.022 C 
HETATM    2  C6  UNL     1      24.912   2.898  50.569  1.00  0.00     0.010 C 
HETATM    3  C7  UNL     1      26.321   2.351  50.496  1.00  0.00     0.007 C 
HETATM    4  C8  UNL     1      27.160   2.660  51.715  1.00  0.00     0.057 C 
HETATM    5  C9  UNL     1      27.288   1.473  52.605  1.00  0.00     0.020 A 
HETATM    6  C10 UNL     1      28.115   0.732  53.367  1.00  0.00    -0.001 A 
HETATM    7  C11 UNL     1      29.117  -0.009  54.180  1.00  0.00     0.162 C 
HETATM    8  N1  UNL     1      28.973  -1.367  53.628  1.00  0.00    -0.354 N 
HETATM    9  C12 UNL     1      27.605  -1.483  53.174  1.00  0.00     0.252 C 
HETATM   10  O1  UNL     1      27.312  -2.511  52.490  1.00  0.00    -0.270 OA
HETATM   11  C13 UNL     1      27.091  -0.223  53.765  1.00  0.00     0.158 A 
HETATM   12  C14 UNL     1      26.651  -0.381  55.155  1.00  0.00     0.154 C 
HETATM   13  N2  UNL     1      25.254  -0.533  55.410  1.00  0.00    -0.248 NA
HETATM   14  C15 UNL     1      24.535  -1.414  54.525  1.00  0.00     0.137 C 
HETATM   15  C16 UNL     1      24.023  -0.541  53.396  1.00  0.00     0.014 C 
HETATM   16  C17 UNL     1      24.834   0.305  52.758  1.00  0.00     0.011 C 
HETATM   17  C18 UNL     1      23.927   0.927  51.766  1.00  0.00     0.066 C 
HETATM   18  N4  UNL     1      26.225   0.581  52.945  1.00  0.00    -0.330 N 
HETATM   19  H15 UNL     1      29.791  -2.053  53.617  1.00  0.00     0.162 HD
ENDROOT
BRANCH   1  20
HETATM   20  C4  UNL     1      22.921   3.179  51.968  1.00  0.00    -0.044 C 
HETATM   21  C3  UNL     1      21.678   2.995  52.315  1.00  0.00     0.049 C 
HETATM   22  O2  UNL     1      20.943   4.171  52.339  1.00  0.00    -0.355 OA
HETATM   23  C20 UNL     1      21.683   5.215  51.736  1.00  0.00     0.179 C 
HETATM   24  C19 UNL     1      23.066   4.663  51.740  1.00  0.00     0.064 C 
BRANCH  21  25
HETATM   25  C2  UNL     1      20.907   1.818  52.681  1.00  0.00     0.060 C 
HETATM   26  C1  UNL     1      20.259   1.198  51.431  1.00  0.00     0.012 C 
ENDBRANCH  21  25
ENDBRANCH   1  20
BRANCH  13  27
HETATM   27  N3  UNL     1      25.134  -1.107  56.701  1.00  0.00    -0.268 NA
HETATM   28  H18 UNL     1      25.277  -0.336  57.404  1.00  0.00     0.137 HD
HETATM   29  H19 UNL     1      24.102  -1.353  56.776  1.00  0.00     0.137 HD
ENDBRANCH  13  27
TORSDOF 3
ENDMDL
MODEL 5
REMARK VINA RESULT:      -8.3      4.135      7.282
REMARK  3 active torsions:
REMARK  status: ('A' for Active; 'I' for Inactive)
REMARK    1  A    between atoms: C2_2  and  C3_3 
REMARK    2  A    between atoms: C4_4  and  C5_5 
REMARK    3  A    between atoms: N2_17  and  N3_18 
ROOT
HETATM    1  C5  UNL     1      19.996   0.037  52.880  1.00  0.00     0.022 C 
HETATM    2  C6  UNL     1      20.349  -0.718  54.105  1.00  0.00     0.010 C 
HETATM    3  C7  UNL     1      21.787  -0.530  54.536  1.00  0.00     0.007 C 
HETATM    4  C8  UNL     1      22.797  -0.898  53.474  1.00  0.00     0.057 C 
HETATM    5  C9  UNL     1      23.367   0.312  52.819  1.00  0.00     0.020 A 
HETATM    6  C10 UNL     1      24.480   0.911  52.357  1.00  0.00    -0.001 A 
HETATM    7  C11 UNL     1      25.771   1.476  51.880  1.00  0.00     0.162 C 
HETATM    8  N1  UNL     1      25.792   2.764  52.593  1.00  0.00    -0.354 N 
HETATM    9  C12 UNL     1      24.412   3.152  52.782  1.00  0.00     0.252 C 
HETATM   10  O1  UNL     1      24.193   4.143  53.545  1.00  0.00    -0.270 OA
HETATM   11  C13 UNL     1      23.794   2.118  51.916  1.00  0.00     0.158 A 
HETATM   12  C14 UNL     1      23.723   2.520  50.507  1.00  0.00     0.154 C 
HETATM   13  N2  UNL     1      22.483   3.023  50.009  1.00  0.00    -0.248 NA
HETATM   14  C15 UNL     1      21.781   3.951  50.860  1.00  0.00     0.137 C 
HETATM   15  C16 UNL     1      20.857   3.110  51.719  1.00  0.00     0.014 C 
HETATM   16  C17 UNL     1      21.309   2.036  52.367  1.00  0.00     0.011 C 
HETATM   17  C18 UNL     1      20.092   1.544  53.054  1.00  0.00     0.066 C 
HETATM   18  N4  UNL     1      22.618   1.460  52.417  1.00  0.00    -0.330 N 
HETATM   19  H15 UNL     1      26.711   3.233  52.870  1.00  0.00     0.162 HD
ENDROOT
BRANCH   1  20
HETATM   20  C4  UNL     1      18.713  -0.372  52.316  1.00  0.00    -0.044 C 
HETATM   21  C3  UNL     1      17.961  -0.171  51.270  1.00  0.00     0.049 C 
HETATM   22  O2  UNL     1      16.776  -0.892  51.307  1.00  0.00    -0.355 OA
HETATM   23  C20 UNL     1      16.595  -1.458  52.590  1.00  0.00     0.179 C 
HETATM   24  C19 UNL     1      17.964  -1.365  53.170  1.00  0.00     0.064 C 
BRANCH  21  25
HETATM   25  C2  UNL     1      18.107   0.650  50.079  1.00  0.00     0.060 C 
HETATM   26  C1  UNL     1      17.513   2.049  50.321  1.00  0.00     0.012 C 
ENDBRANCH  21  25
ENDBRANCH   1  20
BRANCH  13  27
HETATM   27  N3  UNL     1      22.780   3.741  48.824  1.00  0.00    -0.268 NA
HETATM   28  H18 UNL     1      23.763   3.489  48.539  1.00  0.00     0.137 HD
HETATM   29  H19 UNL     1      22.161   3.287  48.087  1.00  0.00     0.137 HD
ENDBRANCH  13  27
TORSDOF 3
ENDMDL
MODEL 6
REMARK VINA RESULT:      -8.3      2.643      3.864
REMARK  3 active torsions:
REMARK  status: ('A' for Active; 'I' for Inactive)
REMARK    1  A    between atoms: C2_2  and  C3_3 
REMARK    2  A    between atoms: C4_4  and  C5_5 
REMARK    3  A    between atoms: N2_17  and  N3_18 
ROOT
HETATM    1  C5  UNL     1      22.584   1.110  51.693  1.00  0.00     0.022 C 
HETATM    2  C6  UNL     1      21.528   0.309  51.030  1.00  0.00     0.010 C 
HETATM    3  C7  UNL     1      20.626   1.126  50.130  1.00  0.00     0.007 C 
HETATM    4  C8  UNL     1      19.944   2.278  50.831  1.00  0.00     0.057 C 
HETATM    5  C9  UNL     1      20.596   3.577  50.507  1.00  0.00     0.020 A 
HETATM    6  C10 UNL     1      20.408   4.871  50.187  1.00  0.00    -0.001 A 
HETATM    7  C11 UNL     1      20.082   6.280  49.839  1.00  0.00     0.162 C 
HETATM    8  N1  UNL     1      20.836   6.439  48.584  1.00  0.00    -0.354 N 
HETATM    9  C12 UNL     1      21.974   5.551  48.673  1.00  0.00     0.252 C 
HETATM   10  O1  UNL     1      22.659   5.387  47.616  1.00  0.00    -0.270 OA
HETATM   11  C13 UNL     1      21.828   5.183  50.103  1.00  0.00     0.158 A 
HETATM   12  C14 UNL     1      22.487   6.131  51.007  1.00  0.00     0.154 C 
HETATM   13  N2  UNL     1      23.773   5.790  51.524  1.00  0.00    -0.248 NA
HETATM   14  C15 UNL     1      24.707   5.216  50.589  1.00  0.00     0.137 C 
HETATM   15  C16 UNL     1      24.507   3.716  50.669  1.00  0.00     0.014 C 
HETATM   16  C17 UNL     1      23.287   3.180  50.596  1.00  0.00     0.011 C 
HETATM   17  C18 UNL     1      23.570   1.730  50.716  1.00  0.00     0.066 C 
HETATM   18  N4  UNL     1      22.006   3.797  50.444  1.00  0.00    -0.330 N 
HETATM   19  H15 UNL     1      20.512   7.111  47.820  1.00  0.00     0.162 HD
ENDROOT
BRANCH   1  20
HETATM   20  C4  UNL     1      23.254   0.381  52.766  1.00  0.00    -0.044 C 
HETATM   21  C3  UNL     1      22.984  -0.374  53.794  1.00  0.00     0.049 C 
HETATM   22  O2  UNL     1      24.119  -0.790  54.474  1.00  0.00    -0.355 OA
HETATM   23  C20 UNL     1      25.248  -0.074  54.013  1.00  0.00     0.179 C 
HETATM   24  C19 UNL     1      24.758   0.487  52.722  1.00  0.00     0.064 C 
BRANCH  21  25
HETATM   25  C2  UNL     1      21.744  -0.869  54.370  1.00  0.00     0.060 C 
HETATM   26  C1  UNL     1      20.792   0.303  54.667  1.00  0.00     0.012 C 
ENDBRANCH  21  25
ENDBRANCH   1  20
BRANCH  13  27
HETATM   27  N3  UNL     1      24.370   6.998  51.967  1.00  0.00    -0.268 NA
HETATM   28  H18 UNL     1      25.211   7.176  51.357  1.00  0.00     0.137 HD
HETATM   29  H19 UNL     1      23.670   7.747  51.686  1.00  0.00     0.137 HD
ENDBRANCH  13  27
TORSDOF 3
ENDMDL
MODEL 7
REMARK VINA RESULT:      -8.3      2.215      4.063
REMARK  3 active torsions:
REMARK  status: ('A' for Active; 'I' for Inactive)
REMARK    1  A    between atoms: C2_2  and  C3_3 
REMARK    2  A    between atoms: C4_4  and  C5_5 
REMARK    3  A    between atoms: N2_17  and  N3_18 
ROOT
HETATM    1  C5  UNL     1      26.142   1.223  52.025  1.00  0.00     0.022 C 
HETATM    2  C6  UNL     1      27.124   2.251  51.605  1.00  0.00     0.010 C 
HETATM    3  C7  UNL     1      26.511   3.383  50.811  1.00  0.00     0.007 C 
HETATM    4  C8  UNL     1      25.776   2.931  49.570  1.00  0.00     0.057 C 
HETATM    5  C9  UNL     1      24.300   2.950  49.772  1.00  0.00     0.020 A 
HETATM    6  C10 UNL     1      23.105   3.267  49.241  1.00  0.00    -0.001 A 
HETATM    7  C11 UNL     1      21.842   3.655  48.557  1.00  0.00     0.162 C 
HETATM    8  N1  UNL     1      21.243   4.549  49.563  1.00  0.00    -0.354 N 
HETATM    9  C12 UNL     1      21.714   4.091  50.852  1.00  0.00     0.252 C 
HETATM   10  O1  UNL     1      21.470   4.836  51.850  1.00  0.00    -0.270 OA
HETATM   11  C13 UNL     1      22.337   2.823  50.397  1.00  0.00     0.158 A 
HETATM   12  C14 UNL     1      21.388   1.707  50.338  1.00  0.00     0.154 C 
HETATM   13  N2  UNL     1      21.370   0.776  51.420  1.00  0.00    -0.248 NA
HETATM   14  C15 UNL     1      21.446   1.335  52.746  1.00  0.00     0.137 C 
HETATM   15  C16 UNL     1      22.922   1.389  53.090  1.00  0.00     0.014 C 
HETATM   16  C17 UNL     1      23.806   1.915  52.242  1.00  0.00     0.011 C 
HETATM   17  C18 UNL     1      25.083   1.757  52.976  1.00  0.00     0.066 C 
HETATM   18  N4  UNL     1      23.625   2.493  50.946  1.00  0.00    -0.330 N 
HETATM   19  H15 UNL     1      20.598   5.352  49.281  1.00  0.00     0.162 HD
ENDROOT
BRANCH   1  20
HETATM   20  C4  UNL     1      26.777   0.009  52.530  1.00  0.00    -0.044 C 
HETATM   21  C3  UNL     1      27.789  -0.371  53.259  1.00  0.00     0.049 C 
HETATM   22  O2  UNL     1      27.877  -1.749  53.387  1.00  0.00    -0.355 OA
HETATM   23  C20 UNL     1      26.989  -2.376  52.482  1.00  0.00     0.179 C 
HETATM   24  C19 UNL     1      26.073  -1.259  52.117  1.00  0.00     0.064 C 
BRANCH  21  25
HETATM   25  C2  UNL     1      28.838   0.349  53.964  1.00  0.00     0.060 C 
HETATM   26  C1  UNL     1      30.216  -0.228  53.597  1.00  0.00     0.012 C 
ENDBRANCH  21  25
ENDBRANCH   1  20
BRANCH  13  27
HETATM   27  N3  UNL     1      20.123   0.104  51.361  1.00  0.00    -0.268 NA
HETATM   28  H18 UNL     1      19.886  -0.033  50.342  1.00  0.00     0.137 HD
HETATM   29  H19 UNL     1      20.341  -0.873  51.720  1.00  0.00     0.137 HD
ENDBRANCH  13  27
TORSDOF 3
ENDMDL
MODEL 8
REMARK VINA RESULT:      -8.0      3.174      6.777
REMARK  3 active torsions:
REMARK  status: ('A' for Active; 'I' for Inactive)
REMARK    1  A    between atoms: C2_2  and  C3_3 
REMARK    2  A    between atoms: C4_4  and  C5_5 
REMARK    3  A    between atoms: N2_17  and  N3_18 
ROOT
HETATM    1  C5  UNL     1      21.133   0.712  52.144  1.00  0.00     0.022 C 
HETATM    2  C6  UNL     1      20.773  -0.141  53.301  1.00  0.00     0.010 C 
HETATM    3  C7  UNL     1      21.962  -0.558  54.138  1.00  0.00     0.007 C 
HETATM    4  C8  UNL     1      23.033  -1.287  53.358  1.00  0.00     0.057 C 
HETATM    5  C9  UNL     1      24.193  -0.401  53.063  1.00  0.00     0.020 A 
HETATM    6  C10 UNL     1      25.534  -0.296  53.018  1.00  0.00    -0.001 A 
HETATM    7  C11 UNL     1      27.021  -0.294  53.003  1.00  0.00     0.162 C 
HETATM    8  N1  UNL     1      27.308   0.864  53.867  1.00  0.00    -0.354 N 
HETATM    9  C12 UNL     1      26.194   1.774  53.716  1.00  0.00     0.252 C 
HETATM   10  O1  UNL     1      26.142   2.757  54.518  1.00  0.00    -0.270 OA
HETATM   11  C13 UNL     1      25.532   1.092  52.576  1.00  0.00     0.158 A 
HETATM   12  C14 UNL     1      26.061   1.511  51.274  1.00  0.00     0.154 C 
HETATM   13  N2  UNL     1      25.327   2.480  50.526  1.00  0.00    -0.248 NA
HETATM   14  C15 UNL     1      24.804   3.599  51.268  1.00  0.00     0.137 C 
HETATM   15  C16 UNL     1      23.413   3.191  51.709  1.00  0.00     0.014 C 
HETATM   16  C17 UNL     1      23.196   2.015  52.301  1.00  0.00     0.011 C 
HETATM   17  C18 UNL     1      21.735   2.048  52.547  1.00  0.00     0.066 C 
HETATM   18  N4  UNL     1      24.101   0.959  52.633  1.00  0.00    -0.330 N 
HETATM   19  H15 UNL     1      28.200   0.917  54.451  1.00  0.00     0.162 HD
ENDROOT
BRANCH   1  20
HETATM   20  C4  UNL     1      20.035   0.865  51.193  1.00  0.00    -0.044 C 
HETATM   21  C3  UNL     1      19.766   1.421  50.045  1.00  0.00     0.049 C 
HETATM   22  O2  UNL     1      18.461   1.200  49.629  1.00  0.00    -0.355 OA
HETATM   23  C20 UNL     1      17.705   0.642  50.686  1.00  0.00     0.179 C 
HETATM   24  C19 UNL     1      18.768   0.162  51.613  1.00  0.00     0.064 C 
BRANCH  21  25
HETATM   25  C2  UNL     1      20.548   2.220  49.116  1.00  0.00     0.060 C 
HETATM   26  C1  UNL     1      21.725   1.395  48.566  1.00  0.00     0.012 C 
ENDBRANCH  21  25
ENDBRANCH   1  20
BRANCH  13  27
HETATM   27  N3  UNL     1      26.228   3.036  49.582  1.00  0.00    -0.268 NA
HETATM   28  H18 UNL     1      25.653   3.550  48.862  1.00  0.00     0.137 HD
HETATM   29  H19 UNL     1      26.727   3.802  50.124  1.00  0.00     0.137 HD
ENDBRANCH  13  27
TORSDOF 3
ENDMDL
MODEL 9
REMARK VINA RESULT:      -8.0      2.233      4.140
REMARK  3 active torsions:
REMARK  status: ('A' for Active; 'I' for Inactive)
REMARK    1  A    between atoms: C2_2  and  C3_3 
REMARK    2  A    between atoms: C4_4  and  C5_5 
REMARK    3  A    between atoms: N2_17  and  N3_18 
ROOT
HETATM    1  C5  UNL     1      25.434   1.707  51.925  1.00  0.00     0.022 C 
HETATM    2  C6  UNL     1      26.650   2.437  51.496  1.00  0.00     0.010 C 
HETATM    3  C7  UNL     1      26.361   3.607  50.582  1.00  0.00     0.007 C 
HETATM    4  C8  UNL     1      25.597   3.233  49.332  1.00  0.00     0.057 C 
HETATM    5  C9  UNL     1      24.161   3.612  49.436  1.00  0.00     0.020 A 
HETATM    6  C10 UNL     1      23.101   4.151  48.806  1.00  0.00    -0.001 A 
HETATM    7  C11 UNL     1      21.999   4.762  48.014  1.00  0.00     0.162 C 
HETATM    8  N1  UNL     1      21.584   5.854  48.909  1.00  0.00    -0.354 N 
HETATM    9  C12 UNL     1      21.872   5.413  50.256  1.00  0.00     0.252 C 
HETATM   10  O1  UNL     1      21.766   6.279  51.179  1.00  0.00    -0.270 OA
HETATM   11  C13 UNL     1      22.197   4.001  49.938  1.00  0.00     0.158 A 
HETATM   12  C14 UNL     1      21.014   3.136  49.900  1.00  0.00     0.154 C 
HETATM   13  N2  UNL     1      20.725   2.332  51.043  1.00  0.00    -0.248 NA
HETATM   14  C15 UNL     1      20.871   2.971  52.327  1.00  0.00     0.137 C 
HETATM   15  C16 UNL     1      22.299   2.710  52.762  1.00  0.00     0.014 C 
HETATM   16  C17 UNL     1      23.322   2.940  51.937  1.00  0.00     0.011 C 
HETATM   17  C18 UNL     1      24.489   2.553  52.763  1.00  0.00     0.066 C 
HETATM   18  N4  UNL     1      23.343   3.429  50.593  1.00  0.00    -0.330 N 
HETATM   19  H15 UNL     1      21.162   6.758  48.528  1.00  0.00     0.162 HD
ENDROOT
BRANCH   1  20
HETATM   20  C4  UNL     1      25.739   0.427  52.559  1.00  0.00    -0.044 C 
HETATM   21  C3  UNL     1      25.213  -0.446  53.372  1.00  0.00     0.049 C 
HETATM   22  O2  UNL     1      26.044  -1.531  53.613  1.00  0.00    -0.355 OA
HETATM   23  C20 UNL     1      27.338  -1.270  53.107  1.00  0.00     0.179 C 
HETATM   24  C19 UNL     1      27.089  -0.130  52.181  1.00  0.00     0.064 C 
BRANCH  21  25
HETATM   25  C2  UNL     1      23.941  -0.517  54.073  1.00  0.00     0.060 C 
HETATM   26  C1  UNL     1      22.815  -0.893  53.094  1.00  0.00     0.012 C 
ENDBRANCH  21  25
ENDBRANCH   1  20
BRANCH  13  27
HETATM   27  N3  UNL     1      19.358   1.966  50.952  1.00  0.00    -0.268 NA
HETATM   28  H18 UNL     1      18.883   2.673  50.332  1.00  0.00     0.137 HD
HETATM   29  H19 UNL     1      19.371   1.071  50.379  1.00  0.00     0.137 HD
ENDBRANCH  13  27
TORSDOF 3
ENDMDL
