MODEL 1
REMARK VINA RESULT:      -7.7      0.000      0.000
REMARK  10 active torsions:
REMARK  status: ('A' for Active; 'I' for Inactive)
REMARK    1  A    between atoms: N1_1  and  C1_2 
REMARK    2  A    between atoms: C1_2  and  N2_8 
REMARK    3  A    between atoms: C2_3  and  C3_4 
REMARK    4  A    between atoms: C3_4  and  C4_5 
REMARK    5  A    between atoms: N2_8  and  C6_9 
REMARK    6  A    between atoms: N2_8  and  C13_18 
REMARK    7  A    between atoms: C6_9  and  C7_10 
REMARK    8  A    between atoms: C10_13  and  O2_14 
REMARK    9  A    between atoms: C13_18  and  N3_20 
REMARK   10  A    between atoms: N3_20  and  C14_21 
ROOT
HETATM    1  N2  UNL     1      23.931   3.130  51.558  1.00  0.00    -0.306 N 
ENDROOT
BRANCH   1   2
HETATM    2  C1  UNL     1      23.476   4.400  51.997  1.00  0.00     0.099 C 
HETATM    3  C2  UNL     1      22.653   5.055  51.159  1.00  0.00     0.028 C 
BRANCH   2   4
HETATM    4  N1  UNL     1      23.768   5.095  53.220  1.00  0.00    -0.386 N 
HETATM    5  H1  UNL     1      24.194   4.515  53.954  1.00  0.00     0.157 HD
HETATM    6  H2  UNL     1      23.733   6.015  53.731  1.00  0.00     0.157 HD
ENDBRANCH   2   4
BRANCH   3   7
HETATM    7  C3  UNL     1      21.917   6.336  51.098  1.00  0.00     0.098 C 
BRANCH   7   8
HETATM    8  C4  UNL     1      22.749   7.456  50.576  1.00  0.00     0.078 A 
HETATM    9  C5  UNL     1      23.964   8.069  50.603  1.00  0.00     0.175 A 
HETATM   10  O1  UNL     1      22.989   8.598  49.790  1.00  0.00    -0.322 OA
ENDBRANCH   7   8
ENDBRANCH   3   7
ENDBRANCH   1   2
BRANCH   1  11
HETATM   11  C6  UNL     1      23.085   2.070  51.079  1.00  0.00     0.173 C 
BRANCH  11  12
HETATM   12  C7  UNL     1      22.534   1.215  52.175  1.00  0.00    -0.018 A 
HETATM   13  C8  UNL     1      23.335   0.176  52.650  1.00  0.00     0.013 A 
HETATM   14  C9  UNL     1      22.968  -0.696  53.648  1.00  0.00     0.037 A 
HETATM   15  C10 UNL     1      21.711  -0.539  54.231  1.00  0.00     0.067 A 
HETATM   16  C11 UNL     1      20.886   0.487  53.785  1.00  0.00     0.060 A 
HETATM   17  C12 UNL     1      21.293   1.350  52.770  1.00  0.00     0.044 A 
HETATM   18 CL1  UNL     1      20.282   2.655  52.177  1.00  0.00    -0.084 Cl
BRANCH  15  19
HETATM   19  O2  UNL     1      21.271  -1.382  55.246  1.00  0.00    -0.361 OA
HETATM   20  H11 UNL     1      21.419  -1.051  56.212  1.00  0.00     0.217 HD
ENDBRANCH  15  19
ENDBRANCH  11  12
ENDBRANCH   1  11
BRANCH   1  21
HETATM   21  C13 UNL     1      25.348   2.965  51.629  1.00  0.00     0.180 C 
HETATM   22  S1  UNL     1      26.386   3.178  50.379  1.00  0.00    -0.040 SA
BRANCH  21  23
HETATM   23  N3  UNL     1      26.125   2.602  52.783  1.00  0.00    -0.333 N 
HETATM   24  H13 UNL     1      26.176   3.072  53.710  1.00  0.00     0.168 HD
BRANCH  23  25
HETATM   25  C14 UNL     1      27.050   1.526  53.018  1.00  0.00     0.034 A 
HETATM   26  C15 UNL     1      28.255   1.968  53.571  1.00  0.00     0.029 A 
HETATM   27  C16 UNL     1      29.194   1.007  53.812  1.00  0.00     0.002 A 
HETATM   28  C17 UNL     1      28.991  -0.316  53.536  1.00  0.00     0.000 A 
HETATM   29  C18 UNL     1      27.784  -0.748  52.984  1.00  0.00     0.002 A 
HETATM   30  C19 UNL     1      26.815   0.196  52.728  1.00  0.00     0.029 A 
ENDBRANCH  23  25
ENDBRANCH  21  23
ENDBRANCH   1  21
TORSDOF 10
ENDMDL
MODEL 2
REMARK VINA RESULT:      -7.7      2.804      5.261
REMARK  10 active torsions:
REMARK  status: ('A' for Active; 'I' for Inactive)
REMARK    1  A    between atoms: N1_1  and  C1_2 
REMARK    2  A    between atoms: C1_2  and  N2_8 
REMARK    3  A    between atoms: C2_3  and  C3_4 
REMARK    4  A    between atoms: C3_4  and  C4_5 
REMARK    5  A    between atoms: N2_8  and  C6_9 
REMARK    6  A    between atoms: N2_8  and  C13_18 
REMARK    7  A    between atoms: C6_9  and  C7_10 
REMARK    8  A    between atoms: C10_13  and  O2_14 
REMARK    9  A    between atoms: C13_18  and  N3_20 
REMARK   10  A    between atoms: N3_20  and  C14_21 
ROOT
HETATM    1  N2  UNL     1      23.790   2.797  51.193  1.00  0.00    -0.306 N 
ENDROOT
BRANCH   1   2
HETATM    2  C1  UNL     1      24.828   2.603  52.141  1.00  0.00     0.099 C 
HETATM    3  C2  UNL     1      25.866   1.848  51.736  1.00  0.00     0.028 C 
BRANCH   2   4
HETATM    4  N1  UNL     1      24.933   3.100  53.484  1.00  0.00    -0.386 N 
HETATM    5  H1  UNL     1      25.443   2.486  54.132  1.00  0.00     0.157 HD
HETATM    6  H2  UNL     1      24.696   3.884  54.146  1.00  0.00     0.157 HD
ENDBRANCH   2   4
BRANCH   3   7
HETATM    7  C3  UNL     1      27.148   1.343  52.270  1.00  0.00     0.098 C 
BRANCH   7   8
HETATM    8  C4  UNL     1      27.049  -0.051  52.787  1.00  0.00     0.078 A 
HETATM    9  C5  UNL     1      26.514  -1.288  52.604  1.00  0.00     0.175 A 
HETATM   10  O1  UNL     1      27.338  -1.093  53.688  1.00  0.00    -0.322 OA
ENDBRANCH   7   8
ENDBRANCH   3   7
ENDBRANCH   1   2
BRANCH   1  11
HETATM   11  C6  UNL     1      22.837   1.796  50.797  1.00  0.00     0.173 C 
BRANCH  11  12
HETATM   12  C7  UNL     1      22.291   1.013  51.949  1.00  0.00    -0.018 A 
HETATM   13  C8  UNL     1      22.896  -0.209  52.245  1.00  0.00     0.013 A 
HETATM   14  C9  UNL     1      22.508  -1.042  53.268  1.00  0.00     0.037 A 
HETATM   15  C10 UNL     1      21.437  -0.647  54.068  1.00  0.00     0.067 A 
HETATM   16  C11 UNL     1      20.810   0.565  53.803  1.00  0.00     0.060 A 
HETATM   17  C12 UNL     1      21.232   1.382  52.757  1.00  0.00     0.044 A 
HETATM   18 CL1  UNL     1      20.468   2.917  52.388  1.00  0.00    -0.084 Cl
BRANCH  15  19
HETATM   19  O2  UNL     1      20.987  -1.437  55.121  1.00  0.00    -0.361 OA
HETATM   20  H11 UNL     1      21.681  -2.071  55.546  1.00  0.00     0.217 HD
ENDBRANCH  15  19
ENDBRANCH  11  12
ENDBRANCH   1  11
BRANCH   1  21
HETATM   21  C13 UNL     1      23.756   4.110  50.631  1.00  0.00     0.180 C 
HETATM   22  S1  UNL     1      22.504   4.740  49.783  1.00  0.00    -0.040 SA
BRANCH  21  23
HETATM   23  N3  UNL     1      24.779   5.116  50.706  1.00  0.00    -0.333 N 
HETATM   24  H13 UNL     1      24.911   5.862  51.420  1.00  0.00     0.168 HD
BRANCH  23  25
HETATM   25  C14 UNL     1      25.900   5.411  49.855  1.00  0.00     0.034 A 
HETATM   26  C15 UNL     1      26.022   6.777  49.585  1.00  0.00     0.029 A 
HETATM   27  C16 UNL     1      27.055   7.140  48.770  1.00  0.00     0.002 A 
HETATM   28  C17 UNL     1      27.933   6.238  48.237  1.00  0.00     0.000 A 
HETATM   29  C18 UNL     1      27.804   4.876  48.512  1.00  0.00     0.002 A 
HETATM   30  C19 UNL     1      26.771   4.476  49.331  1.00  0.00     0.029 A 
ENDBRANCH  23  25
ENDBRANCH  21  23
ENDBRANCH   1  21
TORSDOF 10
ENDMDL
MODEL 3
REMARK VINA RESULT:      -7.5      2.863      6.692
REMARK  10 active torsions:
REMARK  status: ('A' for Active; 'I' for Inactive)
REMARK    1  A    between atoms: N1_1  and  C1_2 
REMARK    2  A    between atoms: C1_2  and  N2_8 
REMARK    3  A    between atoms: C2_3  and  C3_4 
REMARK    4  A    between atoms: C3_4  and  C4_5 
REMARK    5  A    between atoms: N2_8  and  C6_9 
REMARK    6  A    between atoms: N2_8  and  C13_18 
REMARK    7  A    between atoms: C6_9  and  C7_10 
REMARK    8  A    between atoms: C10_13  and  O2_14 
REMARK    9  A    between atoms: C13_18  and  N3_20 
REMARK   10  A    between atoms: N3_20  and  C14_21 
ROOT
HETATM    1  N2  UNL     1      22.987   3.026  51.178  1.00  0.00    -0.306 N 
ENDROOT
BRANCH   1   2
HETATM    2  C1  UNL     1      23.814   3.220  52.314  1.00  0.00     0.099 C 
HETATM    3  C2  UNL     1      24.537   2.156  52.709  1.00  0.00     0.028 C 
BRANCH   2   4
HETATM    4  N1  UNL     1      23.993   4.400  53.114  1.00  0.00    -0.386 N 
HETATM    5  H1  UNL     1      24.371   4.230  54.054  1.00  0.00     0.157 HD
HETATM    6  H2  UNL     1      23.899   5.448  53.157  1.00  0.00     0.157 HD
ENDBRANCH   2   4
BRANCH   3   7
HETATM    7  C3  UNL     1      25.509   1.803  53.764  1.00  0.00     0.098 C 
BRANCH   7   8
HETATM    8  C4  UNL     1      25.703   0.331  53.901  1.00  0.00     0.078 A 
HETATM    9  C5  UNL     1      26.103  -0.817  53.291  1.00  0.00     0.175 A 
HETATM   10  O1  UNL     1      25.668  -0.893  54.594  1.00  0.00    -0.322 OA
ENDBRANCH   7   8
ENDBRANCH   3   7
ENDBRANCH   1   2
BRANCH   1  11
HETATM   11  C6  UNL     1      23.459   2.918  49.823  1.00  0.00     0.173 C 
BRANCH  11  12
HETATM   12  C7  UNL     1      24.610   3.824  49.526  1.00  0.00    -0.018 A 
HETATM   13  C8  UNL     1      25.893   3.278  49.577  1.00  0.00     0.013 A 
HETATM   14  C9  UNL     1      27.049   3.982  49.332  1.00  0.00     0.037 A 
HETATM   15  C10 UNL     1      26.941   5.335  49.013  1.00  0.00     0.067 A 
HETATM   16  C11 UNL     1      25.679   5.913  48.952  1.00  0.00     0.060 A 
HETATM   17  C12 UNL     1      24.530   5.167  49.206  1.00  0.00     0.044 A 
HETATM   18 CL1  UNL     1      22.920   5.858  49.141  1.00  0.00    -0.084 Cl
BRANCH  15  19
HETATM   19  O2  UNL     1      28.066   6.112  48.753  1.00  0.00    -0.361 OA
HETATM   20  H11 UNL     1      28.107   7.029  49.224  1.00  0.00     0.217 HD
ENDBRANCH  15  19
ENDBRANCH  11  12
ENDBRANCH   1  11
BRANCH   1  21
HETATM   21  C13 UNL     1      21.594   2.944  51.481  1.00  0.00     0.180 C 
HETATM   22  S1  UNL     1      20.525   4.179  51.346  1.00  0.00    -0.040 SA
BRANCH  21  23
HETATM   23  N3  UNL     1      20.869   1.791  51.940  1.00  0.00    -0.333 N 
HETATM   24  H13 UNL     1      19.908   1.481  51.689  1.00  0.00     0.168 HD
BRANCH  23  25
HETATM   25  C14 UNL     1      21.217   0.741  52.860  1.00  0.00     0.034 A 
HETATM   26  C15 UNL     1      22.041  -0.227  52.280  1.00  0.00     0.029 A 
HETATM   27  C16 UNL     1      22.406  -1.267  53.086  1.00  0.00     0.002 A 
HETATM   28  C17 UNL     1      22.001  -1.377  54.387  1.00  0.00     0.000 A 
HETATM   29  C18 UNL     1      21.179  -0.404  54.958  1.00  0.00     0.002 A 
HETATM   30  C19 UNL     1      20.792   0.659  54.172  1.00  0.00     0.029 A 
ENDBRANCH  23  25
ENDBRANCH  21  23
ENDBRANCH   1  21
TORSDOF 10
ENDMDL
MODEL 4
REMARK VINA RESULT:      -7.4      1.007      5.625
REMARK  10 active torsions:
REMARK  status: ('A' for Active; 'I' for Inactive)
REMARK    1  A    between atoms: N1_1  and  C1_2 
REMARK    2  A    between atoms: C1_2  and  N2_8 
REMARK    3  A    between atoms: C2_3  and  C3_4 
REMARK    4  A    between atoms: C3_4  and  C4_5 
REMARK    5  A    between atoms: N2_8  and  C6_9 
REMARK    6  A    between atoms: N2_8  and  C13_18 
REMARK    7  A    between atoms: C6_9  and  C7_10 
REMARK    8  A    between atoms: C10_13  and  O2_14 
REMARK    9  A    between atoms: C13_18  and  N3_20 
REMARK   10  A    between atoms: N3_20  and  C14_21 
ROOT
HETATM    1  N2  UNL     1      24.132   2.946  51.957  1.00  0.00    -0.306 N 
ENDROOT
BRANCH   1   2
HETATM    2  C1  UNL     1      23.342   1.843  51.543  1.00  0.00     0.099 C 
HETATM    3  C2  UNL     1      23.124   0.890  52.469  1.00  0.00     0.028 C 
BRANCH   2   4
HETATM    4  N1  UNL     1      22.732   1.592  50.267  1.00  0.00    -0.386 N 
HETATM    5  H1  UNL     1      22.688   0.601  49.998  1.00  0.00     0.157 HD
HETATM    6  H2  UNL     1      22.275   2.017  49.419  1.00  0.00     0.157 HD
ENDBRANCH   2   4
BRANCH   3   7
HETATM    7  C3  UNL     1      22.418  -0.402  52.589  1.00  0.00     0.098 C 
BRANCH   7   8
HETATM    8  C4  UNL     1      22.302  -0.868  54.000  1.00  0.00     0.078 A 
HETATM    9  C5  UNL     1      22.967  -1.176  55.146  1.00  0.00     0.175 A 
HETATM   10  O1  UNL     1      21.597  -1.299  55.139  1.00  0.00    -0.322 OA
ENDBRANCH   7   8
ENDBRANCH   3   7
ENDBRANCH   1   2
BRANCH   1  11
HETATM   11  C6  UNL     1      23.660   4.047  52.754  1.00  0.00     0.173 C 
BRANCH  11  12
HETATM   12  C7  UNL     1      23.121   5.177  51.936  1.00  0.00    -0.018 A 
HETATM   13  C8  UNL     1      24.007   6.191  51.571  1.00  0.00     0.013 A 
HETATM   14  C9  UNL     1      23.663   7.295  50.826  1.00  0.00     0.037 A 
HETATM   15  C10 UNL     1      22.340   7.417  50.403  1.00  0.00     0.067 A 
HETATM   16  C11 UNL     1      21.429   6.425  50.747  1.00  0.00     0.060 A 
HETATM   17  C12 UNL     1      21.816   5.321  51.504  1.00  0.00     0.044 A 
HETATM   18 CL1  UNL     1      20.699   4.049  51.960  1.00  0.00    -0.084 Cl
BRANCH  15  19
HETATM   19  O2  UNL     1      21.918   8.505  49.646  1.00  0.00    -0.361 OA
HETATM   20  H11 UNL     1      22.434   9.388  49.786  1.00  0.00     0.217 HD
ENDBRANCH  15  19
ENDBRANCH  11  12
ENDBRANCH   1  11
BRANCH   1  21
HETATM   21  C13 UNL     1      25.487   2.889  51.508  1.00  0.00     0.180 C 
HETATM   22  S1  UNL     1      25.994   3.253  49.993  1.00  0.00    -0.040 SA
BRANCH  21  23
HETATM   23  N3  UNL     1      26.644   2.525  52.278  1.00  0.00    -0.333 N 
HETATM   24  H13 UNL     1      27.333   3.143  52.755  1.00  0.00     0.168 HD
BRANCH  23  25
HETATM   25  C14 UNL     1      27.208   1.246  52.618  1.00  0.00     0.034 A 
HETATM   26  C15 UNL     1      28.435   1.361  53.276  1.00  0.00     0.029 A 
HETATM   27  C16 UNL     1      29.045   0.188  53.621  1.00  0.00     0.002 A 
HETATM   28  C17 UNL     1      28.506  -1.038  53.349  1.00  0.00     0.000 A 
HETATM   29  C18 UNL     1      27.279  -1.142  52.691  1.00  0.00     0.002 A 
HETATM   30  C19 UNL     1      26.638   0.022  52.329  1.00  0.00     0.029 A 
ENDBRANCH  23  25
ENDBRANCH  21  23
ENDBRANCH   1  21
TORSDOF 10
ENDMDL
MODEL 5
REMARK VINA RESULT:      -7.4      2.620      6.981
REMARK  10 active torsions:
REMARK  status: ('A' for Active; 'I' for Inactive)
REMARK    1  A    between atoms: N1_1  and  C1_2 
REMARK    2  A    between atoms: C1_2  and  N2_8 
REMARK    3  A    between atoms: C2_3  and  C3_4 
REMARK    4  A    between atoms: C3_4  and  C4_5 
REMARK    5  A    between atoms: N2_8  and  C6_9 
REMARK    6  A    between atoms: N2_8  and  C13_18 
REMARK    7  A    between atoms: C6_9  and  C7_10 
REMARK    8  A    between atoms: C10_13  and  O2_14 
REMARK    9  A    between atoms: C13_18  and  N3_20 
REMARK   10  A    between atoms: N3_20  and  C14_21 
ROOT
HETATM    1  N2  UNL     1      23.696   3.318  51.017  1.00  0.00    -0.306 N 
ENDROOT
BRANCH   1   2
HETATM    2  C1  UNL     1      24.721   3.051  51.962  1.00  0.00     0.099 C 
HETATM    3  C2  UNL     1      25.756   2.314  51.520  1.00  0.00     0.028 C 
BRANCH   2   4
HETATM    4  N1  UNL     1      24.815   3.458  53.336  1.00  0.00    -0.386 N 
HETATM    5  H1  UNL     1      25.715   3.879  53.600  1.00  0.00     0.157 HD
HETATM    6  H2  UNL     1      24.322   3.517  54.265  1.00  0.00     0.157 HD
ENDBRANCH   2   4
BRANCH   3   7
HETATM    7  C3  UNL     1      27.028   1.762  52.034  1.00  0.00     0.098 C 
BRANCH   7   8
HETATM    8  C4  UNL     1      26.930   0.317  52.385  1.00  0.00     0.078 A 
HETATM    9  C5  UNL     1      27.352  -0.674  53.215  1.00  0.00     0.175 A 
HETATM   10  O1  UNL     1      26.445  -0.994  52.232  1.00  0.00    -0.322 OA
ENDBRANCH   7   8
ENDBRANCH   3   7
ENDBRANCH   1   2
BRANCH   1  11
HETATM   11  C6  UNL     1      23.881   4.022  49.777  1.00  0.00     0.173 C 
BRANCH  11  12
HETATM   12  C7  UNL     1      24.460   5.390  49.956  1.00  0.00    -0.018 A 
HETATM   13  C8  UNL     1      23.639   6.372  50.511  1.00  0.00     0.013 A 
HETATM   14  C9  UNL     1      24.024   7.673  50.735  1.00  0.00     0.037 A 
HETATM   15  C10 UNL     1      25.321   8.045  50.385  1.00  0.00     0.067 A 
HETATM   16  C11 UNL     1      26.168   7.093  49.831  1.00  0.00     0.060 A 
HETATM   17  C12 UNL     1      25.741   5.783  49.619  1.00  0.00     0.044 A 
HETATM   18 CL1  UNL     1      26.777   4.553  48.920  1.00  0.00    -0.084 Cl
BRANCH  15  19
HETATM   19  O2  UNL     1      25.782   9.343  50.582  1.00  0.00    -0.361 OA
HETATM   20  H11 UNL     1      26.688   9.438  51.066  1.00  0.00     0.217 HD
ENDBRANCH  15  19
ENDBRANCH  11  12
ENDBRANCH   1  11
BRANCH   1  21
HETATM   21  C13 UNL     1      22.413   2.821  51.398  1.00  0.00     0.180 C 
HETATM   22  S1  UNL     1      21.130   3.749  51.820  1.00  0.00    -0.040 SA
BRANCH  21  23
HETATM   23  N3  UNL     1      21.998   1.447  51.472  1.00  0.00    -0.333 N 
HETATM   24  H13 UNL     1      21.565   0.855  50.734  1.00  0.00     0.168 HD
BRANCH  23  25
HETATM   25  C14 UNL     1      22.037   0.489  52.544  1.00  0.00     0.034 A 
HETATM   26  C15 UNL     1      20.768   0.009  52.878  1.00  0.00     0.029 A 
HETATM   27  C16 UNL     1      20.717  -0.897  53.899  1.00  0.00     0.002 A 
HETATM   28  C17 UNL     1      21.829  -1.324  54.570  1.00  0.00     0.000 A 
HETATM   29  C18 UNL     1      23.093  -0.839  54.228  1.00  0.00     0.002 A 
HETATM   30  C19 UNL     1      23.179   0.076  53.203  1.00  0.00     0.029 A 
ENDBRANCH  23  25
ENDBRANCH  21  23
ENDBRANCH   1  21
TORSDOF 10
ENDMDL
MODEL 6
REMARK VINA RESULT:      -7.4      2.313      5.876
REMARK  10 active torsions:
REMARK  status: ('A' for Active; 'I' for Inactive)
REMARK    1  A    between atoms: N1_1  and  C1_2 
REMARK    2  A    between atoms: C1_2  and  N2_8 
REMARK    3  A    between atoms: C2_3  and  C3_4 
REMARK    4  A    between atoms: C3_4  and  C4_5 
REMARK    5  A    between atoms: N2_8  and  C6_9 
REMARK    6  A    between atoms: N2_8  and  C13_18 
REMARK    7  A    between atoms: C6_9  and  C7_10 
REMARK    8  A    between atoms: C10_13  and  O2_14 
REMARK    9  A    between atoms: C13_18  and  N3_20 
REMARK   10  A    between atoms: N3_20  and  C14_21 
ROOT
HETATM    1  N2  UNL     1      23.133   2.626  51.553  1.00  0.00    -0.306 N 
ENDROOT
BRANCH   1   2
HETATM    2  C1  UNL     1      21.854   2.202  51.998  1.00  0.00     0.099 C 
HETATM    3  C2  UNL     1      21.844   1.265  52.964  1.00  0.00     0.028 C 
BRANCH   2   4
HETATM    4  N1  UNL     1      20.554   2.633  51.564  1.00  0.00    -0.386 N 
HETATM    5  H1  UNL     1      19.881   1.873  51.402  1.00  0.00     0.157 HD
HETATM    6  H2  UNL     1      19.943   3.455  51.319  1.00  0.00     0.157 HD
ENDBRANCH   2   4
BRANCH   3   7
HETATM    7  C3  UNL     1      20.862   0.499  53.759  1.00  0.00     0.098 C 
BRANCH   7   8
HETATM    8  C4  UNL     1      21.475  -0.651  54.483  1.00  0.00     0.078 A 
HETATM    9  C5  UNL     1      22.604  -1.155  55.050  1.00  0.00     0.175 A 
HETATM   10  O1  UNL     1      21.462  -1.921  55.086  1.00  0.00    -0.322 OA
ENDBRANCH   7   8
ENDBRANCH   3   7
ENDBRANCH   1   2
BRANCH   1  11
HETATM   11  C6  UNL     1      23.687   2.352  50.255  1.00  0.00     0.173 C 
BRANCH  11  12
HETATM   12  C7  UNL     1      24.589   3.436  49.758  1.00  0.00    -0.018 A 
HETATM   13  C8  UNL     1      25.964   3.201  49.794  1.00  0.00     0.013 A 
HETATM   14  C9  UNL     1      26.919   4.099  49.376  1.00  0.00     0.037 A 
HETATM   15  C10 UNL     1      26.492   5.331  48.883  1.00  0.00     0.067 A 
HETATM   16  C11 UNL     1      25.129   5.600  48.831  1.00  0.00     0.060 A 
HETATM   17  C12 UNL     1      24.192   4.664  49.264  1.00  0.00     0.044 A 
HETATM   18 CL1  UNL     1      22.465   4.965  49.217  1.00  0.00    -0.084 Cl
BRANCH  15  19
HETATM   19  O2  UNL     1      27.399   6.290  48.442  1.00  0.00    -0.361 OA
HETATM   20  H11 UNL     1      27.420   6.467  47.426  1.00  0.00     0.217 HD
ENDBRANCH  15  19
ENDBRANCH  11  12
ENDBRANCH   1  11
BRANCH   1  21
HETATM   21  C13 UNL     1      23.866   3.374  52.524  1.00  0.00     0.180 C 
HETATM   22  S1  UNL     1      23.535   4.914  52.975  1.00  0.00    -0.040 SA
BRANCH  21  23
HETATM   23  N3  UNL     1      25.002   2.932  53.287  1.00  0.00    -0.333 N 
HETATM   24  H13 UNL     1      25.474   3.401  54.086  1.00  0.00     0.168 HD
BRANCH  23  25
HETATM   25  C14 UNL     1      25.823   1.755  53.193  1.00  0.00     0.034 A 
HETATM   26  C15 UNL     1      27.188   2.052  53.218  1.00  0.00     0.029 A 
HETATM   27  C16 UNL     1      28.037   0.987  53.118  1.00  0.00     0.002 A 
HETATM   28  C17 UNL     1      27.601  -0.303  53.000  1.00  0.00     0.000 A 
HETATM   29  C18 UNL     1      26.235  -0.590  52.977  1.00  0.00     0.002 A 
HETATM   30  C19 UNL     1      25.351   0.462  53.074  1.00  0.00     0.029 A 
ENDBRANCH  23  25
ENDBRANCH  21  23
ENDBRANCH   1  21
TORSDOF 10
ENDMDL
MODEL 7
REMARK VINA RESULT:      -7.3      2.028      6.397
REMARK  10 active torsions:
REMARK  status: ('A' for Active; 'I' for Inactive)
REMARK    1  A    between atoms: N1_1  and  C1_2 
REMARK    2  A    between atoms: C1_2  and  N2_8 
REMARK    3  A    between atoms: C2_3  and  C3_4 
REMARK    4  A    between atoms: C3_4  and  C4_5 
REMARK    5  A    between atoms: N2_8  and  C6_9 
REMARK    6  A    between atoms: N2_8  and  C13_18 
REMARK    7  A    between atoms: C6_9  and  C7_10 
REMARK    8  A    between atoms: C10_13  and  O2_14 
REMARK    9  A    between atoms: C13_18  and  N3_20 
REMARK   10  A    between atoms: N3_20  and  C14_21 
ROOT
HETATM    1  N2  UNL     1      24.000   3.096  51.550  1.00  0.00    -0.306 N 
ENDROOT
BRANCH   1   2
HETATM    2  C1  UNL     1      25.386   2.812  51.442  1.00  0.00     0.099 C 
HETATM    3  C2  UNL     1      25.801   1.667  52.013  1.00  0.00     0.028 C 
BRANCH   2   4
HETATM    4  N1  UNL     1      26.421   3.576  50.804  1.00  0.00    -0.386 N 
HETATM    5  H1  UNL     1      26.157   4.540  50.561  1.00  0.00     0.157 HD
HETATM    6  H2  UNL     1      27.412   3.578  50.449  1.00  0.00     0.157 HD
ENDBRANCH   2   4
BRANCH   3   7
HETATM    7  C3  UNL     1      27.057   0.910  52.201  1.00  0.00     0.098 C 
BRANCH   7   8
HETATM    8  C4  UNL     1      27.896   1.448  53.308  1.00  0.00     0.078 A 
HETATM    9  C5  UNL     1      28.758   2.425  53.700  1.00  0.00     0.175 A 
HETATM   10  O1  UNL     1      28.426   1.450  54.611  1.00  0.00    -0.322 OA
ENDBRANCH   7   8
ENDBRANCH   3   7
ENDBRANCH   1   2
BRANCH   1  11
HETATM   11  C6  UNL     1      23.428   4.098  52.408  1.00  0.00     0.173 C 
BRANCH  11  12
HETATM   12  C7  UNL     1      22.987   5.323  51.672  1.00  0.00    -0.018 A 
HETATM   13  C8  UNL     1      23.949   6.295  51.399  1.00  0.00     0.013 A 
HETATM   14  C9  UNL     1      23.699   7.473  50.736  1.00  0.00     0.037 A 
HETATM   15  C10 UNL     1      22.397   7.722  50.304  1.00  0.00     0.067 A 
HETATM   16  C11 UNL     1      21.411   6.775  50.557  1.00  0.00     0.060 A 
HETATM   17  C12 UNL     1      21.704   5.592  51.233  1.00  0.00     0.044 A 
HETATM   18 CL1  UNL     1      20.491   4.373  51.574  1.00  0.00    -0.084 Cl
BRANCH  15  19
HETATM   19  O2  UNL     1      22.068   8.892  49.626  1.00  0.00    -0.361 OA
HETATM   20  H11 UNL     1      22.605   9.735  49.881  1.00  0.00     0.217 HD
ENDBRANCH  15  19
ENDBRANCH  11  12
ENDBRANCH   1  11
BRANCH   1  21
HETATM   21  C13 UNL     1      23.174   2.282  50.715  1.00  0.00     0.180 C 
HETATM   22  S1  UNL     1      22.953   2.502  49.107  1.00  0.00    -0.040 SA
BRANCH  21  23
HETATM   23  N3  UNL     1      22.404   1.134  51.107  1.00  0.00    -0.333 N 
HETATM   24  H13 UNL     1      21.829   0.500  50.515  1.00  0.00     0.168 HD
BRANCH  23  25
HETATM   25  C14 UNL     1      22.180   0.519  52.388  1.00  0.00     0.034 A 
HETATM   26  C15 UNL     1      20.973   0.916  52.968  1.00  0.00     0.029 A 
HETATM   27  C16 UNL     1      20.692   0.386  54.195  1.00  0.00     0.002 A 
HETATM   28  C17 UNL     1      21.528  -0.484  54.838  1.00  0.00     0.000 A 
HETATM   29  C18 UNL     1      22.731  -0.876  54.249  1.00  0.00     0.002 A 
HETATM   30  C19 UNL     1      23.045  -0.359  53.012  1.00  0.00     0.029 A 
ENDBRANCH  23  25
ENDBRANCH  21  23
ENDBRANCH   1  21
TORSDOF 10
ENDMDL
MODEL 8
REMARK VINA RESULT:      -7.2      3.234      6.533
REMARK  10 active torsions:
REMARK  status: ('A' for Active; 'I' for Inactive)
REMARK    1  A    between atoms: N1_1  and  C1_2 
REMARK    2  A    between atoms: C1_2  and  N2_8 
REMARK    3  A    between atoms: C2_3  and  C3_4 
REMARK    4  A    between atoms: C3_4  and  C4_5 
REMARK    5  A    between atoms: N2_8  and  C6_9 
REMARK    6  A    between atoms: N2_8  and  C13_18 
REMARK    7  A    between atoms: C6_9  and  C7_10 
REMARK    8  A    between atoms: C10_13  and  O2_14 
REMARK    9  A    between atoms: C13_18  and  N3_20 
REMARK   10  A    between atoms: N3_20  and  C14_21 
ROOT
HETATM    1  N2  UNL     1      24.570   1.867  51.368  1.00  0.00    -0.306 N 
ENDROOT
BRANCH   1   2
HETATM    2  C1  UNL     1      23.516   1.736  52.308  1.00  0.00     0.099 C 
HETATM    3  C2  UNL     1      23.220   0.482  52.694  1.00  0.00     0.028 C 
BRANCH   2   4
HETATM    4  N1  UNL     1      22.710   2.759  52.915  1.00  0.00    -0.386 N 
HETATM    5  H1  UNL     1      22.543   2.635  53.922  1.00  0.00     0.157 HD
HETATM    6  H2  UNL     1      22.174   3.652  52.764  1.00  0.00     0.157 HD
ENDBRANCH   2   4
BRANCH   3   7
HETATM    7  C3  UNL     1      22.274  -0.210  53.595  1.00  0.00     0.098 C 
BRANCH   7   8
HETATM    8  C4  UNL     1      22.957  -0.932  54.706  1.00  0.00     0.078 A 
HETATM    9  C5  UNL     1      24.124  -1.126  55.378  1.00  0.00     0.175 A 
HETATM   10  O1  UNL     1      23.015  -1.827  55.789  1.00  0.00    -0.322 OA
ENDBRANCH   7   8
ENDBRANCH   3   7
ENDBRANCH   1   2
BRANCH   1  11
HETATM   11  C6  UNL     1      25.649   0.930  51.201  1.00  0.00     0.173 C 
BRANCH  11  12
HETATM   12  C7  UNL     1      26.704   1.053  52.254  1.00  0.00    -0.018 A 
HETATM   13  C8  UNL     1      27.238   2.320  52.489  1.00  0.00     0.013 A 
HETATM   14  C9  UNL     1      28.214   2.594  53.419  1.00  0.00     0.037 A 
HETATM   15  C10 UNL     1      28.711   1.537  54.182  1.00  0.00     0.067 A 
HETATM   16  C11 UNL     1      28.201   0.261  53.976  1.00  0.00     0.060 A 
HETATM   17  C12 UNL     1      27.212   0.024  53.024  1.00  0.00     0.044 A 
HETATM   18 CL1  UNL     1      26.544  -1.571  52.732  1.00  0.00    -0.084 Cl
BRANCH  15  19
HETATM   19  O2  UNL     1      29.698   1.736  55.141  1.00  0.00    -0.361 OA
HETATM   20  H11 UNL     1      30.268   2.590  55.041  1.00  0.00     0.217 HD
ENDBRANCH  15  19
ENDBRANCH  11  12
ENDBRANCH   1  11
BRANCH   1  21
HETATM   21  C13 UNL     1      24.487   3.044  50.563  1.00  0.00     0.180 C 
HETATM   22  S1  UNL     1      23.524   3.223  49.249  1.00  0.00    -0.040 SA
BRANCH  21  23
HETATM   23  N3  UNL     1      25.203   4.277  50.748  1.00  0.00    -0.333 N 
HETATM   24  H13 UNL     1      25.257   4.880  51.595  1.00  0.00     0.168 HD
BRANCH  23  25
HETATM   25  C14 UNL     1      26.032   5.049  49.862  1.00  0.00     0.034 A 
HETATM   26  C15 UNL     1      27.091   4.305  49.337  1.00  0.00     0.029 A 
HETATM   27  C16 UNL     1      27.935   4.971  48.495  1.00  0.00     0.002 A 
HETATM   28  C17 UNL     1      27.773   6.289  48.170  1.00  0.00     0.000 A 
HETATM   29  C18 UNL     1      26.711   7.024  48.698  1.00  0.00     0.002 A 
HETATM   30  C19 UNL     1      25.841   6.382  49.552  1.00  0.00     0.029 A 
ENDBRANCH  23  25
ENDBRANCH  21  23
ENDBRANCH   1  21
TORSDOF 10
ENDMDL
MODEL 9
REMARK VINA RESULT:      -7.1      3.201      6.429
REMARK  10 active torsions:
REMARK  status: ('A' for Active; 'I' for Inactive)
REMARK    1  A    between atoms: N1_1  and  C1_2 
REMARK    2  A    between atoms: C1_2  and  N2_8 
REMARK    3  A    between atoms: C2_3  and  C3_4 
REMARK    4  A    between atoms: C3_4  and  C4_5 
REMARK    5  A    between atoms: N2_8  and  C6_9 
REMARK    6  A    between atoms: N2_8  and  C13_18 
REMARK    7  A    between atoms: C6_9  and  C7_10 
REMARK    8  A    between atoms: C10_13  and  O2_14 
REMARK    9  A    between atoms: C13_18  and  N3_20 
REMARK   10  A    between atoms: N3_20  and  C14_21 
ROOT
HETATM    1  N2  UNL     1      23.605   2.997  52.501  1.00  0.00    -0.306 N 
ENDROOT
BRANCH   1   2
HETATM    2  C1  UNL     1      22.793   1.922  52.056  1.00  0.00     0.099 C 
HETATM    3  C2  UNL     1      21.992   1.362  52.981  1.00  0.00     0.028 C 
BRANCH   2   4
HETATM    4  N1  UNL     1      22.699   1.339  50.746  1.00  0.00    -0.386 N 
HETATM    5  H1  UNL     1      23.601   1.195  50.273  1.00  0.00     0.157 HD
HETATM    6  H2  UNL     1      22.056   0.965  50.001  1.00  0.00     0.157 HD
ENDBRANCH   2   4
BRANCH   3   7
HETATM    7  C3  UNL     1      20.994   0.276  53.077  1.00  0.00     0.098 C 
BRANCH   7   8
HETATM    8  C4  UNL     1      21.351  -0.748  54.099  1.00  0.00     0.078 A 
HETATM    9  C5  UNL     1      22.256  -1.141  55.036  1.00  0.00     0.175 A 
HETATM   10  O1  UNL     1      21.143  -1.925  54.840  1.00  0.00    -0.322 OA
ENDBRANCH   7   8
ENDBRANCH   3   7
ENDBRANCH   1   2
BRANCH   1  11
HETATM   11  C6  UNL     1      24.826   2.853  53.248  1.00  0.00     0.173 C 
BRANCH  11  12
HETATM   12  C7  UNL     1      25.480   1.522  53.059  1.00  0.00    -0.018 A 
HETATM   13  C8  UNL     1      25.300   0.564  54.057  1.00  0.00     0.013 A 
HETATM   14  C9  UNL     1      25.838  -0.701  54.029  1.00  0.00     0.037 A 
HETATM   15  C10 UNL     1      26.619  -1.060  52.931  1.00  0.00     0.067 A 
HETATM   16  C11 UNL     1      26.820  -0.131  51.916  1.00  0.00     0.060 A 
HETATM   17  C12 UNL     1      26.258   1.142  51.981  1.00  0.00     0.044 A 
HETATM   18 CL1  UNL     1      26.488   2.342  50.723  1.00  0.00    -0.084 Cl
BRANCH  15  19
HETATM   19  O2  UNL     1      27.197  -2.322  52.832  1.00  0.00    -0.361 OA
HETATM   20  H11 UNL     1      28.227  -2.351  52.789  1.00  0.00     0.217 HD
ENDBRANCH  15  19
ENDBRANCH  11  12
ENDBRANCH   1  11
BRANCH   1  21
HETATM   21  C13 UNL     1      23.107   4.287  52.146  1.00  0.00     0.180 C 
HETATM   22  S1  UNL     1      21.566   4.610  51.692  1.00  0.00    -0.040 SA
BRANCH  21  23
HETATM   23  N3  UNL     1      23.834   5.526  52.128  1.00  0.00    -0.333 N 
HETATM   24  H13 UNL     1      24.177   6.094  52.930  1.00  0.00     0.168 HD
BRANCH  23  25
HETATM   25  C14 UNL     1      24.297   6.353  51.046  1.00  0.00     0.034 A 
HETATM   26  C15 UNL     1      25.125   5.660  50.160  1.00  0.00     0.029 A 
HETATM   27  C16 UNL     1      25.619   6.380  49.110  1.00  0.00     0.002 A 
HETATM   28  C17 UNL     1      25.335   7.702  48.917  1.00  0.00     0.000 A 
HETATM   29  C18 UNL     1      24.506   8.387  49.807  1.00  0.00     0.002 A 
HETATM   30  C19 UNL     1      23.991   7.690  50.877  1.00  0.00     0.029 A 
ENDBRANCH  23  25
ENDBRANCH  21  23
ENDBRANCH   1  21
TORSDOF 10
ENDMDL
