MODEL 1
REMARK VINA RESULT:      -8.4      0.000      0.000
REMARK  2 active torsions:
REMARK  status: ('A' for Active; 'I' for Inactive)
REMARK    1  A    between atoms: C1_2  and  C2_3 
REMARK    2  A    between atoms: C2_3  and  N1_4 
ROOT
HETATM    1  N1  UNL     1      23.488   4.716  50.623  1.00  0.00    -0.373 N 
HETATM    2  C3  UNL     1      22.330   5.079  49.850  1.00  0.00     0.130 C 
HETATM    3  C4  UNL     1      22.014   4.167  48.731  1.00  0.00     0.033 C 
HETATM    4  C5  UNL     1      22.686   4.806  47.487  1.00  0.00     0.008 C 
HETATM    5  C6  UNL     1      21.674   5.555  46.653  1.00  0.00     0.001 C 
HETATM    6  C7  UNL     1      20.876   4.482  45.926  1.00  0.00     0.002 C 
HETATM    7  C8  UNL     1      20.379   3.549  46.969  1.00  0.00     0.032 C 
HETATM    8  C9  UNL     1      20.540   4.048  48.386  1.00  0.00     0.177 C 
HETATM    9  N2  UNL     1      19.908   2.938  49.190  1.00  0.00    -0.109 N 
HETATM   10  C10 UNL     1      19.847   1.835  50.160  1.00  0.00     0.577 C 
HETATM   11  C11 UNL     1      21.020   1.651  50.866  1.00  0.00     0.032 C 
HETATM   12  C12 UNL     1      20.588   0.491  51.724  1.00  0.00     0.037 C 
HETATM   13  C13 UNL     1      21.187  -0.274  52.693  1.00  0.00     0.021 C 
HETATM   14  C14 UNL     1      22.308  -0.720  53.604  1.00  0.00     0.013 C 
HETATM   15 CL1  UNL     1      21.857  -2.046  54.628  1.00  0.00    -0.089 Cl
HETATM   16  C15 UNL     1      23.504  -0.209  53.665  1.00  0.00     0.028 C 
HETATM   17  C16 UNL     1      24.422   0.770  53.166  1.00  0.00    -0.036 C 
HETATM   18  C17 UNL     1      24.071   1.865  52.548  1.00  0.00     0.025 C 
HETATM   19  C18 UNL     1      24.727   2.670  51.546  1.00  0.00     0.019 A 
HETATM   20  C19 UNL     1      24.487   3.732  50.842  1.00  0.00     0.043 A 
HETATM   21  C20 UNL     1      25.669   3.950  49.976  1.00  0.00     0.032 A 
HETATM   22  C21 UNL     1      26.625   3.018  50.143  1.00  0.00     0.034 A 
HETATM   23  C22 UNL     1      26.028   2.155  51.174  1.00  0.00     0.064 A 
HETATM   24  N3  UNL     1      26.398   1.063  51.797  1.00  0.00    -0.284 NA
HETATM   25  C23 UNL     1      25.896   0.839  53.145  1.00  0.00     0.188 C 
HETATM   26  H16 UNL     1      18.866   2.939  48.864  1.00  0.00     0.260 HD
ENDROOT
BRANCH   1  27
HETATM   27  C2  UNL     1      23.748   5.805  51.547  1.00  0.00     0.192 C 
BRANCH  27  28
HETATM   28  C1  UNL     1      23.972   7.122  50.920  1.00  0.00     0.250 C 
HETATM   29  O1  UNL     1      25.146   7.384  50.631  1.00  0.00    -0.305 OA
ENDBRANCH  27  28
ENDBRANCH   1  27
TORSDOF 2
ENDMDL
MODEL 2
REMARK VINA RESULT:      -7.9      2.330      4.273
REMARK  2 active torsions:
REMARK  status: ('A' for Active; 'I' for Inactive)
REMARK    1  A    between atoms: C1_2  and  C2_3 
REMARK    2  A    between atoms: C2_3  and  N1_4 
ROOT
HETATM    1  N1  UNL     1      21.717   3.690  51.695  1.00  0.00    -0.373 N 
HETATM    2  C3  UNL     1      20.557   3.038  52.242  1.00  0.00     0.130 C 
HETATM    3  C4  UNL     1      20.270   1.699  51.684  1.00  0.00     0.033 C 
HETATM    4  C5  UNL     1      19.238   1.947  50.552  1.00  0.00     0.008 C 
HETATM    5  C6  UNL     1      17.838   1.627  51.018  1.00  0.00     0.001 C 
HETATM    6  C7  UNL     1      17.757   0.107  51.040  1.00  0.00     0.002 C 
HETATM    7  C8  UNL     1      18.901  -0.362  51.863  1.00  0.00     0.032 C 
HETATM    8  C9  UNL     1      19.603   0.726  52.640  1.00  0.00     0.177 C 
HETATM    9  N2  UNL     1      20.651  -0.050  53.401  1.00  0.00    -0.109 N 
HETATM   10  C10 UNL     1      22.002  -0.463  53.804  1.00  0.00     0.577 C 
HETATM   11  C11 UNL     1      23.007   0.300  53.239  1.00  0.00     0.032 C 
HETATM   12  C12 UNL     1      24.192  -0.390  53.863  1.00  0.00     0.037 C 
HETATM   13  C13 UNL     1      25.553  -0.226  53.800  1.00  0.00     0.021 C 
HETATM   14  C14 UNL     1      26.849   0.408  53.347  1.00  0.00     0.013 C 
HETATM   15 CL1  UNL     1      28.247  -0.339  54.051  1.00  0.00    -0.089 Cl
HETATM   16  C15 UNL     1      26.972   1.408  52.521  1.00  0.00     0.028 C 
HETATM   17  C16 UNL     1      26.316   2.365  51.683  1.00  0.00    -0.036 C 
HETATM   18  C17 UNL     1      25.068   2.727  51.809  1.00  0.00     0.025 C 
HETATM   19  C18 UNL     1      24.091   3.198  50.860  1.00  0.00     0.019 A 
HETATM   20  C19 UNL     1      22.843   3.551  50.842  1.00  0.00     0.043 A 
HETATM   21  C20 UNL     1      22.516   3.909  49.443  1.00  0.00     0.032 A 
HETATM   22  C21 UNL     1      23.560   3.766  48.604  1.00  0.00     0.034 A 
HETATM   23  C22 UNL     1      24.615   3.293  49.513  1.00  0.00     0.064 A 
HETATM   24  N3  UNL     1      25.870   2.945  49.375  1.00  0.00    -0.284 NA
HETATM   25  C23 UNL     1      26.764   3.137  50.507  1.00  0.00     0.188 C 
HETATM   26  H16 UNL     1      20.069  -0.712  54.046  1.00  0.00     0.260 HD
ENDROOT
BRANCH   1  27
HETATM   27  C2  UNL     1      21.737   5.044  52.218  1.00  0.00     0.192 C 
BRANCH  27  28
HETATM   28  C1  UNL     1      21.389   6.098  51.247  1.00  0.00     0.250 C 
HETATM   29  O1  UNL     1      22.233   6.990  51.101  1.00  0.00    -0.305 OA
ENDBRANCH  27  28
ENDBRANCH   1  27
TORSDOF 2
ENDMDL
MODEL 3
REMARK VINA RESULT:      -7.9      3.886      6.235
REMARK  2 active torsions:
REMARK  status: ('A' for Active; 'I' for Inactive)
REMARK    1  A    between atoms: C1_2  and  C2_3 
REMARK    2  A    between atoms: C2_3  and  N1_4 
ROOT
HETATM    1  N1  UNL     1      17.845   2.068  51.229  1.00  0.00    -0.373 N 
HETATM    2  C3  UNL     1      16.641   1.359  51.569  1.00  0.00     0.130 C 
HETATM    3  C4  UNL     1      16.571  -0.031  51.070  1.00  0.00     0.033 C 
HETATM    4  C5  UNL     1      15.794   0.060  49.730  1.00  0.00     0.008 C 
HETATM    5  C6  UNL     1      14.351  -0.344  49.915  1.00  0.00     0.001 C 
HETATM    6  C7  UNL     1      14.369  -1.861  50.039  1.00  0.00     0.002 C 
HETATM    7  C8  UNL     1      15.337  -2.183  51.118  1.00  0.00     0.032 C 
HETATM    8  C9  UNL     1      15.781  -0.994  51.938  1.00  0.00     0.177 C 
HETATM    9  N2  UNL     1      16.689  -1.632  52.961  1.00  0.00    -0.109 N 
HETATM   10  C10 UNL     1      17.946  -1.907  53.670  1.00  0.00     0.577 C 
HETATM   11  C11 UNL     1      18.995  -1.102  53.271  1.00  0.00     0.032 C 
HETATM   12  C12 UNL     1      20.062  -1.651  54.182  1.00  0.00     0.037 C 
HETATM   13  C13 UNL     1      21.390  -1.380  54.395  1.00  0.00     0.021 C 
HETATM   14  C14 UNL     1      22.708  -0.671  54.176  1.00  0.00     0.013 C 
HETATM   15 CL1  UNL     1      23.968  -1.256  55.215  1.00  0.00    -0.089 Cl
HETATM   16  C15 UNL     1      22.939   0.282  53.319  1.00  0.00     0.028 C 
HETATM   17  C16 UNL     1      22.417   1.128  52.288  1.00  0.00    -0.036 C 
HETATM   18  C17 UNL     1      21.150   1.393  52.121  1.00  0.00     0.025 C 
HETATM   19  C18 UNL     1      20.370   1.723  50.953  1.00  0.00     0.019 A 
HETATM   20  C19 UNL     1      19.135   1.970  50.646  1.00  0.00     0.043 A 
HETATM   21  C20 UNL     1      19.095   2.212  49.185  1.00  0.00     0.032 A 
HETATM   22  C21 UNL     1      20.301   2.104  48.599  1.00  0.00     0.034 A 
HETATM   23  C22 UNL     1      21.165   1.776  49.744  1.00  0.00     0.064 A 
HETATM   24  N3  UNL     1      22.441   1.525  49.900  1.00  0.00    -0.284 NA
HETATM   25  C23 UNL     1      23.054   1.860  51.177  1.00  0.00     0.188 C 
HETATM   26  H16 UNL     1      16.028  -2.299  53.518  1.00  0.00     0.260 HD
ENDROOT
BRANCH   1  27
HETATM   27  C2  UNL     1      17.661   3.449  51.637  1.00  0.00     0.192 C 
BRANCH  27  28
HETATM   28  C1  UNL     1      16.264   3.847  51.898  1.00  0.00     0.250 C 
HETATM   29  O1  UNL     1      16.088   4.555  52.897  1.00  0.00    -0.305 OA
ENDBRANCH  27  28
ENDBRANCH   1  27
TORSDOF 2
ENDMDL
MODEL 4
REMARK VINA RESULT:      -7.8      2.964      5.133
REMARK  2 active torsions:
REMARK  status: ('A' for Active; 'I' for Inactive)
REMARK    1  A    between atoms: C1_2  and  C2_3 
REMARK    2  A    between atoms: C2_3  and  N1_4 
ROOT
HETATM    1  N1  UNL     1      21.498   1.904  50.755  1.00  0.00    -0.373 N 
HETATM    2  C3  UNL     1      21.744   3.096  49.988  1.00  0.00     0.130 C 
HETATM    3  C4  UNL     1      22.240   4.250  50.766  1.00  0.00     0.033 C 
HETATM    4  C5  UNL     1      20.975   5.080  51.109  1.00  0.00     0.008 C 
HETATM    5  C6  UNL     1      20.836   6.261  50.179  1.00  0.00     0.001 C 
HETATM    6  C7  UNL     1      21.876   7.270  50.648  1.00  0.00     0.002 C 
HETATM    7  C8  UNL     1      23.174   6.548  50.685  1.00  0.00     0.032 C 
HETATM    8  C9  UNL     1      23.159   5.195  50.012  1.00  0.00     0.177 C 
HETATM    9  N2  UNL     1      24.593   4.750  50.160  1.00  0.00    -0.109 N 
HETATM   10  C10 UNL     1      25.709   3.910  50.617  1.00  0.00     0.577 C 
HETATM   11  C11 UNL     1      25.308   2.770  51.286  1.00  0.00     0.032 C 
HETATM   12  C12 UNL     1      26.666   2.190  51.581  1.00  0.00     0.037 C 
HETATM   13  C13 UNL     1      27.123   1.064  52.219  1.00  0.00     0.021 C 
HETATM   14  C14 UNL     1      27.003  -0.236  52.981  1.00  0.00     0.013 C 
HETATM   15 CL1  UNL     1      28.542  -0.956  53.332  1.00  0.00    -0.089 Cl
HETATM   16  C15 UNL     1      25.897  -0.809  53.363  1.00  0.00     0.028 C 
HETATM   17  C16 UNL     1      24.466  -0.760  53.401  1.00  0.00    -0.036 C 
HETATM   18  C17 UNL     1      23.729  -0.060  52.583  1.00  0.00     0.025 C 
HETATM   19  C18 UNL     1      22.433   0.556  52.726  1.00  0.00     0.019 A 
HETATM   20  C19 UNL     1      21.620   1.286  52.027  1.00  0.00     0.043 A 
HETATM   21  C20 UNL     1      20.442   1.559  52.882  1.00  0.00     0.032 A 
HETATM   22  C21 UNL     1      20.539   1.005  54.106  1.00  0.00     0.034 A 
HETATM   23  C22 UNL     1      21.848   0.338  54.032  1.00  0.00     0.064 A 
HETATM   24  N3  UNL     1      22.573  -0.374  54.859  1.00  0.00    -0.284 NA
HETATM   25  C23 UNL     1      23.469  -1.374  54.299  1.00  0.00     0.188 C 
HETATM   26  H16 UNL     1      25.158   5.491  49.591  1.00  0.00     0.260 HD
ENDROOT
BRANCH   1  27
HETATM   27  C2  UNL     1      20.853   0.949  49.873  1.00  0.00     0.192 C 
BRANCH  27  28
HETATM   28  C1  UNL     1      19.502   1.328  49.417  1.00  0.00     0.250 C 
HETATM   29  O1  UNL     1      18.565   0.742  49.974  1.00  0.00    -0.305 OA
ENDBRANCH  27  28
ENDBRANCH   1  27
TORSDOF 2
ENDMDL
MODEL 5
REMARK VINA RESULT:      -7.8      3.601      5.042
REMARK  2 active torsions:
REMARK  status: ('A' for Active; 'I' for Inactive)
REMARK    1  A    between atoms: C1_2  and  C2_3 
REMARK    2  A    between atoms: C2_3  and  N1_4 
ROOT
HETATM    1  N1  UNL     1      25.430   7.840  48.116  1.00  0.00    -0.373 N 
HETATM    2  C3  UNL     1      24.710   8.556  47.097  1.00  0.00     0.130 C 
HETATM    3  C4  UNL     1      24.700   7.910  45.767  1.00  0.00     0.033 C 
HETATM    4  C5  UNL     1      25.873   8.565  44.991  1.00  0.00     0.008 C 
HETATM    5  C6  UNL     1      25.368   9.631  44.048  1.00  0.00     0.001 C 
HETATM    6  C7  UNL     1      24.746   8.876  42.881  1.00  0.00     0.002 C 
HETATM    7  C8  UNL     1      23.764   7.929  43.469  1.00  0.00     0.032 C 
HETATM    8  C9  UNL     1      23.460   8.167  44.930  1.00  0.00     0.177 C 
HETATM    9  N2  UNL     1      22.417   7.113  45.214  1.00  0.00    -0.109 N 
HETATM   10  C10 UNL     1      21.836   5.919  45.844  1.00  0.00     0.577 C 
HETATM   11  C11 UNL     1      22.621   5.383  46.846  1.00  0.00     0.032 C 
HETATM   12  C12 UNL     1      21.733   4.230  47.237  1.00  0.00     0.037 C 
HETATM   13  C13 UNL     1      21.808   3.219  48.160  1.00  0.00     0.021 C 
HETATM   14  C14 UNL     1      22.430   2.410  49.276  1.00  0.00     0.013 C 
HETATM   15 CL1  UNL     1      21.438   1.078  49.777  1.00  0.00    -0.089 Cl
HETATM   16  C15 UNL     1      23.580   2.635  49.845  1.00  0.00     0.028 C 
HETATM   17  C16 UNL     1      24.753   3.454  49.908  1.00  0.00    -0.036 C 
HETATM   18  C17 UNL     1      24.824   4.678  49.460  1.00  0.00     0.025 C 
HETATM   19  C18 UNL     1      25.916   5.461  48.937  1.00  0.00     0.019 A 
HETATM   20  C19 UNL     1      26.117   6.642  48.440  1.00  0.00     0.043 A 
HETATM   21  C20 UNL     1      27.554   6.724  48.091  1.00  0.00     0.032 A 
HETATM   22  C21 UNL     1      28.230   5.592  48.365  1.00  0.00     0.034 A 
HETATM   23  C22 UNL     1      27.170   4.737  48.922  1.00  0.00     0.064 A 
HETATM   24  N3  UNL     1      27.115   3.511  49.381  1.00  0.00    -0.284 NA
HETATM   25  C23 UNL     1      26.121   3.204  50.400  1.00  0.00     0.188 C 
HETATM   26  H16 UNL     1      21.583   7.389  44.565  1.00  0.00     0.260 HD
ENDROOT
BRANCH   1  27
HETATM   27  C2  UNL     1      25.487   8.698  49.285  1.00  0.00     0.192 C 
BRANCH  27  28
HETATM   28  C1  UNL     1      26.070  10.034  49.058  1.00  0.00     0.250 C 
HETATM   29  O1  UNL     1      27.092  10.290  49.706  1.00  0.00    -0.305 OA
ENDBRANCH  27  28
ENDBRANCH   1  27
TORSDOF 2
ENDMDL
MODEL 6
REMARK VINA RESULT:      -7.8      2.155      5.247
REMARK  2 active torsions:
REMARK  status: ('A' for Active; 'I' for Inactive)
REMARK    1  A    between atoms: C1_2  and  C2_3 
REMARK    2  A    between atoms: C2_3  and  N1_4 
ROOT
HETATM    1  N1  UNL     1      21.556   3.802  48.502  1.00  0.00    -0.373 N 
HETATM    2  C3  UNL     1      22.786   4.537  48.631  1.00  0.00     0.130 C 
HETATM    3  C4  UNL     1      22.874   5.407  49.823  1.00  0.00     0.033 C 
HETATM    4  C5  UNL     1      22.425   6.809  49.333  1.00  0.00     0.008 C 
HETATM    5  C6  UNL     1      23.618   7.698  49.075  1.00  0.00     0.001 C 
HETATM    6  C7  UNL     1      24.118   8.112  50.453  1.00  0.00     0.002 C 
HETATM    7  C8  UNL     1      24.325   6.857  51.219  1.00  0.00     0.032 C 
HETATM    8  C9  UNL     1      24.271   5.597  50.387  1.00  0.00     0.177 C 
HETATM    9  N2  UNL     1      24.566   4.526  51.409  1.00  0.00    -0.109 N 
HETATM   10  C10 UNL     1      24.310   3.342  52.241  1.00  0.00     0.577 C 
HETATM   11  C11 UNL     1      23.114   2.712  51.956  1.00  0.00     0.032 C 
HETATM   12  C12 UNL     1      23.202   1.593  52.961  1.00  0.00     0.037 C 
HETATM   13  C13 UNL     1      22.400   0.536  53.309  1.00  0.00     0.021 C 
HETATM   14  C14 UNL     1      21.180  -0.355  53.237  1.00  0.00     0.013 C 
HETATM   15 CL1  UNL     1      21.239  -1.671  54.365  1.00  0.00    -0.089 Cl
HETATM   16  C15 UNL     1      20.162  -0.207  52.438  1.00  0.00     0.028 C 
HETATM   17  C16 UNL     1      19.549   0.562  51.397  1.00  0.00    -0.036 C 
HETATM   18  C17 UNL     1      20.192   1.369  50.598  1.00  0.00     0.025 C 
HETATM   19  C18 UNL     1      19.798   2.568  49.902  1.00  0.00     0.019 A 
HETATM   20  C19 UNL     1      20.327   3.461  49.124  1.00  0.00     0.043 A 
HETATM   21  C20 UNL     1      19.266   4.447  48.815  1.00  0.00     0.032 A 
HETATM   22  C21 UNL     1      18.092   4.163  49.410  1.00  0.00     0.034 A 
HETATM   23  C22 UNL     1      18.415   2.927  50.139  1.00  0.00     0.064 A 
HETATM   24  N3  UNL     1      17.754   2.119  50.931  1.00  0.00    -0.284 NA
HETATM   25  C23 UNL     1      18.148   0.718  50.963  1.00  0.00     0.188 C 
HETATM   26  H16 UNL     1      25.578   4.758  51.747  1.00  0.00     0.260 HD
ENDROOT
BRANCH   1  27
HETATM   27  C2  UNL     1      21.575   3.156  47.203  1.00  0.00     0.192 C 
BRANCH  27  28
HETATM   28  C1  UNL     1      21.857   4.047  46.061  1.00  0.00     0.250 C 
HETATM   29  O1  UNL     1      22.069   3.481  44.981  1.00  0.00    -0.305 OA
ENDBRANCH  27  28
ENDBRANCH   1  27
TORSDOF 2
ENDMDL
MODEL 7
REMARK VINA RESULT:      -7.7      2.582      4.826
REMARK  2 active torsions:
REMARK  status: ('A' for Active; 'I' for Inactive)
REMARK    1  A    between atoms: C1_2  and  C2_3 
REMARK    2  A    between atoms: C2_3  and  N1_4 
ROOT
HETATM    1  N1  UNL     1      21.724   3.262  49.122  1.00  0.00    -0.373 N 
HETATM    2  C3  UNL     1      22.379   4.276  48.340  1.00  0.00     0.130 C 
HETATM    3  C4  UNL     1      22.976   5.380  49.120  1.00  0.00     0.033 C 
HETATM    4  C5  UNL     1      21.898   6.495  49.134  1.00  0.00     0.008 C 
HETATM    5  C6  UNL     1      22.212   7.562  48.113  1.00  0.00     0.001 C 
HETATM    6  C7  UNL     1      23.353   8.373  48.715  1.00  0.00     0.002 C 
HETATM    7  C8  UNL     1      24.417   7.400  49.071  1.00  0.00     0.032 C 
HETATM    8  C9  UNL     1      24.213   6.013  48.508  1.00  0.00     0.177 C 
HETATM    9  N2  UNL     1      25.452   5.291  48.981  1.00  0.00    -0.109 N 
HETATM   10  C10 UNL     1      26.237   4.291  49.718  1.00  0.00     0.577 C 
HETATM   11  C11 UNL     1      25.463   3.349  50.369  1.00  0.00     0.032 C 
HETATM   12  C12 UNL     1      26.571   2.530  50.980  1.00  0.00     0.037 C 
HETATM   13  C13 UNL     1      26.626   1.415  51.777  1.00  0.00     0.021 C 
HETATM   14  C14 UNL     1      26.067   0.268  52.589  1.00  0.00     0.013 C 
HETATM   15 CL1  UNL     1      27.304  -0.719  53.301  1.00  0.00    -0.089 Cl
HETATM   16  C15 UNL     1      24.807  -0.007  52.772  1.00  0.00     0.028 C 
HETATM   17  C16 UNL     1      23.446   0.350  52.509  1.00  0.00    -0.036 C 
HETATM   18  C17 UNL     1      23.057   1.092  51.508  1.00  0.00     0.025 C 
HETATM   19  C18 UNL     1      21.936   1.983  51.334  1.00  0.00     0.019 A 
HETATM   20  C19 UNL     1      21.461   2.784  50.432  1.00  0.00     0.043 A 
HETATM   21  C20 UNL     1      20.241   3.400  51.003  1.00  0.00     0.032 A 
HETATM   22  C21 UNL     1      19.976   2.984  52.256  1.00  0.00     0.034 A 
HETATM   23  C22 UNL     1      21.084   2.048  52.503  1.00  0.00     0.064 A 
HETATM   24  N3  UNL     1      21.457   1.299  53.511  1.00  0.00    -0.284 NA
HETATM   25  C23 UNL     1      22.184   0.072  53.221  1.00  0.00     0.188 C 
HETATM   26  H16 UNL     1      26.269   5.824  48.491  1.00  0.00     0.260 HD
ENDROOT
BRANCH   1  27
HETATM   27  C2  UNL     1      21.050   2.371  48.196  1.00  0.00     0.192 C 
BRANCH  27  28
HETATM   28  C1  UNL     1      20.098   3.023  47.277  1.00  0.00     0.250 C 
HETATM   29  O1  UNL     1      18.915   3.016  47.639  1.00  0.00    -0.305 OA
ENDBRANCH  27  28
ENDBRANCH   1  27
TORSDOF 2
ENDMDL
MODEL 8
REMARK VINA RESULT:      -7.6      3.294      6.147
REMARK  2 active torsions:
REMARK  status: ('A' for Active; 'I' for Inactive)
REMARK    1  A    between atoms: C1_2  and  C2_3 
REMARK    2  A    between atoms: C2_3  and  N1_4 
ROOT
HETATM    1  N1  UNL     1      19.313   2.330  51.483  1.00  0.00    -0.373 N 
HETATM    2  C3  UNL     1      18.629   1.515  52.451  1.00  0.00     0.130 C 
HETATM    3  C4  UNL     1      18.783   0.057  52.263  1.00  0.00     0.033 C 
HETATM    4  C5  UNL     1      17.539  -0.379  51.445  1.00  0.00     0.008 C 
HETATM    5  C6  UNL     1      16.493  -0.996  52.341  1.00  0.00     0.001 C 
HETATM    6  C7  UNL     1      17.016  -2.387  52.675  1.00  0.00     0.002 C 
HETATM    7  C8  UNL     1      18.388  -2.201  53.213  1.00  0.00     0.032 C 
HETATM    8  C9  UNL     1      18.747  -0.769  53.536  1.00  0.00     0.177 C 
HETATM    9  N2  UNL     1      20.139  -0.909  54.102  1.00  0.00    -0.109 N 
HETATM   10  C10 UNL     1      21.595  -0.723  54.175  1.00  0.00     0.577 C 
HETATM   11  C11 UNL     1      22.094   0.135  53.214  1.00  0.00     0.032 C 
HETATM   12  C12 UNL     1      23.550   0.080  53.595  1.00  0.00     0.037 C 
HETATM   13  C13 UNL     1      24.700   0.658  53.119  1.00  0.00     0.021 C 
HETATM   14  C14 UNL     1      25.532   1.528  52.204  1.00  0.00     0.013 C 
HETATM   15 CL1  UNL     1      27.219   1.513  52.611  1.00  0.00    -0.089 Cl
HETATM   16  C15 UNL     1      25.095   2.236  51.203  1.00  0.00     0.028 C 
HETATM   17  C16 UNL     1      23.969   2.647  50.418  1.00  0.00    -0.036 C 
HETATM   18  C17 UNL     1      22.729   2.597  50.823  1.00  0.00     0.025 C 
HETATM   19  C18 UNL     1      21.481   2.433  50.119  1.00  0.00     0.019 A 
HETATM   20  C19 UNL     1      20.217   2.335  50.389  1.00  0.00     0.043 A 
HETATM   21  C20 UNL     1      19.513   2.156  49.098  1.00  0.00     0.032 A 
HETATM   22  C21 UNL     1      20.346   2.133  48.041  1.00  0.00     0.034 A 
HETATM   23  C22 UNL     1      21.656   2.311  48.686  1.00  0.00     0.064 A 
HETATM   24  N3  UNL     1      22.896   2.371  48.266  1.00  0.00    -0.284 NA
HETATM   25  C23 UNL     1      23.844   3.158  49.040  1.00  0.00     0.188 C 
HETATM   26  H16 UNL     1      19.998  -1.515  54.999  1.00  0.00     0.260 HD
ENDROOT
BRANCH   1  27
HETATM   27  C2  UNL     1      18.906   3.704  51.712  1.00  0.00     0.192 C 
BRANCH  27  28
HETATM   28  C1  UNL     1      17.496   4.003  51.395  1.00  0.00     0.250 C 
HETATM   29  O1  UNL     1      16.785   4.311  52.359  1.00  0.00    -0.305 OA
ENDBRANCH  27  28
ENDBRANCH   1  27
TORSDOF 2
ENDMDL
MODEL 9
REMARK VINA RESULT:      -7.5      1.865      2.535
REMARK  2 active torsions:
REMARK  status: ('A' for Active; 'I' for Inactive)
REMARK    1  A    between atoms: C1_2  and  C2_3 
REMARK    2  A    between atoms: C2_3  and  N1_4 
ROOT
HETATM    1  N1  UNL     1      21.959   3.975  50.808  1.00  0.00    -0.373 N 
HETATM    2  C3  UNL     1      21.280   4.497  49.652  1.00  0.00     0.130 C 
HETATM    3  C4  UNL     1      21.253   3.594  48.482  1.00  0.00     0.033 C 
HETATM    4  C5  UNL     1      22.461   4.026  47.610  1.00  0.00     0.008 C 
HETATM    5  C6  UNL     1      22.013   4.898  46.461  1.00  0.00     0.001 C 
HETATM    6  C7  UNL     1      21.368   3.947  45.461  1.00  0.00     0.002 C 
HETATM    7  C8  UNL     1      20.339   3.182  46.212  1.00  0.00     0.032 C 
HETATM    8  C9  UNL     1      20.033   3.726  47.588  1.00  0.00     0.177 C 
HETATM    9  N2  UNL     1      18.941   2.798  48.062  1.00  0.00    -0.109 N 
HETATM   10  C10 UNL     1      18.302   1.783  48.911  1.00  0.00     0.577 C 
HETATM   11  C11 UNL     1      19.053   1.430  50.015  1.00  0.00     0.032 C 
HETATM   12  C12 UNL     1      18.111   0.420  50.617  1.00  0.00     0.037 C 
HETATM   13  C13 UNL     1      18.132  -0.384  51.729  1.00  0.00     0.021 C 
HETATM   14  C14 UNL     1      18.708  -0.973  52.997  1.00  0.00     0.013 C 
HETATM   15 CL1  UNL     1      17.652  -2.132  53.740  1.00  0.00    -0.089 Cl
HETATM   16  C15 UNL     1      19.862  -0.685  53.528  1.00  0.00     0.028 C 
HETATM   17  C16 UNL     1      21.069   0.080  53.444  1.00  0.00    -0.036 C 
HETATM   18  C17 UNL     1      21.199   1.182  52.757  1.00  0.00     0.025 C 
HETATM   19  C18 UNL     1      22.330   1.795  52.105  1.00  0.00     0.019 A 
HETATM   20  C19 UNL     1      22.588   2.840  51.382  1.00  0.00     0.043 A 
HETATM   21  C20 UNL     1      24.030   2.788  51.049  1.00  0.00     0.032 A 
HETATM   22  C21 UNL     1      24.652   1.709  51.560  1.00  0.00     0.034 A 
HETATM   23  C22 UNL     1      23.551   1.031  52.261  1.00  0.00     0.064 A 
HETATM   24  N3  UNL     1      23.436  -0.072  52.959  1.00  0.00    -0.284 NA
HETATM   25  C23 UNL     1      22.421  -0.122  54.000  1.00  0.00     0.188 C 
HETATM   26  H16 UNL     1      18.127   2.970  47.356  1.00  0.00     0.260 HD
ENDROOT
BRANCH   1  27
HETATM   27  C2  UNL     1      22.044   5.050  51.780  1.00  0.00     0.192 C 
BRANCH  27  28
HETATM   28  C1  UNL     1      22.538   6.336  51.252  1.00  0.00     0.250 C 
HETATM   29  O1  UNL     1      21.722   7.266  51.258  1.00  0.00    -0.305 OA
ENDBRANCH  27  28
ENDBRANCH   1  27
TORSDOF 2
ENDMDL
