MODEL 1
REMARK VINA RESULT:      -7.3      0.000      0.000
REMARK  10 active torsions:
REMARK  status: ('A' for Active; 'I' for Inactive)
REMARK    1  A    between atoms: N1_2  and  C2_3 
REMARK       I    between atoms: N1_2  and  C16_23 
REMARK    2  A    between atoms: C2_3  and  C3_4 
REMARK    3  A    between atoms: C3_4  and  C4_5 
REMARK    4  A    between atoms: C6_9  and  N4_10 
REMARK    5  A    between atoms: N4_10  and  C7_11 
REMARK    6  A    between atoms: C13_18  and  C14_19 
REMARK    7  A    between atoms: C14_19  and  C15_20 
REMARK    8  A    between atoms: C15_20  and  N5_21 
REMARK    9  A    between atoms: C16_23  and  O2_25 
REMARK   10  A    between atoms: O2_25  and  C17_26 
ROOT
HETATM    1  C4  UNL     1      23.877  -0.021  53.475  1.00  0.00     0.069 A 
HETATM    2  N2  UNL     1      23.517  -0.957  54.365  1.00  0.00    -0.241 NA
HETATM    3  C5  UNL     1      22.307  -1.122  54.852  1.00  0.00     0.235 A 
HETATM    4  N3  UNL     1      21.398  -0.269  54.398  1.00  0.00    -0.224 NA
HETATM    5  C6  UNL     1      21.604   0.709  53.517  1.00  0.00     0.141 A 
HETATM    6  C13 UNL     1      22.873   0.861  53.024  1.00  0.00     0.036 A 
ENDROOT
BRANCH   1   7
HETATM    7  C3  UNL     1      25.114   0.134  52.994  1.00  0.00     0.025 C 
BRANCH   7   8
HETATM    8  C2  UNL     1      26.451  -0.019  52.479  1.00  0.00     0.157 C 
BRANCH   8   9
HETATM    9  N1  UNL     1      27.127   1.287  52.352  1.00  0.00    -0.329 N 
HETATM   10  C1  UNL     1      26.670   2.309  51.427  1.00  0.00     0.155 C 
HETATM   11  C16 UNL     1      28.250   1.546  53.158  1.00  0.00     0.363 C 
HETATM   12  O1  UNL     1      28.859   2.636  53.097  1.00  0.00    -0.238 OA
BRANCH  11  13
HETATM   13  O2  UNL     1      28.780   0.648  54.074  1.00  0.00    -0.289 OA
BRANCH  13  14
HETATM   14  C17 UNL     1      29.933  -0.109  53.671  1.00  0.00     0.295 C 
HETATM   15 CL2  UNL     1      29.385  -1.790  53.343  1.00  0.00    -0.101 Cl
ENDBRANCH  13  14
ENDBRANCH  11  13
ENDBRANCH   8   9
ENDBRANCH   7   8
ENDBRANCH   1   7
BRANCH   6  16
HETATM   16  C14 UNL     1      22.993   1.823  52.159  1.00  0.00     0.014 C 
BRANCH  16  17
HETATM   17  C15 UNL     1      22.998   3.260  51.933  1.00  0.00     0.201 C 
BRANCH  17  18
HETATM   18  N5  UNL     1      23.820   3.905  52.919  1.00  0.00    -0.197 NA
HETATM   19  N6  UNL     1      23.730   5.140  53.015  1.00  0.00    -0.208 NA
HETATM   20  H16 UNL     1      23.100   5.729  52.428  1.00  0.00     0.211 HD
ENDBRANCH  17  18
ENDBRANCH  16  17
ENDBRANCH   6  16
BRANCH   5  21
HETATM   21  N4  UNL     1      20.408   1.425  53.261  1.00  0.00    -0.340 N 
HETATM   22  H8  UNL     1      19.872   2.199  53.703  1.00  0.00     0.167 HD
BRANCH  21  23
HETATM   23  C7  UNL     1      19.567   1.179  52.145  1.00  0.00     0.035 A 
HETATM   24  C8  UNL     1      18.767   0.047  52.196  1.00  0.00     0.029 A 
HETATM   25  C9  UNL     1      17.887  -0.291  51.192  1.00  0.00     0.004 A 
HETATM   26  C10 UNL     1      17.753   0.492  50.064  1.00  0.00     0.024 A 
HETATM   27  C11 UNL     1      18.535   1.619  49.991  1.00  0.00     0.036 A 
HETATM   28 CL1  UNL     1      18.502   2.733  48.636  1.00  0.00    -0.084 Cl
HETATM   29  C12 UNL     1      19.408   1.940  51.003  1.00  0.00     0.053 A 
ENDBRANCH  21  23
ENDBRANCH   5  21
TORSDOF 10
ENDMDL
MODEL 2
REMARK VINA RESULT:      -7.3      1.717      3.176
REMARK  10 active torsions:
REMARK  status: ('A' for Active; 'I' for Inactive)
REMARK    1  A    between atoms: N1_2  and  C2_3 
REMARK       I    between atoms: N1_2  and  C16_23 
REMARK    2  A    between atoms: C2_3  and  C3_4 
REMARK    3  A    between atoms: C3_4  and  C4_5 
REMARK    4  A    between atoms: C6_9  and  N4_10 
REMARK    5  A    between atoms: N4_10  and  C7_11 
REMARK    6  A    between atoms: C13_18  and  C14_19 
REMARK    7  A    between atoms: C14_19  and  C15_20 
REMARK    8  A    between atoms: C15_20  and  N5_21 
REMARK    9  A    between atoms: C16_23  and  O2_25 
REMARK   10  A    between atoms: O2_25  and  C17_26 
ROOT
HETATM    1  C4  UNL     1      24.315   1.303  52.169  1.00  0.00     0.069 A 
HETATM    2  N2  UNL     1      24.155   2.516  51.619  1.00  0.00    -0.241 NA
HETATM    3  C5  UNL     1      23.028   3.192  51.579  1.00  0.00     0.235 A 
HETATM    4  N3  UNL     1      21.989   2.586  52.139  1.00  0.00    -0.224 NA
HETATM    5  C6  UNL     1      21.994   1.388  52.721  1.00  0.00     0.141 A 
HETATM    6  C13 UNL     1      23.180   0.703  52.752  1.00  0.00     0.036 A 
ENDROOT
BRANCH   1   7
HETATM    7  C3  UNL     1      25.469   0.629  52.198  1.00  0.00     0.025 C 
BRANCH   7   8
HETATM    8  C2  UNL     1      26.800   0.132  52.432  1.00  0.00     0.157 C 
BRANCH   8   9
HETATM    9  N1  UNL     1      27.627   1.131  53.137  1.00  0.00    -0.329 N 
HETATM   10  C1  UNL     1      27.557   2.549  52.834  1.00  0.00     0.155 C 
HETATM   11  C16 UNL     1      28.511   0.688  54.138  1.00  0.00     0.363 C 
HETATM   12  O1  UNL     1      29.231   1.489  54.773  1.00  0.00    -0.238 OA
BRANCH  11  13
HETATM   13  O2  UNL     1      28.667  -0.639  54.514  1.00  0.00    -0.289 OA
BRANCH  13  14
HETATM   14  C17 UNL     1      29.697  -1.397  53.858  1.00  0.00     0.295 C 
HETATM   15 CL2  UNL     1      28.901  -2.780  53.030  1.00  0.00    -0.101 Cl
ENDBRANCH  13  14
ENDBRANCH  11  13
ENDBRANCH   8   9
ENDBRANCH   7   8
ENDBRANCH   1   7
BRANCH   6  16
HETATM   16  C14 UNL     1      23.111  -0.449  53.349  1.00  0.00     0.014 C 
BRANCH  16  17
HETATM   17  C15 UNL     1      23.164  -1.167  54.613  1.00  0.00     0.201 C 
BRANCH  17  18
HETATM   18  N5  UNL     1      21.897  -1.071  55.281  1.00  0.00    -0.197 NA
HETATM   19  N6  UNL     1      20.954  -1.730  54.811  1.00  0.00    -0.208 NA
HETATM   20  H16 UNL     1      21.029  -2.340  53.969  1.00  0.00     0.211 HD
ENDBRANCH  17  18
ENDBRANCH  16  17
ENDBRANCH   6  16
BRANCH   5  21
HETATM   21  N4  UNL     1      20.707   1.054  53.213  1.00  0.00    -0.340 N 
HETATM   22  H8  UNL     1      20.228   1.021  54.135  1.00  0.00     0.167 HD
BRANCH  21  23
HETATM   23  C7  UNL     1      19.634   0.632  52.387  1.00  0.00     0.035 A 
HETATM   24  C8  UNL     1      19.617   1.108  51.084  1.00  0.00     0.029 A 
HETATM   25  C9  UNL     1      18.647   0.753  50.172  1.00  0.00     0.004 A 
HETATM   26  C10 UNL     1      17.626  -0.110  50.513  1.00  0.00     0.024 A 
HETATM   27  C11 UNL     1      17.622  -0.595  51.799  1.00  0.00     0.036 A 
HETATM   28 CL1  UNL     1      16.406  -1.700  52.412  1.00  0.00    -0.084 Cl
HETATM   29  C12 UNL     1      18.598  -0.229  52.695  1.00  0.00     0.053 A 
ENDBRANCH  21  23
ENDBRANCH   5  21
TORSDOF 10
ENDMDL
MODEL 3
REMARK VINA RESULT:      -7.2      3.947      8.669
REMARK  10 active torsions:
REMARK  status: ('A' for Active; 'I' for Inactive)
REMARK    1  A    between atoms: N1_2  and  C2_3 
REMARK       I    between atoms: N1_2  and  C16_23 
REMARK    2  A    between atoms: C2_3  and  C3_4 
REMARK    3  A    between atoms: C3_4  and  C4_5 
REMARK    4  A    between atoms: C6_9  and  N4_10 
REMARK    5  A    between atoms: N4_10  and  C7_11 
REMARK    6  A    between atoms: C13_18  and  C14_19 
REMARK    7  A    between atoms: C14_19  and  C15_20 
REMARK    8  A    between atoms: C15_20  and  N5_21 
REMARK    9  A    between atoms: C16_23  and  O2_25 
REMARK   10  A    between atoms: O2_25  and  C17_26 
ROOT
HETATM    1  C4  UNL     1      22.654   1.795  52.175  1.00  0.00     0.069 A 
HETATM    2  N2  UNL     1      23.507   2.486  51.405  1.00  0.00    -0.241 NA
HETATM    3  C5  UNL     1      24.796   2.253  51.297  1.00  0.00     0.235 A 
HETATM    4  N3  UNL     1      25.248   1.243  52.029  1.00  0.00    -0.224 NA
HETATM    5  C6  UNL     1      24.527   0.470  52.837  1.00  0.00     0.141 A 
HETATM    6  C13 UNL     1      23.185   0.730  52.933  1.00  0.00     0.036 A 
ENDROOT
BRANCH   1   7
HETATM    7  C3  UNL     1      21.345   2.047  52.275  1.00  0.00     0.025 C 
BRANCH   7   8
HETATM    8  C2  UNL     1      20.031   2.623  52.396  1.00  0.00     0.157 C 
BRANCH   8   9
HETATM    9  N1  UNL     1      19.569   3.178  51.109  1.00  0.00    -0.329 N 
HETATM   10  C1  UNL     1      20.373   3.109  49.902  1.00  0.00     0.155 C 
HETATM   11  C16 UNL     1      18.305   3.792  51.054  1.00  0.00     0.363 C 
HETATM   12  O1  UNL     1      17.860   4.274  49.990  1.00  0.00    -0.238 OA
BRANCH  11  13
HETATM   13  O2  UNL     1      17.448   3.920  52.139  1.00  0.00    -0.289 OA
BRANCH  13  14
HETATM   14  C17 UNL     1      16.055   3.644  51.921  1.00  0.00     0.295 C 
HETATM   15 CL2  UNL     1      15.155   4.256  53.352  1.00  0.00    -0.101 Cl
ENDBRANCH  13  14
ENDBRANCH  11  13
ENDBRANCH   8   9
ENDBRANCH   7   8
ENDBRANCH   1   7
BRANCH   6  16
HETATM   16  C14 UNL     1      22.544  -0.075  53.727  1.00  0.00     0.014 C 
BRANCH  16  17
HETATM   17  C15 UNL     1      21.941  -1.387  53.898  1.00  0.00     0.201 C 
BRANCH  17  18
HETATM   18  N5  UNL     1      22.097  -1.821  55.258  1.00  0.00    -0.197 NA
HETATM   19  N6  UNL     1      23.223  -1.699  55.770  1.00  0.00    -0.208 NA
HETATM   20  H16 UNL     1      24.051  -1.305  55.274  1.00  0.00     0.211 HD
ENDBRANCH  17  18
ENDBRANCH  16  17
ENDBRANCH   6  16
BRANCH   5  21
HETATM   21  N4  UNL     1      25.336  -0.512  53.462  1.00  0.00    -0.340 N 
HETATM   22  H8  UNL     1      25.197  -1.428  53.934  1.00  0.00     0.167 HD
BRANCH  21  23
HETATM   23  C7  UNL     1      26.746  -0.412  53.576  1.00  0.00     0.035 A 
HETATM   24  C8  UNL     1      27.494  -1.479  53.099  1.00  0.00     0.029 A 
HETATM   25  C9  UNL     1      28.871  -1.496  53.124  1.00  0.00     0.004 A 
HETATM   26  C10 UNL     1      29.590  -0.435  53.634  1.00  0.00     0.024 A 
HETATM   27  C11 UNL     1      28.872   0.633  54.113  1.00  0.00     0.036 A 
HETATM   28 CL1  UNL     1      29.612   2.069  54.797  1.00  0.00    -0.084 Cl
HETATM   29  C12 UNL     1      27.498   0.632  54.079  1.00  0.00     0.053 A 
ENDBRANCH  21  23
ENDBRANCH   5  21
TORSDOF 10
ENDMDL
MODEL 4
REMARK VINA RESULT:      -7.2      3.376      8.104
REMARK  10 active torsions:
REMARK  status: ('A' for Active; 'I' for Inactive)
REMARK    1  A    between atoms: N1_2  and  C2_3 
REMARK       I    between atoms: N1_2  and  C16_23 
REMARK    2  A    between atoms: C2_3  and  C3_4 
REMARK    3  A    between atoms: C3_4  and  C4_5 
REMARK    4  A    between atoms: C6_9  and  N4_10 
REMARK    5  A    between atoms: N4_10  and  C7_11 
REMARK    6  A    between atoms: C13_18  and  C14_19 
REMARK    7  A    between atoms: C14_19  and  C15_20 
REMARK    8  A    between atoms: C15_20  and  N5_21 
REMARK    9  A    between atoms: C16_23  and  O2_25 
REMARK   10  A    between atoms: O2_25  and  C17_26 
ROOT
HETATM    1  C4  UNL     1      24.245   2.970  50.007  1.00  0.00     0.069 A 
HETATM    2  N2  UNL     1      25.196   3.430  49.182  1.00  0.00    -0.241 NA
HETATM    3  C5  UNL     1      26.470   3.557  49.484  1.00  0.00     0.235 A 
HETATM    4  N3  UNL     1      26.795   3.187  50.715  1.00  0.00    -0.224 NA
HETATM    5  C6  UNL     1      25.965   2.713  51.642  1.00  0.00     0.141 A 
HETATM    6  C13 UNL     1      24.643   2.589  51.305  1.00  0.00     0.036 A 
ENDROOT
BRANCH   1   7
HETATM    7  C3  UNL     1      22.953   2.851  49.684  1.00  0.00     0.025 C 
BRANCH   7   8
HETATM    8  C2  UNL     1      21.527   2.977  49.527  1.00  0.00     0.157 C 
BRANCH   8   9
HETATM    9  N1  UNL     1      20.911   3.599  50.716  1.00  0.00    -0.329 N 
HETATM   10  C1  UNL     1      21.387   4.854  51.269  1.00  0.00     0.155 C 
HETATM   11  C16 UNL     1      19.823   2.950  51.328  1.00  0.00     0.363 C 
HETATM   12  O1  UNL     1      19.258   3.433  52.333  1.00  0.00    -0.238 OA
BRANCH  11  13
HETATM   13  O2  UNL     1      19.282   1.748  50.893  1.00  0.00    -0.289 OA
BRANCH  13  14
HETATM   14  C17 UNL     1      18.045   1.324  51.488  1.00  0.00     0.295 C 
HETATM   15 CL2  UNL     1      18.260  -0.380  52.020  1.00  0.00    -0.101 Cl
ENDBRANCH  13  14
ENDBRANCH  11  13
ENDBRANCH   8   9
ENDBRANCH   7   8
ENDBRANCH   1   7
BRANCH   6  16
HETATM   16  C14 UNL     1      23.898   2.105  52.253  1.00  0.00     0.014 C 
BRANCH  16  17
HETATM   17  C15 UNL     1      23.494   0.923  52.998  1.00  0.00     0.201 C 
BRANCH  17  18
HETATM   18  N5  UNL     1      22.091   0.683  52.809  1.00  0.00    -0.197 NA
HETATM   19  N6  UNL     1      21.752   0.059  51.789  1.00  0.00    -0.208 NA
HETATM   20  H16 UNL     1      22.420  -0.296  51.071  1.00  0.00     0.211 HD
ENDBRANCH  17  18
ENDBRANCH  16  17
ENDBRANCH   6  16
BRANCH   5  21
HETATM   21  N4  UNL     1      26.656   2.419  52.845  1.00  0.00    -0.340 N 
HETATM   22  H8  UNL     1      26.760   2.844  53.788  1.00  0.00     0.167 HD
BRANCH  21  23
HETATM   23  C7  UNL     1      27.481   1.279  53.020  1.00  0.00     0.035 A 
HETATM   24  C8  UNL     1      28.755   1.494  53.523  1.00  0.00     0.029 A 
HETATM   25  C9  UNL     1      29.644   0.470  53.767  1.00  0.00     0.004 A 
HETATM   26  C10 UNL     1      29.307  -0.844  53.519  1.00  0.00     0.024 A 
HETATM   27  C11 UNL     1      28.050  -1.083  53.020  1.00  0.00     0.036 A 
HETATM   28 CL1  UNL     1      27.445  -2.686  52.645  1.00  0.00    -0.084 Cl
HETATM   29  C12 UNL     1      27.176  -0.048  52.784  1.00  0.00     0.053 A 
ENDBRANCH  21  23
ENDBRANCH   5  21
TORSDOF 10
ENDMDL
MODEL 5
REMARK VINA RESULT:      -7.1      3.297      8.028
REMARK  10 active torsions:
REMARK  status: ('A' for Active; 'I' for Inactive)
REMARK    1  A    between atoms: N1_2  and  C2_3 
REMARK       I    between atoms: N1_2  and  C16_23 
REMARK    2  A    between atoms: C2_3  and  C3_4 
REMARK    3  A    between atoms: C3_4  and  C4_5 
REMARK    4  A    between atoms: C6_9  and  N4_10 
REMARK    5  A    between atoms: N4_10  and  C7_11 
REMARK    6  A    between atoms: C13_18  and  C14_19 
REMARK    7  A    between atoms: C14_19  and  C15_20 
REMARK    8  A    between atoms: C15_20  and  N5_21 
REMARK    9  A    between atoms: C16_23  and  O2_25 
REMARK   10  A    between atoms: O2_25  and  C17_26 
ROOT
HETATM    1  C4  UNL     1      22.738   1.773  52.187  1.00  0.00     0.069 A 
HETATM    2  N2  UNL     1      23.577   2.440  51.382  1.00  0.00    -0.241 NA
HETATM    3  C5  UNL     1      24.859   2.186  51.238  1.00  0.00     0.235 A 
HETATM    4  N3  UNL     1      25.318   1.179  51.969  1.00  0.00    -0.224 NA
HETATM    5  C6  UNL     1      24.610   0.427  52.810  1.00  0.00     0.141 A 
HETATM    6  C13 UNL     1      23.276   0.710  52.943  1.00  0.00     0.036 A 
ENDROOT
BRANCH   1   7
HETATM    7  C3  UNL     1      21.437   2.047  52.323  1.00  0.00     0.025 C 
BRANCH   7   8
HETATM    8  C2  UNL     1      20.101   2.582  52.270  1.00  0.00     0.157 C 
BRANCH   8   9
HETATM    9  N1  UNL     1      19.771   3.064  50.914  1.00  0.00    -0.329 N 
HETATM   10  C1  UNL     1      19.026   2.258  49.965  1.00  0.00     0.155 C 
HETATM   11  C16 UNL     1      20.195   4.350  50.535  1.00  0.00     0.363 C 
HETATM   12  O1  UNL     1      19.940   4.813  49.402  1.00  0.00    -0.238 OA
BRANCH  11  13
HETATM   13  O2  UNL     1      20.915   5.211  51.353  1.00  0.00    -0.289 OA
BRANCH  13  14
HETATM   14  C17 UNL     1      22.163   5.715  50.849  1.00  0.00     0.295 C 
HETATM   15 CL2  UNL     1      21.996   7.498  50.685  1.00  0.00    -0.101 Cl
ENDBRANCH  13  14
ENDBRANCH  11  13
ENDBRANCH   8   9
ENDBRANCH   7   8
ENDBRANCH   1   7
BRANCH   6  16
HETATM   16  C14 UNL     1      22.647  -0.074  53.767  1.00  0.00     0.014 C 
BRANCH  16  17
HETATM   17  C15 UNL     1      22.023  -1.372  53.971  1.00  0.00     0.201 C 
BRANCH  17  18
HETATM   18  N5  UNL     1      22.170  -1.773  55.342  1.00  0.00    -0.197 NA
HETATM   19  N6  UNL     1      23.311  -1.717  55.832  1.00  0.00    -0.208 NA
HETATM   20  H16 UNL     1      24.156  -1.399  55.311  1.00  0.00     0.211 HD
ENDBRANCH  17  18
ENDBRANCH  16  17
ENDBRANCH   6  16
BRANCH   5  21
HETATM   21  N4  UNL     1      25.423  -0.559  53.423  1.00  0.00    -0.340 N 
HETATM   22  H8  UNL     1      25.289  -1.488  53.871  1.00  0.00     0.167 HD
BRANCH  21  23
HETATM   23  C7  UNL     1      26.830  -0.444  53.560  1.00  0.00     0.035 A 
HETATM   24  C8  UNL     1      27.596  -1.505  53.098  1.00  0.00     0.029 A 
HETATM   25  C9  UNL     1      28.973  -1.507  53.146  1.00  0.00     0.004 A 
HETATM   26  C10 UNL     1      29.673  -0.437  53.665  1.00  0.00     0.024 A 
HETATM   27  C11 UNL     1      28.935   0.625  54.128  1.00  0.00     0.036 A 
HETATM   28 CL1  UNL     1      29.649   2.071  54.820  1.00  0.00    -0.084 Cl
HETATM   29  C12 UNL     1      27.562   0.610  54.072  1.00  0.00     0.053 A 
ENDBRANCH  21  23
ENDBRANCH   5  21
TORSDOF 10
ENDMDL
MODEL 6
REMARK VINA RESULT:      -7.1      3.663      7.667
REMARK  10 active torsions:
REMARK  status: ('A' for Active; 'I' for Inactive)
REMARK    1  A    between atoms: N1_2  and  C2_3 
REMARK       I    between atoms: N1_2  and  C16_23 
REMARK    2  A    between atoms: C2_3  and  C3_4 
REMARK    3  A    between atoms: C3_4  and  C4_5 
REMARK    4  A    between atoms: C6_9  and  N4_10 
REMARK    5  A    between atoms: N4_10  and  C7_11 
REMARK    6  A    between atoms: C13_18  and  C14_19 
REMARK    7  A    between atoms: C14_19  and  C15_20 
REMARK    8  A    between atoms: C15_20  and  N5_21 
REMARK    9  A    between atoms: C16_23  and  O2_25 
REMARK   10  A    between atoms: O2_25  and  C17_26 
ROOT
HETATM    1  C4  UNL     1      22.685   1.910  52.558  1.00  0.00     0.069 A 
HETATM    2  N2  UNL     1      22.408   0.841  53.319  1.00  0.00    -0.241 NA
HETATM    3  C5  UNL     1      23.223  -0.166  53.545  1.00  0.00     0.235 A 
HETATM    4  N3  UNL     1      24.405  -0.076  52.951  1.00  0.00    -0.224 NA
HETATM    5  C6  UNL     1      24.823   0.918  52.170  1.00  0.00     0.141 A 
HETATM    6  C13 UNL     1      23.957   1.957  51.949  1.00  0.00     0.036 A 
ENDROOT
BRANCH   1   7
HETATM    7  C3  UNL     1      21.843   2.923  52.336  1.00  0.00     0.025 C 
BRANCH   7   8
HETATM    8  C2  UNL     1      20.731   3.783  52.022  1.00  0.00     0.157 C 
BRANCH   8   9
HETATM    9  N1  UNL     1      21.079   4.738  50.952  1.00  0.00    -0.329 N 
HETATM   10  C1  UNL     1      21.994   5.844  51.168  1.00  0.00     0.155 C 
HETATM   11  C16 UNL     1      20.503   4.565  49.681  1.00  0.00     0.363 C 
HETATM   12  O1  UNL     1      20.766   5.339  48.735  1.00  0.00    -0.238 OA
BRANCH  11  13
HETATM   13  O2  UNL     1      19.615   3.549  49.355  1.00  0.00    -0.289 OA
BRANCH  13  14
HETATM   14  C17 UNL     1      20.015   2.619  48.335  1.00  0.00     0.295 C 
HETATM   15 CL2  UNL     1      21.569   1.883  48.860  1.00  0.00    -0.101 Cl
ENDBRANCH  13  14
ENDBRANCH  11  13
ENDBRANCH   8   9
ENDBRANCH   7   8
ENDBRANCH   1   7
BRANCH   6  16
HETATM   16  C14 UNL     1      24.439   2.897  51.192  1.00  0.00     0.014 C 
BRANCH  16  17
HETATM   17  C15 UNL     1      24.812   3.299  49.845  1.00  0.00     0.201 C 
BRANCH  17  18
HETATM   18  N5  UNL     1      26.234   3.188  49.680  1.00  0.00    -0.197 NA
HETATM   19  N6  UNL     1      26.947   3.523  50.641  1.00  0.00    -0.208 NA
HETATM   20  H16 UNL     1      26.576   3.876  51.550  1.00  0.00     0.211 HD
ENDBRANCH  17  18
ENDBRANCH  16  17
ENDBRANCH   6  16
BRANCH   5  21
HETATM   21  N4  UNL     1      26.142   0.684  51.706  1.00  0.00    -0.340 N 
HETATM   22  H8  UNL     1      26.633   0.646  50.790  1.00  0.00     0.167 HD
BRANCH  21  23
HETATM   23  C7  UNL     1      27.241   0.416  52.562  1.00  0.00     0.035 A 
HETATM   24  C8  UNL     1      27.647  -0.905  52.670  1.00  0.00     0.029 A 
HETATM   25  C9  UNL     1      28.718  -1.296  53.444  1.00  0.00     0.004 A 
HETATM   26  C10 UNL     1      29.453  -0.377  54.164  1.00  0.00     0.024 A 
HETATM   27  C11 UNL     1      29.069   0.938  54.073  1.00  0.00     0.036 A 
HETATM   28 CL1  UNL     1      29.882   2.244  54.915  1.00  0.00    -0.084 Cl
HETATM   29  C12 UNL     1      27.998   1.309  53.295  1.00  0.00     0.053 A 
ENDBRANCH  21  23
ENDBRANCH   5  21
TORSDOF 10
ENDMDL
MODEL 7
REMARK VINA RESULT:      -7.0      3.282      8.160
REMARK  10 active torsions:
REMARK  status: ('A' for Active; 'I' for Inactive)
REMARK    1  A    between atoms: N1_2  and  C2_3 
REMARK       I    between atoms: N1_2  and  C16_23 
REMARK    2  A    between atoms: C2_3  and  C3_4 
REMARK    3  A    between atoms: C3_4  and  C4_5 
REMARK    4  A    between atoms: C6_9  and  N4_10 
REMARK    5  A    between atoms: N4_10  and  C7_11 
REMARK    6  A    between atoms: C13_18  and  C14_19 
REMARK    7  A    between atoms: C14_19  and  C15_20 
REMARK    8  A    between atoms: C15_20  and  N5_21 
REMARK    9  A    between atoms: C16_23  and  O2_25 
REMARK   10  A    between atoms: O2_25  and  C17_26 
ROOT
HETATM    1  C4  UNL     1      23.206   1.742  51.060  1.00  0.00     0.069 A 
HETATM    2  N2  UNL     1      23.955   2.568  50.316  1.00  0.00    -0.241 NA
HETATM    3  C5  UNL     1      25.165   2.981  50.619  1.00  0.00     0.235 A 
HETATM    4  N3  UNL     1      25.646   2.518  51.765  1.00  0.00    -0.224 NA
HETATM    5  C6  UNL     1      25.024   1.695  52.607  1.00  0.00     0.141 A 
HETATM    6  C13 UNL     1      23.764   1.277  52.270  1.00  0.00     0.036 A 
ENDROOT
BRANCH   1   7
HETATM    7  C3  UNL     1      21.974   1.335  50.738  1.00  0.00     0.025 C 
BRANCH   7   8
HETATM    8  C2  UNL     1      20.658   1.141  50.186  1.00  0.00     0.157 C 
BRANCH   8   9
HETATM    9  N1  UNL     1      19.610   1.478  51.169  1.00  0.00    -0.329 N 
HETATM   10  C1  UNL     1      19.115   0.514  52.135  1.00  0.00     0.155 C 
HETATM   11  C16 UNL     1      19.078   2.780  51.168  1.00  0.00     0.363 C 
HETATM   12  O1  UNL     1      18.194   3.124  51.981  1.00  0.00    -0.238 OA
BRANCH  11  13
HETATM   13  O2  UNL     1      19.469   3.785  50.293  1.00  0.00    -0.289 OA
BRANCH  13  14
HETATM   14  C17 UNL     1      20.383   4.777  50.788  1.00  0.00     0.295 C 
HETATM   15 CL2  UNL     1      21.672   4.984  49.552  1.00  0.00    -0.101 Cl
ENDBRANCH  13  14
ENDBRANCH  11  13
ENDBRANCH   8   9
ENDBRANCH   7   8
ENDBRANCH   1   7
BRANCH   6  16
HETATM   16  C14 UNL     1      23.226   0.465  53.130  1.00  0.00     0.014 C 
BRANCH  16  17
HETATM   17  C15 UNL     1      22.829  -0.903  53.425  1.00  0.00     0.201 C 
BRANCH  17  18
HETATM   18  N5  UNL     1      22.344  -0.990  54.773  1.00  0.00    -0.197 NA
HETATM   19  N6  UNL     1      21.195  -1.434  54.938  1.00  0.00    -0.208 NA
HETATM   20  H16 UNL     1      20.571  -1.743  54.162  1.00  0.00     0.211 HD
ENDBRANCH  17  18
ENDBRANCH  16  17
ENDBRANCH   6  16
BRANCH   5  21
HETATM   21  N4  UNL     1      25.835   1.407  53.733  1.00  0.00    -0.340 N 
HETATM   22  H8  UNL     1      25.795   1.557  54.761  1.00  0.00     0.167 HD
BRANCH  21  23
HETATM   23  C7  UNL     1      27.079   0.730  53.655  1.00  0.00     0.035 A 
HETATM   24  C8  UNL     1      28.219   1.472  53.929  1.00  0.00     0.029 A 
HETATM   25  C9  UNL     1      29.485   0.928  53.915  1.00  0.00     0.004 A 
HETATM   26  C10 UNL     1      29.688  -0.404  53.622  1.00  0.00     0.024 A 
HETATM   27  C11 UNL     1      28.574  -1.160  53.347  1.00  0.00     0.036 A 
HETATM   28 CL1  UNL     1      28.636  -2.868  52.954  1.00  0.00    -0.084 Cl
HETATM   29  C12 UNL     1      27.319  -0.600  53.366  1.00  0.00     0.053 A 
ENDBRANCH  21  23
ENDBRANCH   5  21
TORSDOF 10
ENDMDL
MODEL 8
REMARK VINA RESULT:      -6.9      1.809      3.175
REMARK  10 active torsions:
REMARK  status: ('A' for Active; 'I' for Inactive)
REMARK    1  A    between atoms: N1_2  and  C2_3 
REMARK       I    between atoms: N1_2  and  C16_23 
REMARK    2  A    between atoms: C2_3  and  C3_4 
REMARK    3  A    between atoms: C3_4  and  C4_5 
REMARK    4  A    between atoms: C6_9  and  N4_10 
REMARK    5  A    between atoms: N4_10  and  C7_11 
REMARK    6  A    between atoms: C13_18  and  C14_19 
REMARK    7  A    between atoms: C14_19  and  C15_20 
REMARK    8  A    between atoms: C15_20  and  N5_21 
REMARK    9  A    between atoms: C16_23  and  O2_25 
REMARK   10  A    between atoms: O2_25  and  C17_26 
ROOT
HETATM    1  C4  UNL     1      23.204   1.111  51.721  1.00  0.00     0.069 A 
HETATM    2  N2  UNL     1      23.160   1.833  50.592  1.00  0.00    -0.241 NA
HETATM    3  C5  UNL     1      22.105   1.975  49.820  1.00  0.00     0.235 A 
HETATM    4  N3  UNL     1      21.018   1.335  50.228  1.00  0.00    -0.224 NA
HETATM    5  C6  UNL     1      20.910   0.583  51.322  1.00  0.00     0.141 A 
HETATM    6  C13 UNL     1      22.021   0.449  52.112  1.00  0.00     0.036 A 
ENDROOT
BRANCH   1   7
HETATM    7  C3  UNL     1      24.286   0.974  52.493  1.00  0.00     0.025 C 
BRANCH   7   8
HETATM    8  C2  UNL     1      25.386   1.127  53.410  1.00  0.00     0.157 C 
BRANCH   8   9
HETATM    9  N1  UNL     1      26.509   1.851  52.783  1.00  0.00    -0.329 N 
HETATM   10  C1  UNL     1      26.375   2.533  51.509  1.00  0.00     0.155 C 
HETATM   11  C16 UNL     1      27.748   1.879  53.447  1.00  0.00     0.363 C 
HETATM   12  O1  UNL     1      28.732   2.481  52.966  1.00  0.00    -0.238 OA
BRANCH  11  13
HETATM   13  O2  UNL     1      27.998   1.262  54.666  1.00  0.00    -0.289 OA
BRANCH  13  14
HETATM   14  C17 UNL     1      28.905   0.148  54.672  1.00  0.00     0.295 C 
HETATM   15 CL2  UNL     1      28.416  -0.950  53.334  1.00  0.00    -0.101 Cl
ENDBRANCH  13  14
ENDBRANCH  11  13
ENDBRANCH   8   9
ENDBRANCH   7   8
ENDBRANCH   1   7
BRANCH   6  16
HETATM   16  C14 UNL     1      21.835  -0.285  53.168  1.00  0.00     0.014 C 
BRANCH  16  17
HETATM   17  C15 UNL     1      21.540  -0.312  54.592  1.00  0.00     0.201 C 
BRANCH  17  18
HETATM   18  N5  UNL     1      21.867  -1.601  55.133  1.00  0.00    -0.197 NA
HETATM   19  N6  UNL     1      22.960  -1.713  55.715  1.00  0.00    -0.208 NA
HETATM   20  H16 UNL     1      23.644  -0.935  55.830  1.00  0.00     0.211 HD
ENDBRANCH  17  18
ENDBRANCH  16  17
ENDBRANCH   6  16
BRANCH   5  21
HETATM   21  N4  UNL     1      19.602   0.050  51.448  1.00  0.00    -0.340 N 
HETATM   22  H8  UNL     1      19.167  -0.836  51.774  1.00  0.00     0.167 HD
BRANCH  21  23
HETATM   23  C7  UNL     1      18.426   0.760  51.094  1.00  0.00     0.035 A 
HETATM   24  C8  UNL     1      17.578   0.156  50.177  1.00  0.00     0.029 A 
HETATM   25  C9  UNL     1      16.391   0.725  49.770  1.00  0.00     0.004 A 
HETATM   26  C10 UNL     1      15.978   1.947  50.261  1.00  0.00     0.024 A 
HETATM   27  C11 UNL     1      16.802   2.565  51.171  1.00  0.00     0.036 A 
HETATM   28 CL1  UNL     1      16.444   4.118  51.902  1.00  0.00    -0.084 Cl
HETATM   29  C12 UNL     1      17.982   1.981  51.565  1.00  0.00     0.053 A 
ENDBRANCH  21  23
ENDBRANCH   5  21
TORSDOF 10
ENDMDL
MODEL 9
REMARK VINA RESULT:      -6.8      3.737      5.478
REMARK  10 active torsions:
REMARK  status: ('A' for Active; 'I' for Inactive)
REMARK    1  A    between atoms: N1_2  and  C2_3 
REMARK       I    between atoms: N1_2  and  C16_23 
REMARK    2  A    between atoms: C2_3  and  C3_4 
REMARK    3  A    between atoms: C3_4  and  C4_5 
REMARK    4  A    between atoms: C6_9  and  N4_10 
REMARK    5  A    between atoms: N4_10  and  C7_11 
REMARK    6  A    between atoms: C13_18  and  C14_19 
REMARK    7  A    between atoms: C14_19  and  C15_20 
REMARK    8  A    between atoms: C15_20  and  N5_21 
REMARK    9  A    between atoms: C16_23  and  O2_25 
REMARK   10  A    between atoms: O2_25  and  C17_26 
ROOT
HETATM    1  C4  UNL     1      26.277   3.078  50.449  1.00  0.00     0.069 A 
HETATM    2  N2  UNL     1      27.218   3.751  49.771  1.00  0.00    -0.241 NA
HETATM    3  C5  UNL     1      27.001   4.784  48.987  1.00  0.00     0.235 A 
HETATM    4  N3  UNL     1      25.732   5.157  48.888  1.00  0.00    -0.224 NA
HETATM    5  C6  UNL     1      24.693   4.590  49.497  1.00  0.00     0.141 A 
HETATM    6  C13 UNL     1      24.943   3.515  50.309  1.00  0.00     0.036 A 
ENDROOT
BRANCH   1   7
HETATM    7  C3  UNL     1      26.516   2.027  51.239  1.00  0.00     0.025 C 
BRANCH   7   8
HETATM    8  C2  UNL     1      26.645   0.729  51.850  1.00  0.00     0.157 C 
BRANCH   8   9
HETATM    9  N1  UNL     1      27.429   0.801  53.098  1.00  0.00    -0.329 N 
HETATM   10  C1  UNL     1      28.479   1.783  53.298  1.00  0.00     0.155 C 
HETATM   11  C16 UNL     1      27.144  -0.115  54.127  1.00  0.00     0.363 C 
HETATM   12  O1  UNL     1      27.771  -0.098  55.208  1.00  0.00    -0.238 OA
BRANCH  11  13
HETATM   13  O2  UNL     1      26.167  -1.099  54.051  1.00  0.00    -0.289 OA
BRANCH  13  14
HETATM   14  C17 UNL     1      24.948  -0.881  54.781  1.00  0.00     0.295 C 
HETATM   15 CL2  UNL     1      23.744  -0.209  53.628  1.00  0.00    -0.101 Cl
ENDBRANCH  13  14
ENDBRANCH  11  13
ENDBRANCH   8   9
ENDBRANCH   7   8
ENDBRANCH   1   7
BRANCH   6  16
HETATM   16  C14 UNL     1      23.884   3.025  50.881  1.00  0.00     0.014 C 
BRANCH  16  17
HETATM   17  C15 UNL     1      22.978   3.089  52.016  1.00  0.00     0.201 C 
BRANCH  17  18
HETATM   18  N5  UNL     1      22.065   4.185  51.850  1.00  0.00    -0.197 NA
HETATM   19  N6  UNL     1      22.423   5.294  52.282  1.00  0.00    -0.208 NA
HETATM   20  H16 UNL     1      23.336   5.472  52.753  1.00  0.00     0.211 HD
ENDBRANCH  17  18
ENDBRANCH  16  17
ENDBRANCH   6  16
BRANCH   5  21
HETATM   21  N4  UNL     1      23.482   5.248  49.162  1.00  0.00    -0.340 N 
HETATM   22  H8  UNL     1      22.807   5.886  49.629  1.00  0.00     0.167 HD
BRANCH  21  23
HETATM   23  C7  UNL     1      22.855   5.145  47.894  1.00  0.00     0.035 A 
HETATM   24  C8  UNL     1      22.334   3.906  47.548  1.00  0.00     0.029 A 
HETATM   25  C9  UNL     1      21.676   3.680  46.359  1.00  0.00     0.004 A 
HETATM   26  C10 UNL     1      21.499   4.689  45.436  1.00  0.00     0.024 A 
HETATM   27  C11 UNL     1      22.007   5.924  45.756  1.00  0.00     0.036 A 
HETATM   28 CL1  UNL     1      21.878   7.325  44.709  1.00  0.00    -0.084 Cl
HETATM   29  C12 UNL     1      22.660   6.132  46.948  1.00  0.00     0.053 A 
ENDBRANCH  21  23
ENDBRANCH   5  21
TORSDOF 10
ENDMDL
