MODEL 1
REMARK VINA RESULT:      -9.8      0.000      0.000
REMARK  5 active torsions:
REMARK  status: ('A' for Active; 'I' for Inactive)
REMARK    1  A    between atoms: C3_3  and  C4_4 
REMARK    2  A    between atoms: C4_4  and  C5_5 
REMARK    3  A    between atoms: C9_9  and  C10_10 
REMARK    4  A    between atoms: N3_18  and  C16_19 
REMARK    5  A    between atoms: C16_19  and  C17_20 
ROOT
HETATM    1  C10 UNL     1      22.853   3.683  51.372  1.00  0.00     0.085 A 
HETATM    2  C11 UNL     1      21.568   3.657  51.226  1.00  0.00     0.130 A 
HETATM    3  N1  UNL     1      21.500   2.515  51.837  1.00  0.00    -0.311 N 
HETATM    4  C12 UNL     1      20.069   2.287  51.782  1.00  0.00     0.117 A 
HETATM    5  C13 UNL     1      19.756   1.058  52.410  1.00  0.00     0.136 A 
HETATM    6  N2  UNL     1      20.901   0.496  52.857  1.00  0.00    -0.238 NA
HETATM    7  C14 UNL     1      21.933   1.333  52.530  1.00  0.00     0.180 A 
HETATM    8  C15 UNL     1      23.385   1.808  52.457  1.00  0.00     0.171 A 
HETATM    9  N3  UNL     1      23.742   0.682  53.090  1.00  0.00    -0.367 N 
HETATM   10  N5  UNL     1      24.005   2.972  51.906  1.00  0.00    -0.226 NA
HETATM   11  H12 UNL     1      24.828   0.853  52.932  1.00  0.00     0.161 HD
ENDROOT
BRANCH   1  12
HETATM   12  C9  UNL     1      23.876   4.690  50.807  1.00  0.00    -0.011 C 
HETATM   13  C8  UNL     1      25.068   3.960  50.075  1.00  0.00    -0.007 C 
HETATM   14  C7  UNL     1      26.045   4.811  49.680  1.00  0.00     0.058 C 
HETATM   15  C6  UNL     1      27.100   4.051  49.064  1.00  0.00     0.029 C 
HETATM   16  C5  UNL     1      27.614   5.359  48.851  1.00  0.00     0.010 C 
HETATM   17  N7  UNL     1      27.413   6.807  48.926  1.00  0.00    -0.316 N 
HETATM   18  C24 UNL     1      26.289   7.263  49.573  1.00  0.00     0.382 A 
HETATM   19  H23 UNL     1      27.476   7.799  48.866  1.00  0.00     0.169 HD
HETATM   20  N6  UNL     1      25.158   7.750  50.216  1.00  0.00     0.125 N 
HETATM   21  O1  UNL     1      25.480   6.709  50.334  1.00  0.00    -0.104 OA
HETATM   22  C23 UNL     1      24.110   7.479  51.170  1.00  0.00     0.311 C 
HETATM   23  H22 UNL     1      25.276   8.713  49.709  1.00  0.00     0.330 HD
HETATM   24  C22 UNL     1      23.718   6.029  51.120  1.00  0.00     0.017 C 
BRANCH  16  25
HETATM   25  C4  UNL     1      28.924   5.555  48.175  1.00  0.00     0.003 C 
BRANCH  25  26
HETATM   26  C3  UNL     1      30.234   5.538  47.803  1.00  0.00     0.015 A 
HETATM   27  C2  UNL     1      31.630   4.893  47.593  1.00  0.00    -0.002 A 
HETATM   28  C1  UNL     1      31.762   6.156  47.138  1.00  0.00     0.014 A 
ENDBRANCH  25  26
ENDBRANCH  16  25
ENDBRANCH   1  12
BRANCH   9  29
HETATM   29  C16 UNL     1      24.153  -0.521  53.768  1.00  0.00     0.160 C 
BRANCH  29  30
HETATM   30  C17 UNL     1      25.663  -0.626  53.721  1.00  0.00    -0.038 A 
HETATM   31  C18 UNL     1      26.402  -1.385  52.789  1.00  0.00     0.028 A 
HETATM   32  C19 UNL     1      27.756  -1.305  53.001  1.00  0.00     0.116 A 
HETATM   33  N4  UNL     1      28.343  -0.570  54.014  1.00  0.00    -0.273 NA
HETATM   34  C20 UNL     1      27.581   0.146  54.890  1.00  0.00     0.116 A 
HETATM   35  C21 UNL     1      26.233   0.095  54.709  1.00  0.00     0.028 A 
ENDBRANCH  29  30
ENDBRANCH   9  29
TORSDOF 5
ENDMDL
MODEL 2
REMARK VINA RESULT:      -9.7      3.263      8.745
REMARK  5 active torsions:
REMARK  status: ('A' for Active; 'I' for Inactive)
REMARK    1  A    between atoms: C3_3  and  C4_4 
REMARK    2  A    between atoms: C4_4  and  C5_5 
REMARK    3  A    between atoms: C9_9  and  C10_10 
REMARK    4  A    between atoms: N3_18  and  C16_19 
REMARK    5  A    between atoms: C16_19  and  C17_20 
ROOT
HETATM    1  C10 UNL     1      23.256   1.535  51.328  1.00  0.00     0.085 A 
HETATM    2  C11 UNL     1      23.295   2.403  50.369  1.00  0.00     0.130 A 
HETATM    3  N1  UNL     1      24.560   2.603  50.573  1.00  0.00    -0.311 N 
HETATM    4  C12 UNL     1      24.822   3.597  49.549  1.00  0.00     0.117 A 
HETATM    5  C13 UNL     1      26.186   3.974  49.588  1.00  0.00     0.136 A 
HETATM    6  N2  UNL     1      26.800   3.281  50.573  1.00  0.00    -0.238 NA
HETATM    7  C14 UNL     1      25.864   2.474  51.162  1.00  0.00     0.180 A 
HETATM    8  C15 UNL     1      25.330   1.431  52.144  1.00  0.00     0.171 A 
HETATM    9  N3  UNL     1      26.559   1.358  52.672  1.00  0.00    -0.367 N 
HETATM   10  N5  UNL     1      24.038   0.854  52.349  1.00  0.00    -0.226 NA
HETATM   11  H12 UNL     1      26.232   0.734  53.530  1.00  0.00     0.161 HD
ENDROOT
BRANCH   1  12
HETATM   12  C9  UNL     1      22.039   0.805  51.931  1.00  0.00    -0.011 C 
HETATM   13  C8  UNL     1      20.812   0.799  50.938  1.00  0.00    -0.007 C 
HETATM   14  C7  UNL     1      19.690   0.276  51.488  1.00  0.00     0.058 C 
HETATM   15  C6  UNL     1      18.623   0.352  50.525  1.00  0.00     0.029 C 
HETATM   16  C5  UNL     1      17.939  -0.338  51.563  1.00  0.00     0.010 C 
HETATM   17  N7  UNL     1      17.993  -1.011  52.863  1.00  0.00    -0.316 N 
HETATM   18  C24 UNL     1      19.165  -0.931  53.575  1.00  0.00     0.382 A 
HETATM   19  H23 UNL     1      17.812  -1.520  53.698  1.00  0.00     0.169 HD
HETATM   20  N6  UNL     1      20.342  -0.871  54.313  1.00  0.00     0.125 N 
HETATM   21  O1  UNL     1      20.164  -0.201  53.463  1.00  0.00    -0.104 OA
HETATM   22  C23 UNL     1      21.580  -0.166  54.542  1.00  0.00     0.311 C 
HETATM   23  H22 UNL     1      20.022  -1.735  54.904  1.00  0.00     0.330 HD
HETATM   24  C22 UNL     1      22.109   0.396  53.252  1.00  0.00     0.017 C 
BRANCH  16  25
HETATM   25  C4  UNL     1      16.509  -0.712  51.405  1.00  0.00     0.003 C 
BRANCH  25  26
HETATM   26  C3  UNL     1      15.324  -1.284  51.053  1.00  0.00     0.015 A 
HETATM   27  C2  UNL     1      13.808  -1.582  51.194  1.00  0.00    -0.002 A 
HETATM   28  C1  UNL     1      14.187  -2.245  50.082  1.00  0.00     0.014 A 
ENDBRANCH  25  26
ENDBRANCH  16  25
ENDBRANCH   1  12
BRANCH   9  29
HETATM   29  C16 UNL     1      27.872   1.262  53.258  1.00  0.00     0.160 C 
BRANCH  29  30
HETATM   30  C17 UNL     1      28.303  -0.190  53.275  1.00  0.00    -0.038 A 
HETATM   31  C18 UNL     1      29.571  -0.663  53.674  1.00  0.00     0.028 A 
HETATM   32  C19 UNL     1      29.681  -2.027  53.566  1.00  0.00     0.116 A 
HETATM   33  N4  UNL     1      28.672  -2.856  53.115  1.00  0.00    -0.273 NA
HETATM   34  C20 UNL     1      27.464  -2.346  52.740  1.00  0.00     0.116 A 
HETATM   35  C21 UNL     1      27.314  -0.997  52.837  1.00  0.00     0.028 A 
ENDBRANCH  29  30
ENDBRANCH   9  29
TORSDOF 5
ENDMDL
MODEL 3
REMARK VINA RESULT:      -9.3      3.108      7.246
REMARK  5 active torsions:
REMARK  status: ('A' for Active; 'I' for Inactive)
REMARK    1  A    between atoms: C3_3  and  C4_4 
REMARK    2  A    between atoms: C4_4  and  C5_5 
REMARK    3  A    between atoms: C9_9  and  C10_10 
REMARK    4  A    between atoms: N3_18  and  C16_19 
REMARK    5  A    between atoms: C16_19  and  C17_20 
ROOT
HETATM    1  C10 UNL     1      20.558   1.861  52.272  1.00  0.00     0.085 A 
HETATM    2  C11 UNL     1      19.299   1.619  52.099  1.00  0.00     0.130 A 
HETATM    3  N1  UNL     1      19.135   2.770  51.523  1.00  0.00    -0.311 N 
HETATM    4  C12 UNL     1      17.716   2.704  51.231  1.00  0.00     0.117 A 
HETATM    5  C13 UNL     1      17.305   3.892  50.581  1.00  0.00     0.136 A 
HETATM    6  N2  UNL     1      18.377   4.704  50.445  1.00  0.00    -0.238 NA
HETATM    7  C14 UNL     1      19.458   4.066  50.992  1.00  0.00     0.180 A 
HETATM    8  C15 UNL     1      20.918   3.885  51.404  1.00  0.00     0.171 A 
HETATM    9  N3  UNL     1      21.167   5.105  50.911  1.00  0.00    -0.367 N 
HETATM   10  N5  UNL     1      21.625   2.828  52.058  1.00  0.00    -0.226 NA
HETATM   11  H12 UNL     1      22.196   5.142  51.326  1.00  0.00     0.161 HD
ENDROOT
BRANCH   1  12
HETATM   12  C9  UNL     1      21.610   1.037  53.042  1.00  0.00    -0.011 C 
HETATM   13  C8  UNL     1      23.079   1.442  52.633  1.00  0.00    -0.007 C 
HETATM   14  C7  UNL     1      24.021   0.649  53.199  1.00  0.00     0.058 C 
HETATM   15  C6  UNL     1      25.318   1.068  52.736  1.00  0.00     0.029 C 
HETATM   16  C5  UNL     1      25.723   0.055  53.648  1.00  0.00     0.010 C 
HETATM   17  N7  UNL     1      25.357  -0.906  54.690  1.00  0.00    -0.316 N 
HETATM   18  C24 UNL     1      24.019  -1.102  54.936  1.00  0.00     0.382 A 
HETATM   19  H23 UNL     1      25.335  -1.590  55.413  1.00  0.00     0.169 HD
HETATM   20  N6  UNL     1      22.673  -1.313  55.211  1.00  0.00     0.125 N 
HETATM   21  O1  UNL     1      22.998  -0.798  54.299  1.00  0.00    -0.104 OA
HETATM   22  C23 UNL     1      21.319  -1.212  54.723  1.00  0.00     0.311 C 
HETATM   23  H22 UNL     1      22.933  -1.745  56.183  1.00  0.00     0.330 HD
HETATM   24  C22 UNL     1      21.169  -0.004  53.841  1.00  0.00     0.017 C 
BRANCH  16  25
HETATM   25  C4  UNL     1      27.163  -0.267  53.827  1.00  0.00     0.003 C 
BRANCH  25  26
HETATM   26  C3  UNL     1      28.472  -0.605  53.659  1.00  0.00     0.015 A 
HETATM   27  C2  UNL     1      29.649  -1.570  53.354  1.00  0.00    -0.002 A 
HETATM   28  C1  UNL     1      30.231  -0.369  53.555  1.00  0.00     0.014 A 
ENDBRANCH  25  26
ENDBRANCH  16  25
ENDBRANCH   1  12
BRANCH   9  29
HETATM   29  C16 UNL     1      21.460   6.416  50.390  1.00  0.00     0.160 C 
BRANCH  29  30
HETATM   30  C17 UNL     1      22.962   6.593  50.307  1.00  0.00    -0.038 A 
HETATM   31  C18 UNL     1      23.901   5.551  50.153  1.00  0.00     0.028 A 
HETATM   32  C19 UNL     1      25.195   6.010  50.128  1.00  0.00     0.116 A 
HETATM   33  N4  UNL     1      25.552   7.340  50.243  1.00  0.00    -0.273 NA
HETATM   34  C20 UNL     1      24.602   8.308  50.391  1.00  0.00     0.116 A 
HETATM   35  C21 UNL     1      23.307   7.893  50.416  1.00  0.00     0.028 A 
ENDBRANCH  29  30
ENDBRANCH   9  29
TORSDOF 5
ENDMDL
MODEL 4
REMARK VINA RESULT:      -9.2      2.998      9.075
REMARK  5 active torsions:
REMARK  status: ('A' for Active; 'I' for Inactive)
REMARK    1  A    between atoms: C3_3  and  C4_4 
REMARK    2  A    between atoms: C4_4  and  C5_5 
REMARK    3  A    between atoms: C9_9  and  C10_10 
REMARK    4  A    between atoms: N3_18  and  C16_19 
REMARK    5  A    between atoms: C16_19  and  C17_20 
ROOT
HETATM    1  C10 UNL     1      24.640   0.636  53.252  1.00  0.00     0.085 A 
HETATM    2  C11 UNL     1      25.576   0.256  54.060  1.00  0.00     0.130 A 
HETATM    3  N1  UNL     1      26.449   0.966  53.417  1.00  0.00    -0.311 N 
HETATM    4  C12 UNL     1      27.636   0.670  54.197  1.00  0.00     0.117 A 
HETATM    5  C13 UNL     1      28.747   1.360  53.659  1.00  0.00     0.136 A 
HETATM    6  N2  UNL     1      28.336   2.073  52.586  1.00  0.00    -0.238 NA
HETATM    7  C14 UNL     1      26.995   1.854  52.427  1.00  0.00     0.180 A 
HETATM    8  C15 UNL     1      25.616   2.002  51.783  1.00  0.00     0.171 A 
HETATM    9  N3  UNL     1      26.173   2.811  50.872  1.00  0.00    -0.367 N 
HETATM   10  N5  UNL     1      24.332   1.451  52.086  1.00  0.00    -0.226 NA
HETATM   11  H12 UNL     1      25.263   2.842  50.237  1.00  0.00     0.161 HD
ENDROOT
BRANCH   1  12
HETATM   12  C9  UNL     1      23.174   0.164  53.171  1.00  0.00    -0.011 C 
HETATM   13  C8  UNL     1      22.455   0.715  51.878  1.00  0.00    -0.007 C 
HETATM   14  C7  UNL     1      21.133   0.423  51.844  1.00  0.00     0.058 C 
HETATM   15  C6  UNL     1      20.562   0.999  50.655  1.00  0.00     0.029 C 
HETATM   16  C5  UNL     1      19.413   0.323  51.150  1.00  0.00     0.010 C 
HETATM   17  N7  UNL     1      18.831  -0.599  52.127  1.00  0.00    -0.316 N 
HETATM   18  C24 UNL     1      19.624  -1.006  53.173  1.00  0.00     0.382 A 
HETATM   19  H23 UNL     1      18.248  -1.204  52.660  1.00  0.00     0.169 HD
HETATM   20  N6  UNL     1      20.407  -1.437  54.237  1.00  0.00     0.125 N 
HETATM   21  O1  UNL     1      20.700  -0.579  53.621  1.00  0.00    -0.104 OA
HETATM   22  C23 UNL     1      21.561  -1.174  55.062  1.00  0.00     0.311 C 
HETATM   23  H22 UNL     1      19.730  -2.283  54.399  1.00  0.00     0.330 HD
HETATM   24  C22 UNL     1      22.645  -0.521  54.251  1.00  0.00     0.017 C 
BRANCH  16  25
HETATM   25  C4  UNL     1      18.117   0.409  50.427  1.00  0.00     0.003 C 
BRANCH  25  26
HETATM   26  C3  UNL     1      16.908   0.165  49.850  1.00  0.00     0.015 A 
HETATM   27  C2  UNL     1      15.713   0.461  48.905  1.00  0.00    -0.002 A 
HETATM   28  C1  UNL     1      15.408  -0.718  49.485  1.00  0.00     0.014 A 
ENDBRANCH  25  26
ENDBRANCH  16  25
ENDBRANCH   1  12
BRANCH   9  29
HETATM   29  C16 UNL     1      26.748   3.683  49.880  1.00  0.00     0.160 C 
BRANCH  29  30
HETATM   30  C17 UNL     1      25.666   4.588  49.327  1.00  0.00    -0.038 A 
HETATM   31  C18 UNL     1      24.296   4.264  49.238  1.00  0.00     0.028 A 
HETATM   32  C19 UNL     1      23.553   5.273  48.676  1.00  0.00     0.116 A 
HETATM   33  N4  UNL     1      24.077   6.475  48.239  1.00  0.00    -0.273 NA
HETATM   34  C20 UNL     1      25.412   6.736  48.347  1.00  0.00     0.116 A 
HETATM   35  C21 UNL     1      26.181   5.761  48.903  1.00  0.00     0.028 A 
ENDBRANCH  29  30
ENDBRANCH   9  29
TORSDOF 5
ENDMDL
MODEL 5
REMARK VINA RESULT:      -9.1      3.092      9.473
REMARK  5 active torsions:
REMARK  status: ('A' for Active; 'I' for Inactive)
REMARK    1  A    between atoms: C3_3  and  C4_4 
REMARK    2  A    between atoms: C4_4  and  C5_5 
REMARK    3  A    between atoms: C9_9  and  C10_10 
REMARK    4  A    between atoms: N3_18  and  C16_19 
REMARK    5  A    between atoms: C16_19  and  C17_20 
ROOT
HETATM    1  C10 UNL     1      24.235   1.401  52.760  1.00  0.00     0.085 A 
HETATM    2  C11 UNL     1      25.042   0.971  53.676  1.00  0.00     0.130 A 
HETATM    3  N1  UNL     1      26.046   1.547  53.092  1.00  0.00    -0.311 N 
HETATM    4  C12 UNL     1      27.112   1.172  54.001  1.00  0.00     0.117 A 
HETATM    5  C13 UNL     1      28.339   1.710  53.546  1.00  0.00     0.136 A 
HETATM    6  N2  UNL     1      28.114   2.400  52.406  1.00  0.00    -0.238 NA
HETATM    7  C14 UNL     1      26.778   2.315  52.122  1.00  0.00     0.180 A 
HETATM    8  C15 UNL     1      25.492   2.571  51.336  1.00  0.00     0.171 A 
HETATM    9  N3  UNL     1      26.220   3.264  50.450  1.00  0.00    -0.367 N 
HETATM   10  N5  UNL     1      24.132   2.177  51.533  1.00  0.00    -0.226 NA
HETATM   11  H12 UNL     1      25.384   3.354  49.725  1.00  0.00     0.161 HD
ENDROOT
BRANCH   1  12
HETATM   12  C9  UNL     1      22.740   1.083  52.553  1.00  0.00    -0.011 C 
HETATM   13  C8  UNL     1      22.276  -0.139  53.438  1.00  0.00    -0.007 C 
HETATM   14  C7  UNL     1      21.001  -0.521  53.183  1.00  0.00     0.058 C 
HETATM   15  C6  UNL     1      20.687  -1.660  54.004  1.00  0.00     0.029 C 
HETATM   16  C5  UNL     1      19.418  -1.468  53.393  1.00  0.00     0.010 C 
HETATM   17  N7  UNL     1      18.553  -0.650  52.541  1.00  0.00    -0.316 N 
HETATM   18  C24 UNL     1      19.128   0.404  51.872  1.00  0.00     0.382 A 
HETATM   19  H23 UNL     1      17.804  -0.242  52.028  1.00  0.00     0.169 HD
HETATM   20  N6  UNL     1      19.683   1.480  51.190  1.00  0.00     0.125 N 
HETATM   21  O1  UNL     1      20.311   0.703  51.642  1.00  0.00    -0.104 OA
HETATM   22  C23 UNL     1      20.889   2.076  50.668  1.00  0.00     0.311 C 
HETATM   23  H22 UNL     1      18.688   1.916  51.055  1.00  0.00     0.330 HD
HETATM   24  C22 UNL     1      22.056   1.767  51.562  1.00  0.00     0.017 C 
BRANCH  16  25
HETATM   25  C4  UNL     1      18.286  -2.382  53.700  1.00  0.00     0.003 C 
BRANCH  25  26
HETATM   26  C3  UNL     1      17.300  -3.321  53.668  1.00  0.00     0.015 A 
HETATM   27  C2  UNL     1      16.051  -4.032  53.081  1.00  0.00    -0.002 A 
HETATM   28  C1  UNL     1      16.369  -4.746  54.181  1.00  0.00     0.014 A 
ENDBRANCH  25  26
ENDBRANCH  16  25
ENDBRANCH   1  12
BRANCH   9  29
HETATM   29  C16 UNL     1      26.980   4.012  49.481  1.00  0.00     0.160 C 
BRANCH  29  30
HETATM   30  C17 UNL     1      26.144   5.173  48.984  1.00  0.00    -0.038 A 
HETATM   31  C18 UNL     1      26.647   6.421  48.558  1.00  0.00     0.028 A 
HETATM   32  C19 UNL     1      25.651   7.286  48.178  1.00  0.00     0.116 A 
HETATM   33  N4  UNL     1      24.303   6.984  48.208  1.00  0.00    -0.273 NA
HETATM   34  C20 UNL     1      23.870   5.761  48.631  1.00  0.00     0.116 A 
HETATM   35  C21 UNL     1      24.828   4.874  49.011  1.00  0.00     0.028 A 
ENDBRANCH  29  30
ENDBRANCH   9  29
TORSDOF 5
ENDMDL
MODEL 6
REMARK VINA RESULT:      -9.1      2.188      3.400
REMARK  5 active torsions:
REMARK  status: ('A' for Active; 'I' for Inactive)
REMARK    1  A    between atoms: C3_3  and  C4_4 
REMARK    2  A    between atoms: C4_4  and  C5_5 
REMARK    3  A    between atoms: C9_9  and  C10_10 
REMARK    4  A    between atoms: N3_18  and  C16_19 
REMARK    5  A    between atoms: C16_19  and  C17_20 
ROOT
HETATM    1  C10 UNL     1      23.951   4.641  50.976  1.00  0.00     0.085 A 
HETATM    2  C11 UNL     1      22.694   4.944  50.938  1.00  0.00     0.130 A 
HETATM    3  N1  UNL     1      22.386   3.827  51.520  1.00  0.00    -0.311 N 
HETATM    4  C12 UNL     1      20.943   3.966  51.579  1.00  0.00     0.117 A 
HETATM    5  C13 UNL     1      20.378   2.825  52.196  1.00  0.00     0.136 A 
HETATM    6  N2  UNL     1      21.373   1.974  52.529  1.00  0.00    -0.238 NA
HETATM    7  C14 UNL     1      22.557   2.542  52.140  1.00  0.00     0.180 A 
HETATM    8  C15 UNL     1      24.071   2.643  51.960  1.00  0.00     0.171 A 
HETATM    9  N3  UNL     1      24.179   1.435  52.529  1.00  0.00    -0.367 N 
HETATM   10  N5  UNL     1      24.923   3.640  51.391  1.00  0.00    -0.226 NA
HETATM   11  H12 UNL     1      25.258   1.336  52.285  1.00  0.00     0.161 HD
ENDROOT
BRANCH   1  12
HETATM   12  C9  UNL     1      25.151   5.387  50.356  1.00  0.00    -0.011 C 
HETATM   13  C8  UNL     1      24.994   6.952  50.486  1.00  0.00    -0.007 C 
HETATM   14  C7  UNL     1      25.969   7.635  49.839  1.00  0.00     0.058 C 
HETATM   15  C6  UNL     1      25.718   9.045  49.980  1.00  0.00     0.029 C 
HETATM   16  C5  UNL     1      26.954   9.107  49.281  1.00  0.00     0.010 C 
HETATM   17  N7  UNL     1      28.118   8.405  48.736  1.00  0.00    -0.316 N 
HETATM   18  C24 UNL     1      28.094   7.031  48.741  1.00  0.00     0.382 A 
HETATM   19  H23 UNL     1      28.984   8.139  48.324  1.00  0.00     0.169 HD
HETATM   20  N6  UNL     1      28.098   5.641  48.741  1.00  0.00     0.125 N 
HETATM   21  O1  UNL     1      27.177   6.211  48.910  1.00  0.00    -0.104 OA
HETATM   22  C23 UNL     1      27.302   4.439  48.794  1.00  0.00     0.311 C 
HETATM   23  H22 UNL     1      29.187   5.638  48.623  1.00  0.00     0.330 HD
HETATM   24  C22 UNL     1      26.096   4.647  49.665  1.00  0.00     0.017 C 
BRANCH  16  25
HETATM   25  C4  UNL     1      27.549  10.419  48.914  1.00  0.00     0.003 C 
BRANCH  25  26
HETATM   26  C3  UNL     1      28.245  11.589  48.873  1.00  0.00     0.015 A 
HETATM   27  C2  UNL     1      28.406  13.133  48.852  1.00  0.00    -0.002 A 
HETATM   28  C1  UNL     1      29.668  12.655  48.841  1.00  0.00     0.014 A 
ENDBRANCH  25  26
ENDBRANCH  16  25
ENDBRANCH   1  12
BRANCH   9  29
HETATM   29  C16 UNL     1      24.321   0.135  53.136  1.00  0.00     0.160 C 
BRANCH  29  30
HETATM   30  C17 UNL     1      25.762  -0.058  53.562  1.00  0.00    -0.038 A 
HETATM   31  C18 UNL     1      26.397   0.614  54.629  1.00  0.00     0.028 A 
HETATM   32  C19 UNL     1      27.712   0.249  54.770  1.00  0.00     0.116 A 
HETATM   33  N4  UNL     1      28.358  -0.668  53.962  1.00  0.00    -0.273 NA
HETATM   34  C20 UNL     1      27.696  -1.288  52.942  1.00  0.00     0.116 A 
HETATM   35  C21 UNL     1      26.388  -0.956  52.773  1.00  0.00     0.028 A 
ENDBRANCH  29  30
ENDBRANCH   9  29
TORSDOF 5
ENDMDL
MODEL 7
REMARK VINA RESULT:      -8.9      1.943      2.686
REMARK  5 active torsions:
REMARK  status: ('A' for Active; 'I' for Inactive)
REMARK    1  A    between atoms: C3_3  and  C4_4 
REMARK    2  A    between atoms: C4_4  and  C5_5 
REMARK    3  A    between atoms: C9_9  and  C10_10 
REMARK    4  A    between atoms: N3_18  and  C16_19 
REMARK    5  A    between atoms: C16_19  and  C17_20 
ROOT
HETATM    1  C10 UNL     1      24.680   4.654  49.508  1.00  0.00     0.085 A 
HETATM    2  C11 UNL     1      23.565   4.458  48.881  1.00  0.00     0.130 A 
HETATM    3  N1  UNL     1      23.363   3.360  49.541  1.00  0.00    -0.311 N 
HETATM    4  C12 UNL     1      22.097   2.952  48.963  1.00  0.00     0.117 A 
HETATM    5  C13 UNL     1      21.671   1.738  49.554  1.00  0.00     0.136 A 
HETATM    6  N2  UNL     1      22.590   1.355  50.467  1.00  0.00    -0.238 NA
HETATM    7  C14 UNL     1      23.590   2.290  50.473  1.00  0.00     0.180 A 
HETATM    8  C15 UNL     1      24.903   2.937  50.915  1.00  0.00     0.171 A 
HETATM    9  N3  UNL     1      25.079   1.910  51.757  1.00  0.00    -0.367 N 
HETATM   10  N5  UNL     1      25.585   4.130  50.520  1.00  0.00    -0.226 NA
HETATM   11  H12 UNL     1      26.118   2.204  52.012  1.00  0.00     0.161 HD
ENDROOT
BRANCH   1  12
HETATM   12  C9  UNL     1      25.750   5.740  49.274  1.00  0.00    -0.011 C 
HETATM   13  C8  UNL     1      27.086   5.128  48.698  1.00  0.00    -0.007 C 
HETATM   14  C7  UNL     1      28.085   6.038  48.602  1.00  0.00     0.058 C 
HETATM   15  C6  UNL     1      29.265   5.379  48.109  1.00  0.00     0.029 C 
HETATM   16  C5  UNL     1      29.757   6.712  48.158  1.00  0.00     0.010 C 
HETATM   17  N7  UNL     1      29.488   8.136  48.369  1.00  0.00    -0.316 N 
HETATM   18  C24 UNL     1      28.247   8.488  48.842  1.00  0.00     0.382 A 
HETATM   19  H23 UNL     1      29.522   9.128  48.443  1.00  0.00     0.169 HD
HETATM   20  N6  UNL     1      26.997   8.871  49.312  1.00  0.00     0.125 N 
HETATM   21  O1  UNL     1      27.332   7.829  49.363  1.00  0.00    -0.104 OA
HETATM   22  C23 UNL     1      25.801   8.465  50.010  1.00  0.00     0.311 C 
HETATM   23  H22 UNL     1      27.169   9.893  48.957  1.00  0.00     0.330 HD
HETATM   24  C22 UNL     1      25.484   7.027  49.711  1.00  0.00     0.017 C 
BRANCH  16  25
HETATM   25  C4  UNL     1      31.161   7.013  47.772  1.00  0.00     0.003 C 
BRANCH  25  26
HETATM   26  C3  UNL     1      32.513   7.171  47.724  1.00  0.00     0.015 A 
HETATM   27  C2  UNL     1      33.893   7.658  48.240  1.00  0.00    -0.002 A 
HETATM   28  C1  UNL     1      34.168   6.990  47.101  1.00  0.00     0.014 A 
ENDBRANCH  25  26
ENDBRANCH  16  25
ENDBRANCH   1  12
BRANCH   9  29
HETATM   29  C16 UNL     1      25.292   0.816  52.669  1.00  0.00     0.160 C 
BRANCH  29  30
HETATM   30  C17 UNL     1      26.758   0.766  53.051  1.00  0.00    -0.038 A 
HETATM   31  C18 UNL     1      27.564   1.885  53.348  1.00  0.00     0.028 A 
HETATM   32  C19 UNL     1      28.859   1.536  53.642  1.00  0.00     0.116 A 
HETATM   33  N4  UNL     1      29.334   0.238  53.646  1.00  0.00    -0.273 NA
HETATM   34  C20 UNL     1      28.510  -0.808  53.349  1.00  0.00     0.116 A 
HETATM   35  C21 UNL     1      27.217  -0.503  53.057  1.00  0.00     0.028 A 
ENDBRANCH  29  30
ENDBRANCH   9  29
TORSDOF 5
ENDMDL
MODEL 8
REMARK VINA RESULT:      -8.9      2.950      9.410
REMARK  5 active torsions:
REMARK  status: ('A' for Active; 'I' for Inactive)
REMARK    1  A    between atoms: C3_3  and  C4_4 
REMARK    2  A    between atoms: C4_4  and  C5_5 
REMARK    3  A    between atoms: C9_9  and  C10_10 
REMARK    4  A    between atoms: N3_18  and  C16_19 
REMARK    5  A    between atoms: C16_19  and  C17_20 
ROOT
HETATM    1  C10 UNL     1      28.587   7.346  47.388  1.00  0.00     0.085 A 
HETATM    2  C11 UNL     1      28.429   8.024  46.297  1.00  0.00     0.130 A 
HETATM    3  N1  UNL     1      29.712   8.074  46.117  1.00  0.00    -0.311 N 
HETATM    4  C12 UNL     1      29.760   8.832  44.881  1.00  0.00     0.117 A 
HETATM    5  C13 UNL     1      31.106   9.012  44.483  1.00  0.00     0.136 A 
HETATM    6  N2  UNL     1      31.910   8.416  45.391  1.00  0.00    -0.238 NA
HETATM    7  C14 UNL     1      31.113   7.862  46.356  1.00  0.00     0.180 A 
HETATM    8  C15 UNL     1      30.790   7.087  47.634  1.00  0.00     0.171 A 
HETATM    9  N3  UNL     1      32.106   6.931  47.824  1.00  0.00    -0.367 N 
HETATM   10  N5  UNL     1      29.564   6.744  48.284  1.00  0.00    -0.226 NA
HETATM   11  H12 UNL     1      31.983   6.514  48.845  1.00  0.00     0.161 HD
ENDROOT
BRANCH   1  12
HETATM   12  C9  UNL     1      27.532   6.909  48.424  1.00  0.00    -0.011 C 
HETATM   13  C8  UNL     1      27.485   5.340  48.581  1.00  0.00    -0.007 C 
HETATM   14  C7  UNL     1      26.482   4.920  49.390  1.00  0.00     0.058 C 
HETATM   15  C6  UNL     1      26.495   3.482  49.437  1.00  0.00     0.029 C 
HETATM   16  C5  UNL     1      25.450   3.726  50.369  1.00  0.00     0.010 C 
HETATM   17  N7  UNL     1      24.677   4.690  51.155  1.00  0.00    -0.316 N 
HETATM   18  C24 UNL     1      24.880   6.026  50.906  1.00  0.00     0.382 A 
HETATM   19  H23 UNL     1      24.060   5.156  51.782  1.00  0.00     0.169 HD
HETATM   20  N6  UNL     1      25.072   7.383  50.679  1.00  0.00     0.125 N 
HETATM   21  O1  UNL     1      25.434   6.628  49.972  1.00  0.00    -0.104 OA
HETATM   22  C23 UNL     1      25.533   8.392  49.756  1.00  0.00     0.311 C 
HETATM   23  H22 UNL     1      24.627   7.616  51.652  1.00  0.00     0.330 HD
HETATM   24  C22 UNL     1      26.694   7.876  48.954  1.00  0.00     0.017 C 
BRANCH  16  25
HETATM   25  C4  UNL     1      24.739   2.594  51.020  1.00  0.00     0.003 C 
BRANCH  25  26
HETATM   26  C3  UNL     1      24.315   1.607  51.856  1.00  0.00     0.015 A 
HETATM   27  C2  UNL     1      24.489   0.495  52.926  1.00  0.00    -0.002 A 
HETATM   28  C1  UNL     1      23.162   0.536  52.684  1.00  0.00     0.014 A 
ENDBRANCH  25  26
ENDBRANCH  16  25
ENDBRANCH   1  12
BRANCH   9  29
HETATM   29  C16 UNL     1      33.518   6.750  48.052  1.00  0.00     0.160 C 
BRANCH  29  30
HETATM   30  C17 UNL     1      34.003   5.564  47.244  1.00  0.00    -0.038 A 
HETATM   31  C18 UNL     1      33.994   5.475  45.835  1.00  0.00     0.028 A 
HETATM   32  C19 UNL     1      34.477   4.273  45.382  1.00  0.00     0.116 A 
HETATM   33  N4  UNL     1      34.924   3.254  46.202  1.00  0.00    -0.273 NA
HETATM   34  C20 UNL     1      34.910   3.392  47.560  1.00  0.00     0.116 A 
HETATM   35  C21 UNL     1      34.441   4.573  48.047  1.00  0.00     0.028 A 
ENDBRANCH  29  30
ENDBRANCH   9  29
TORSDOF 5
ENDMDL
MODEL 9
REMARK VINA RESULT:      -8.8      4.586      8.494
REMARK  5 active torsions:
REMARK  status: ('A' for Active; 'I' for Inactive)
REMARK    1  A    between atoms: C3_3  and  C4_4 
REMARK    2  A    between atoms: C4_4  and  C5_5 
REMARK    3  A    between atoms: C9_9  and  C10_10 
REMARK    4  A    between atoms: N3_18  and  C16_19 
REMARK    5  A    between atoms: C16_19  and  C17_20 
ROOT
HETATM    1  C10 UNL     1      20.885   2.835  51.904  1.00  0.00     0.085 A 
HETATM    2  C11 UNL     1      21.245   3.932  51.320  1.00  0.00     0.130 A 
HETATM    3  N1  UNL     1      20.045   4.106  50.860  1.00  0.00    -0.311 N 
HETATM    4  C12 UNL     1      20.233   5.348  50.135  1.00  0.00     0.117 A 
HETATM    5  C13 UNL     1      19.014   5.740  49.533  1.00  0.00     0.136 A 
HETATM    6  N2  UNL     1      18.068   4.822  49.832  1.00  0.00    -0.238 NA
HETATM    7  C14 UNL     1      18.652   3.857  50.607  1.00  0.00     0.180 A 
HETATM    8  C15 UNL     1      18.719   2.574  51.437  1.00  0.00     0.171 A 
HETATM    9  N3  UNL     1      17.424   2.376  51.160  1.00  0.00    -0.367 N 
HETATM   10  N5  UNL     1      19.774   1.928  52.154  1.00  0.00    -0.226 NA
HETATM   11  H12 UNL     1      17.415   1.351  51.588  1.00  0.00     0.161 HD
ENDROOT
BRANCH   1  12
HETATM   12  C9  UNL     1      21.751   1.801  52.652  1.00  0.00    -0.011 C 
HETATM   13  C8  UNL     1      23.268   1.896  52.226  1.00  0.00    -0.007 C 
HETATM   14  C7  UNL     1      24.031   0.918  52.771  1.00  0.00     0.058 C 
HETATM   15  C6  UNL     1      25.381   1.063  52.294  1.00  0.00     0.029 C 
HETATM   16  C5  UNL     1      25.577  -0.022  53.191  1.00  0.00     0.010 C 
HETATM   17  N7  UNL     1      25.031  -0.898  54.229  1.00  0.00    -0.316 N 
HETATM   18  C24 UNL     1      23.685  -0.814  54.493  1.00  0.00     0.382 A 
HETATM   19  H23 UNL     1      24.876  -1.570  54.947  1.00  0.00     0.169 HD
HETATM   20  N6  UNL     1      22.328  -0.744  54.785  1.00  0.00     0.125 N 
HETATM   21  O1  UNL     1      22.742  -0.296  53.873  1.00  0.00    -0.104 OA
HETATM   22  C23 UNL     1      21.019  -0.357  54.317  1.00  0.00     0.311 C 
HETATM   23  H22 UNL     1      22.504  -1.231  55.750  1.00  0.00     0.330 HD
HETATM   24  C22 UNL     1      21.114   0.866  53.449  1.00  0.00     0.017 C 
BRANCH  16  25
HETATM   25  C4  UNL     1      26.920  -0.639  53.346  1.00  0.00     0.003 C 
BRANCH  25  26
HETATM   26  C3  UNL     1      28.256  -0.903  53.392  1.00  0.00     0.015 A 
HETATM   27  C2  UNL     1      29.518  -1.802  53.302  1.00  0.00    -0.002 A 
HETATM   28  C1  UNL     1      29.994  -0.564  53.551  1.00  0.00     0.014 A 
ENDBRANCH  25  26
ENDBRANCH  16  25
ENDBRANCH   1  12
BRANCH   9  29
HETATM   29  C16 UNL     1      16.031   2.138  50.875  1.00  0.00     0.160 C 
BRANCH  29  30
HETATM   30  C17 UNL     1      15.184   2.842  51.915  1.00  0.00    -0.038 A 
HETATM   31  C18 UNL     1      15.546   4.018  52.605  1.00  0.00     0.028 A 
HETATM   32  C19 UNL     1      14.587   4.416  53.503  1.00  0.00     0.116 A 
HETATM   33  N4  UNL     1      13.397   3.747  53.720  1.00  0.00    -0.273 NA
HETATM   34  C20 UNL     1      13.098   2.611  53.025  1.00  0.00     0.116 A 
HETATM   35  C21 UNL     1      14.023   2.187  52.122  1.00  0.00     0.028 A 
ENDBRANCH  29  30
ENDBRANCH   9  29
TORSDOF 5
ENDMDL
