MODEL 1
REMARK VINA RESULT:      -8.5      0.000      0.000
REMARK  3 active torsions:
REMARK  status: ('A' for Active; 'I' for Inactive)
REMARK    1  A    between atoms: C2_2  and  O1_3 
REMARK    2  A    between atoms: O1_3  and  C3_4 
REMARK    3  A    between atoms: C6_8  and  C7_9 
ROOT
HETATM    1  C1  UNL     1      24.516   3.296  53.539  1.00  0.00     0.055 C 
HETATM    2  C2  UNL     1      24.618   2.362  52.324  1.00  0.00     0.125 C 
HETATM    3  C13 UNL     1      26.059   1.965  52.197  1.00  0.00     0.073 C 
HETATM    4  C14 UNL     1      26.340   0.905  51.229  1.00  0.00    -0.019 C 
HETATM    5  C15 UNL     1      26.809  -0.218  51.824  1.00  0.00     0.048 C 
HETATM    6  C16 UNL     1      26.926  -0.114  53.295  1.00  0.00     0.151 A 
HETATM    7  N1  UNL     1      28.195   0.193  53.688  1.00  0.00    -0.221 NA
HETATM    8  C17 UNL     1      28.221   0.279  55.033  1.00  0.00     0.258 A 
HETATM    9  N2  UNL     1      26.968   0.023  55.434  1.00  0.00    -0.160 NA
HETATM   10  N3  UNL     1      26.175  -0.215  54.417  1.00  0.00    -0.226 N 
HETATM   11  C18 UNL     1      24.849  -0.536  54.107  1.00  0.00     0.124 C 
HETATM   12  C19 UNL     1      23.925   0.062  53.389  1.00  0.00     0.073 C 
HETATM   13  C20 UNL     1      23.707   1.230  52.598  1.00  0.00     0.185 C 
HETATM   14  O3  UNL     1      22.783   1.709  51.905  1.00  0.00    -0.290 OA
ENDROOT
BRANCH   2  15
HETATM   15  O1  UNL     1      24.172   2.993  51.198  1.00  0.00    -0.364 OA
BRANCH  15  16
HETATM   16  C3  UNL     1      24.316   4.329  51.066  1.00  0.00     0.158 C 
HETATM   17  C4  UNL     1      23.218   4.937  50.215  1.00  0.00     0.061 C 
HETATM   18  C5  UNL     1      23.732   4.683  48.819  1.00  0.00     0.171 C 
HETATM   19  O2  UNL     1      24.940   4.008  48.957  1.00  0.00    -0.379 OA
HETATM   20  C6  UNL     1      25.490   4.571  50.134  1.00  0.00     0.183 C 
BRANCH  20  21
HETATM   21  C7  UNL     1      25.689   6.007  49.830  1.00  0.00    -0.025 A 
HETATM   22  C8  UNL     1      25.203   7.076  50.508  1.00  0.00     0.013 A 
HETATM   23  C9  UNL     1      25.476   8.378  50.096  1.00  0.00     0.044 A 
HETATM   24  C10 UNL     1      26.254   8.609  48.980  1.00  0.00     0.138 A 
HETATM   25  F1  UNL     1      26.535   9.867  48.558  1.00  0.00    -0.204 F 
HETATM   26  C11 UNL     1      26.769   7.546  48.259  1.00  0.00     0.073 A 
HETATM   27 CL1  UNL     1      27.759   7.809  46.837  1.00  0.00    -0.081 Cl
HETATM   28  C12 UNL     1      26.475   6.266  48.701  1.00  0.00     0.036 A 
ENDBRANCH  20  21
ENDBRANCH  15  16
ENDBRANCH   2  15
TORSDOF 3
ENDMDL
MODEL 2
REMARK VINA RESULT:      -8.2      5.128      8.129
REMARK  3 active torsions:
REMARK  status: ('A' for Active; 'I' for Inactive)
REMARK    1  A    between atoms: C2_2  and  O1_3 
REMARK    2  A    between atoms: O1_3  and  C3_4 
REMARK    3  A    between atoms: C6_8  and  C7_9 
ROOT
HETATM    1  C1  UNL     1      24.105   3.234  49.338  1.00  0.00     0.055 C 
HETATM    2  C2  UNL     1      22.720   3.868  49.531  1.00  0.00     0.125 C 
HETATM    3  C13 UNL     1      22.877   4.962  50.545  1.00  0.00     0.073 C 
HETATM    4  C14 UNL     1      21.718   5.837  50.717  1.00  0.00    -0.019 C 
HETATM    5  C15 UNL     1      21.977   7.110  50.335  1.00  0.00     0.048 C 
HETATM    6  C16 UNL     1      23.355   7.318  49.838  1.00  0.00     0.151 A 
HETATM    7  N1  UNL     1      24.178   7.820  50.803  1.00  0.00    -0.221 NA
HETATM    8  C17 UNL     1      25.411   7.974  50.281  1.00  0.00     0.258 A 
HETATM    9  N2  UNL     1      25.317   7.563  49.008  1.00  0.00    -0.160 NA
HETATM   10  N3  UNL     1      24.101   7.167  48.718  1.00  0.00    -0.226 N 
HETATM   11  C18 UNL     1      23.331   6.658  47.667  1.00  0.00     0.124 C 
HETATM   12  C19 UNL     1      22.642   5.549  47.512  1.00  0.00     0.073 C 
HETATM   13  C20 UNL     1      22.296   4.345  48.197  1.00  0.00     0.185 C 
HETATM   14  O3  UNL     1      21.588   3.338  47.979  1.00  0.00    -0.290 OA
ENDROOT
BRANCH   2  15
HETATM   15  O1  UNL     1      21.818   2.929  49.943  1.00  0.00    -0.364 OA
BRANCH  15  16
HETATM   16  C3  UNL     1      22.207   1.925  50.758  1.00  0.00     0.158 C 
HETATM   17  C4  UNL     1      21.551   0.609  50.389  1.00  0.00     0.061 C 
HETATM   18  C5  UNL     1      20.212   0.728  51.077  1.00  0.00     0.171 C 
HETATM   19  O2  UNL     1      20.195   1.971  51.701  1.00  0.00    -0.379 OA
HETATM   20  C6  UNL     1      21.542   2.147  52.104  1.00  0.00     0.183 C 
BRANCH  20  21
HETATM   21  C7  UNL     1      21.814   1.049  53.061  1.00  0.00    -0.025 A 
HETATM   22  C8  UNL     1      20.932   0.420  53.876  1.00  0.00     0.013 A 
HETATM   23  C9  UNL     1      21.340  -0.602  54.730  1.00  0.00     0.044 A 
HETATM   24  C10 UNL     1      22.661  -0.998  54.763  1.00  0.00     0.138 A 
HETATM   25  F1  UNL     1      23.084  -1.990  55.586  1.00  0.00    -0.204 F 
HETATM   26  C11 UNL     1      23.593  -0.381  53.948  1.00  0.00     0.073 A 
HETATM   27 CL1  UNL     1      25.278  -0.863  53.970  1.00  0.00    -0.081 Cl
HETATM   28  C12 UNL     1      23.148   0.630  53.113  1.00  0.00     0.036 A 
ENDBRANCH  20  21
ENDBRANCH  15  16
ENDBRANCH   2  15
TORSDOF 3
ENDMDL
MODEL 3
REMARK VINA RESULT:      -7.8      5.375      8.359
REMARK  3 active torsions:
REMARK  status: ('A' for Active; 'I' for Inactive)
REMARK    1  A    between atoms: C2_2  and  O1_3 
REMARK    2  A    between atoms: O1_3  and  C3_4 
REMARK    3  A    between atoms: C6_8  and  C7_9 
ROOT
HETATM    1  C1  UNL     1      23.799   6.163  51.377  1.00  0.00     0.055 C 
HETATM    2  C2  UNL     1      24.050   5.061  50.337  1.00  0.00     0.125 C 
HETATM    3  C13 UNL     1      22.733   4.770  49.682  1.00  0.00     0.073 C 
HETATM    4  C14 UNL     1      22.789   3.899  48.509  1.00  0.00    -0.019 C 
HETATM    5  C15 UNL     1      22.416   4.543  47.377  1.00  0.00     0.048 C 
HETATM    6  C16 UNL     1      22.043   5.959  47.587  1.00  0.00     0.151 A 
HETATM    7  N1  UNL     1      20.694   6.124  47.698  1.00  0.00    -0.221 NA
HETATM    8  C17 UNL     1      20.434   7.431  47.895  1.00  0.00     0.258 A 
HETATM    9  N2  UNL     1      21.629   8.039  47.901  1.00  0.00    -0.160 NA
HETATM   10  N3  UNL     1      22.606   7.184  47.719  1.00  0.00    -0.226 N 
HETATM   11  C18 UNL     1      23.998   7.111  47.612  1.00  0.00     0.124 C 
HETATM   12  C19 UNL     1      24.920   6.473  48.298  1.00  0.00     0.073 C 
HETATM   13  C20 UNL     1      25.074   5.594  49.413  1.00  0.00     0.185 C 
HETATM   14  O3  UNL     1      26.010   4.995  49.985  1.00  0.00    -0.290 OA
ENDROOT
BRANCH   2  15
HETATM   15  O1  UNL     1      24.568   3.949  50.936  1.00  0.00    -0.364 OA
BRANCH  15  16
HETATM   16  C3  UNL     1      23.791   3.180  51.728  1.00  0.00     0.158 C 
HETATM   17  C4  UNL     1      24.161   3.317  53.192  1.00  0.00     0.061 C 
HETATM   18  C5  UNL     1      25.326   2.364  53.308  1.00  0.00     0.171 C 
HETATM   19  O2  UNL     1      25.527   1.827  52.041  1.00  0.00    -0.379 OA
HETATM   20  C6  UNL     1      24.214   1.737  51.518  1.00  0.00     0.183 C 
BRANCH  20  21
HETATM   21  C7  UNL     1      23.497   0.798  52.411  1.00  0.00    -0.025 A 
HETATM   22  C8  UNL     1      24.029  -0.056  53.320  1.00  0.00     0.013 A 
HETATM   23  C9  UNL     1      23.221  -0.886  54.093  1.00  0.00     0.044 A 
HETATM   24  C10 UNL     1      21.849  -0.856  53.948  1.00  0.00     0.138 A 
HETATM   25  F1  UNL     1      21.040  -1.654  54.688  1.00  0.00    -0.204 F 
HETATM   26  C11 UNL     1      21.265   0.000  53.032  1.00  0.00     0.073 A 
HETATM   27 CL1  UNL     1      19.526   0.060  52.826  1.00  0.00    -0.081 Cl
HETATM   28  C12 UNL     1      22.103   0.810  52.283  1.00  0.00     0.036 A 
ENDBRANCH  20  21
ENDBRANCH  15  16
ENDBRANCH   2  15
TORSDOF 3
ENDMDL
MODEL 4
REMARK VINA RESULT:      -7.8      5.560      8.359
REMARK  3 active torsions:
REMARK  status: ('A' for Active; 'I' for Inactive)
REMARK    1  A    between atoms: C2_2  and  O1_3 
REMARK    2  A    between atoms: O1_3  and  C3_4 
REMARK    3  A    between atoms: C6_8  and  C7_9 
ROOT
HETATM    1  C1  UNL     1      22.021   5.121  50.885  1.00  0.00     0.055 C 
HETATM    2  C2  UNL     1      22.935   4.248  50.014  1.00  0.00     0.125 C 
HETATM    3  C13 UNL     1      22.058   3.235  49.338  1.00  0.00     0.073 C 
HETATM    4  C14 UNL     1      22.701   2.438  48.294  1.00  0.00    -0.019 C 
HETATM    5  C15 UNL     1      22.174   2.679  47.070  1.00  0.00     0.048 C 
HETATM    6  C16 UNL     1      21.084   3.679  47.073  1.00  0.00     0.151 A 
HETATM    7  N1  UNL     1      19.851   3.095  47.094  1.00  0.00    -0.221 NA
HETATM    8  C17 UNL     1      18.915   4.064  47.104  1.00  0.00     0.258 A 
HETATM    9  N2  UNL     1      19.594   5.221  47.088  1.00  0.00    -0.160 NA
HETATM   10  N3  UNL     1      20.890   5.019  47.070  1.00  0.00    -0.226 N 
HETATM   11  C18 UNL     1      22.109   5.704  47.042  1.00  0.00     0.124 C 
HETATM   12  C19 UNL     1      23.144   5.727  47.852  1.00  0.00     0.073 C 
HETATM   13  C20 UNL     1      23.615   5.170  49.079  1.00  0.00     0.185 C 
HETATM   14  O3  UNL     1      24.655   5.224  49.771  1.00  0.00    -0.290 OA
ENDROOT
BRANCH   2  15
HETATM   15  O1  UNL     1      23.894   3.649  50.779  1.00  0.00    -0.364 OA
BRANCH  15  16
HETATM   16  C3  UNL     1      23.540   2.829  51.792  1.00  0.00     0.158 C 
HETATM   17  C4  UNL     1      24.117   3.283  53.119  1.00  0.00     0.061 C 
HETATM   18  C5  UNL     1      25.512   2.710  53.061  1.00  0.00     0.171 C 
HETATM   19  O2  UNL     1      25.626   2.060  51.837  1.00  0.00    -0.379 OA
HETATM   20  C6  UNL     1      24.324   1.539  51.629  1.00  0.00     0.183 C 
BRANCH  20  21
HETATM   21  C7  UNL     1      24.096   0.589  52.743  1.00  0.00    -0.025 A 
HETATM   22  C8  UNL     1      25.025  -0.009  53.528  1.00  0.00     0.013 A 
HETATM   23  C9  UNL     1      24.655  -0.888  54.544  1.00  0.00     0.044 A 
HETATM   24  C10 UNL     1      23.324  -1.169  54.773  1.00  0.00     0.138 A 
HETATM   25  F1  UNL     1      22.937  -2.021  55.755  1.00  0.00    -0.204 F 
HETATM   26  C11 UNL     1      22.345  -0.580  53.994  1.00  0.00     0.073 A 
HETATM   27 CL1  UNL     1      20.646  -0.919  54.261  1.00  0.00    -0.081 Cl
HETATM   28  C12 UNL     1      22.753   0.288  52.994  1.00  0.00     0.036 A 
ENDBRANCH  20  21
ENDBRANCH  15  16
ENDBRANCH   2  15
TORSDOF 3
ENDMDL
MODEL 5
REMARK VINA RESULT:      -7.8      5.245      7.201
REMARK  3 active torsions:
REMARK  status: ('A' for Active; 'I' for Inactive)
REMARK    1  A    between atoms: C2_2  and  O1_3 
REMARK    2  A    between atoms: O1_3  and  C3_4 
REMARK    3  A    between atoms: C6_8  and  C7_9 
ROOT
HETATM    1  C1  UNL     1      24.804   2.104  50.767  1.00  0.00     0.055 C 
HETATM    2  C2  UNL     1      24.010   1.832  52.053  1.00  0.00     0.125 C 
HETATM    3  C13 UNL     1      24.107   0.360  52.325  1.00  0.00     0.073 C 
HETATM    4  C14 UNL     1      23.597  -0.078  53.624  1.00  0.00    -0.019 C 
HETATM    5  C15 UNL     1      24.577  -0.578  54.415  1.00  0.00     0.048 C 
HETATM    6  C16 UNL     1      25.917  -0.565  53.790  1.00  0.00     0.151 A 
HETATM    7  N1  UNL     1      26.240  -1.771  53.240  1.00  0.00    -0.221 NA
HETATM    8  C17 UNL     1      27.464  -1.679  52.685  1.00  0.00     0.258 A 
HETATM    9  N2  UNL     1      27.866  -0.419  52.907  1.00  0.00    -0.160 NA
HETATM   10  N3  UNL     1      26.962   0.267  53.564  1.00  0.00    -0.226 N 
HETATM   11  C18 UNL     1      26.720   1.535  54.103  1.00  0.00     0.124 C 
HETATM   12  C19 UNL     1      25.790   2.438  53.890  1.00  0.00     0.073 C 
HETATM   13  C20 UNL     1      24.623   2.676  53.102  1.00  0.00     0.185 C 
HETATM   14  O3  UNL     1      23.759   3.572  52.990  1.00  0.00    -0.290 OA
ENDROOT
BRANCH   2  15
HETATM   15  O1  UNL     1      22.712   2.229  51.905  1.00  0.00    -0.364 OA
BRANCH  15  16
HETATM   16  C3  UNL     1      21.731   1.311  51.777  1.00  0.00     0.158 C 
HETATM   17  C4  UNL     1      21.398   1.035  50.324  1.00  0.00     0.061 C 
HETATM   18  C5  UNL     1      20.458   2.172  50.001  1.00  0.00     0.171 C 
HETATM   19  O2  UNL     1      20.350   2.939  51.157  1.00  0.00    -0.379 OA
HETATM   20  C6  UNL     1      20.429   1.973  52.191  1.00  0.00     0.183 C 
BRANCH  20  21
HETATM   21  C7  UNL     1      19.255   1.091  51.998  1.00  0.00    -0.025 A 
HETATM   22  C8  UNL     1      18.196   1.285  51.175  1.00  0.00     0.013 A 
HETATM   23  C9  UNL     1      17.157   0.359  51.102  1.00  0.00     0.044 A 
HETATM   24  C10 UNL     1      17.186  -0.784  51.874  1.00  0.00     0.138 A 
HETATM   25  F1  UNL     1      16.188  -1.700  51.823  1.00  0.00    -0.204 F 
HETATM   26  C11 UNL     1      18.248  -1.019  52.729  1.00  0.00     0.073 A 
HETATM   27 CL1  UNL     1      18.311  -2.462  53.722  1.00  0.00    -0.081 Cl
HETATM   28  C12 UNL     1      19.261  -0.075  52.772  1.00  0.00     0.036 A 
ENDBRANCH  20  21
ENDBRANCH  15  16
ENDBRANCH   2  15
TORSDOF 3
ENDMDL
MODEL 6
REMARK VINA RESULT:      -7.7      5.075      7.910
REMARK  3 active torsions:
REMARK  status: ('A' for Active; 'I' for Inactive)
REMARK    1  A    between atoms: C2_2  and  O1_3 
REMARK    2  A    between atoms: O1_3  and  C3_4 
REMARK    3  A    between atoms: C6_8  and  C7_9 
ROOT
HETATM    1  C1  UNL     1      22.099   5.085  48.524  1.00  0.00     0.055 C 
HETATM    2  C2  UNL     1      22.905   5.439  49.782  1.00  0.00     0.125 C 
HETATM    3  C13 UNL     1      24.330   5.625  49.350  1.00  0.00     0.073 C 
HETATM    4  C14 UNL     1      25.230   6.178  50.361  1.00  0.00    -0.019 C 
HETATM    5  C15 UNL     1      25.699   7.400  50.013  1.00  0.00     0.048 C 
HETATM    6  C16 UNL     1      25.199   7.886  48.709  1.00  0.00     0.151 A 
HETATM    7  N1  UNL     1      26.087   7.653  47.699  1.00  0.00    -0.221 NA
HETATM    8  C17 UNL     1      25.560   8.113  46.547  1.00  0.00     0.258 A 
HETATM    9  N2  UNL     1      24.361   8.617  46.875  1.00  0.00    -0.160 NA
HETATM   10  N3  UNL     1      24.121   8.494  48.158  1.00  0.00    -0.226 N 
HETATM   11  C18 UNL     1      23.155   8.778  49.129  1.00  0.00     0.124 C 
HETATM   12  C19 UNL     1      22.466   8.025  49.957  1.00  0.00     0.073 C 
HETATM   13  C20 UNL     1      22.284   6.661  50.338  1.00  0.00     0.185 C 
HETATM   14  O3  UNL     1      21.617   6.026  51.183  1.00  0.00    -0.290 OA
ENDROOT
BRANCH   2  15
HETATM   15  O1  UNL     1      22.790   4.451  50.717  1.00  0.00    -0.364 OA
BRANCH  15  16
HETATM   16  C3  UNL     1      23.674   3.430  50.739  1.00  0.00     0.158 C 
HETATM   17  C4  UNL     1      23.050   2.129  50.274  1.00  0.00     0.061 C 
HETATM   18  C5  UNL     1      22.370   1.646  51.533  1.00  0.00     0.171 C 
HETATM   19  O2  UNL     1      22.611   2.607  52.509  1.00  0.00    -0.379 OA
HETATM   20  C6  UNL     1      23.914   3.066  52.193  1.00  0.00     0.183 C 
BRANCH  20  21
HETATM   21  C7  UNL     1      24.796   1.886  52.346  1.00  0.00    -0.025 A 
HETATM   22  C8  UNL     1      25.847   1.527  51.568  1.00  0.00     0.013 A 
HETATM   23  C9  UNL     1      26.588   0.379  51.839  1.00  0.00     0.044 A 
HETATM   24  C10 UNL     1      26.265  -0.422  52.914  1.00  0.00     0.138 A 
HETATM   25  F1  UNL     1      26.970  -1.545  53.200  1.00  0.00    -0.204 F 
HETATM   26  C11 UNL     1      25.200  -0.093  53.733  1.00  0.00     0.073 A 
HETATM   27 CL1  UNL     1      24.766  -1.093  55.105  1.00  0.00    -0.081 Cl
HETATM   28  C12 UNL     1      24.488   1.057  53.431  1.00  0.00     0.036 A 
ENDBRANCH  20  21
ENDBRANCH  15  16
ENDBRANCH   2  15
TORSDOF 3
ENDMDL
MODEL 7
REMARK VINA RESULT:      -7.6      4.794      7.732
REMARK  3 active torsions:
REMARK  status: ('A' for Active; 'I' for Inactive)
REMARK    1  A    between atoms: C2_2  and  O1_3 
REMARK    2  A    between atoms: O1_3  and  C3_4 
REMARK    3  A    between atoms: C6_8  and  C7_9 
ROOT
HETATM    1  C1  UNL     1      22.666   4.730  47.871  1.00  0.00     0.055 C 
HETATM    2  C2  UNL     1      22.468   5.106  49.347  1.00  0.00     0.125 C 
HETATM    3  C13 UNL     1      23.810   5.511  49.879  1.00  0.00     0.073 C 
HETATM    4  C14 UNL     1      23.807   6.113  51.212  1.00  0.00    -0.019 C 
HETATM    5  C15 UNL     1      24.204   7.407  51.190  1.00  0.00     0.048 C 
HETATM    6  C16 UNL     1      24.545   7.906  49.840  1.00  0.00     0.151 A 
HETATM    7  N1  UNL     1      25.888   7.864  49.600  1.00  0.00    -0.221 NA
HETATM    8  C17 UNL     1      26.118   8.323  48.354  1.00  0.00     0.258 A 
HETATM    9  N2  UNL     1      24.914   8.637  47.857  1.00  0.00    -0.160 NA
HETATM   10  N3  UNL     1      23.958   8.398  48.723  1.00  0.00    -0.226 N 
HETATM   11  C18 UNL     1      22.571   8.484  48.881  1.00  0.00     0.124 C 
HETATM   12  C19 UNL     1      21.639   7.592  49.133  1.00  0.00     0.073 C 
HETATM   13  C20 UNL     1      21.465   6.193  49.363  1.00  0.00     0.185 C 
HETATM   14  O3  UNL     1      20.521   5.420  49.637  1.00  0.00    -0.290 OA
ENDROOT
BRANCH   2  15
HETATM   15  O1  UNL     1      21.950   4.052  50.043  1.00  0.00    -0.364 OA
BRANCH  15  16
HETATM   16  C3  UNL     1      22.759   3.061  50.475  1.00  0.00     0.158 C 
HETATM   17  C4  UNL     1      22.389   1.721  49.868  1.00  0.00     0.061 C 
HETATM   18  C5  UNL     1      21.261   1.276  50.768  1.00  0.00     0.171 C 
HETATM   19  O2  UNL     1      21.077   2.286  51.705  1.00  0.00    -0.379 OA
HETATM   20  C6  UNL     1      22.392   2.770  51.919  1.00  0.00     0.183 C 
BRANCH  20  21
HETATM   21  C7  UNL     1      23.147   1.625  52.479  1.00  0.00    -0.025 A 
HETATM   22  C8  UNL     1      22.671   0.606  53.235  1.00  0.00     0.013 A 
HETATM   23  C9  UNL     1      23.511  -0.407  53.694  1.00  0.00     0.044 A 
HETATM   24  C10 UNL     1      24.856  -0.392  53.386  1.00  0.00     0.138 A 
HETATM   25  F1  UNL     1      25.694  -1.365  53.820  1.00  0.00    -0.204 F 
HETATM   26  C11 UNL     1      25.382   0.631  52.617  1.00  0.00     0.073 A 
HETATM   27 CL1  UNL     1      27.086   0.677  52.211  1.00  0.00    -0.081 Cl
HETATM   28  C12 UNL     1      24.515   1.619  52.180  1.00  0.00     0.036 A 
ENDBRANCH  20  21
ENDBRANCH  15  16
ENDBRANCH   2  15
TORSDOF 3
ENDMDL
MODEL 8
REMARK VINA RESULT:      -7.5      3.062      3.888
REMARK  3 active torsions:
REMARK  status: ('A' for Active; 'I' for Inactive)
REMARK    1  A    between atoms: C2_2  and  O1_3 
REMARK    2  A    between atoms: O1_3  and  C3_4 
REMARK    3  A    between atoms: C6_8  and  C7_9 
ROOT
HETATM    1  C1  UNL     1      23.186   4.628  52.848  1.00  0.00     0.055 C 
HETATM    2  C2  UNL     1      22.642   4.236  51.466  1.00  0.00     0.125 C 
HETATM    3  C13 UNL     1      23.126   2.844  51.184  1.00  0.00     0.073 C 
HETATM    4  C14 UNL     1      22.542   2.198  50.009  1.00  0.00    -0.019 C 
HETATM    5  C15 UNL     1      21.792   1.119  50.339  1.00  0.00     0.048 C 
HETATM    6  C16 UNL     1      21.738   0.849  51.792  1.00  0.00     0.151 A 
HETATM    7  N1  UNL     1      22.635  -0.107  52.170  1.00  0.00    -0.221 NA
HETATM    8  C17 UNL     1      22.533  -0.292  53.501  1.00  0.00     0.258 A 
HETATM    9  N2  UNL     1      21.577   0.554  53.910  1.00  0.00    -0.160 NA
HETATM   10  N3  UNL     1      21.086   1.246  52.911  1.00  0.00    -0.226 N 
HETATM   11  C18 UNL     1      20.135   2.229  52.615  1.00  0.00     0.124 C 
HETATM   12  C19 UNL     1      20.219   3.428  52.083  1.00  0.00     0.073 C 
HETATM   13  C20 UNL     1      21.171   4.352  51.556  1.00  0.00     0.185 C 
HETATM   14  O3  UNL     1      21.153   5.484  51.025  1.00  0.00    -0.290 OA
ENDROOT
BRANCH   2  15
HETATM   15  O1  UNL     1      23.072   5.118  50.517  1.00  0.00    -0.364 OA
BRANCH  15  16
HETATM   16  C3  UNL     1      24.394   5.300  50.308  1.00  0.00     0.158 C 
HETATM   17  C4  UNL     1      24.892   6.594  50.921  1.00  0.00     0.061 C 
HETATM   18  C5  UNL     1      24.524   7.601  49.858  1.00  0.00     0.171 C 
HETATM   19  O2  UNL     1      23.896   6.893  48.839  1.00  0.00    -0.379 OA
HETATM   20  C6  UNL     1      24.579   5.652  48.843  1.00  0.00     0.183 C 
BRANCH  20  21
HETATM   21  C7  UNL     1      25.986   5.974  48.508  1.00  0.00    -0.025 A 
HETATM   22  C8  UNL     1      27.096   5.253  48.800  1.00  0.00     0.013 A 
HETATM   23  C9  UNL     1      28.363   5.690  48.418  1.00  0.00     0.044 A 
HETATM   24  C10 UNL     1      28.514   6.874  47.728  1.00  0.00     0.138 A 
HETATM   25  F1  UNL     1      29.735   7.321  47.345  1.00  0.00    -0.204 F 
HETATM   26  C11 UNL     1      27.407   7.641  47.411  1.00  0.00     0.073 A 
HETATM   27 CL1  UNL     1      27.569   9.151  46.536  1.00  0.00    -0.081 Cl
HETATM   28  C12 UNL     1      26.165   7.173  47.808  1.00  0.00     0.036 A 
ENDBRANCH  20  21
ENDBRANCH  15  16
ENDBRANCH   2  15
TORSDOF 3
ENDMDL
MODEL 9
REMARK VINA RESULT:      -7.4      6.566      8.688
REMARK  3 active torsions:
REMARK  status: ('A' for Active; 'I' for Inactive)
REMARK    1  A    between atoms: C2_2  and  O1_3 
REMARK    2  A    between atoms: O1_3  and  C3_4 
REMARK    3  A    between atoms: C6_8  and  C7_9 
ROOT
HETATM    1  C1  UNL     1      18.504   3.998  51.205  1.00  0.00     0.055 C 
HETATM    2  C2  UNL     1      19.003   2.643  50.681  1.00  0.00     0.125 C 
HETATM    3  C13 UNL     1      18.524   1.599  51.645  1.00  0.00     0.073 C 
HETATM    4  C14 UNL     1      18.708   0.212  51.218  1.00  0.00    -0.019 C 
HETATM    5  C15 UNL     1      17.528  -0.425  51.026  1.00  0.00     0.048 C 
HETATM    6  C16 UNL     1      16.342   0.419  51.289  1.00  0.00     0.151 A 
HETATM    7  N1  UNL     1      15.837   0.219  52.541  1.00  0.00    -0.221 NA
HETATM    8  C17 UNL     1      14.769   1.023  52.709  1.00  0.00     0.258 A 
HETATM    9  N2  UNL     1      14.643   1.699  51.558  1.00  0.00    -0.160 NA
HETATM   10  N3  UNL     1      15.569   1.358  50.694  1.00  0.00    -0.226 N 
HETATM   11  C18 UNL     1      16.013   1.624  49.395  1.00  0.00     0.124 C 
HETATM   12  C19 UNL     1      17.150   2.069  48.908  1.00  0.00     0.073 C 
HETATM   13  C20 UNL     1      18.448   2.500  49.318  1.00  0.00     0.185 C 
HETATM   14  O3  UNL     1      19.504   2.880  48.768  1.00  0.00    -0.290 OA
ENDROOT
BRANCH   2  15
HETATM   15  O1  UNL     1      20.364   2.643  50.579  1.00  0.00    -0.364 OA
BRANCH  15  16
HETATM   16  C3  UNL     1      21.120   2.131  51.573  1.00  0.00     0.158 C 
HETATM   17  C4  UNL     1      21.880   3.208  52.322  1.00  0.00     0.061 C 
HETATM   18  C5  UNL     1      23.083   3.413  51.432  1.00  0.00     0.171 C 
HETATM   19  O2  UNL     1      22.930   2.550  50.352  1.00  0.00    -0.379 OA
HETATM   20  C6  UNL     1      22.299   1.421  50.930  1.00  0.00     0.183 C 
BRANCH  20  21
HETATM   21  C7  UNL     1      23.261   0.898  51.927  1.00  0.00    -0.025 A 
HETATM   22  C8  UNL     1      24.605   1.074  51.958  1.00  0.00     0.013 A 
HETATM   23  C9  UNL     1      25.385   0.514  52.967  1.00  0.00     0.044 A 
HETATM   24  C10 UNL     1      24.800  -0.238  53.965  1.00  0.00     0.138 A 
HETATM   25  F1  UNL     1      25.537  -0.794  54.958  1.00  0.00    -0.204 F 
HETATM   26  C11 UNL     1      23.432  -0.443  53.971  1.00  0.00     0.073 A 
HETATM   27 CL1  UNL     1      22.662  -1.394  55.225  1.00  0.00    -0.081 Cl
HETATM   28  C12 UNL     1      22.691   0.131  52.950  1.00  0.00     0.036 A 
ENDBRANCH  20  21
ENDBRANCH  15  16
ENDBRANCH   2  15
TORSDOF 3
ENDMDL
