MODEL 1
REMARK VINA RESULT:      -8.2      0.000      0.000
REMARK  4 active torsions:
REMARK  status: ('A' for Active; 'I' for Inactive)
REMARK    1  A    between atoms: C2_2  and  O1_3 
REMARK    2  A    between atoms: O1_3  and  C3_4 
REMARK       I    between atoms: C3_4  and  N1_6 
REMARK    3  A    between atoms: N1_6  and  C4_7 
REMARK    4  A    between atoms: C12_19  and  O4_20 
ROOT
HETATM    1  C4  UNL     1      24.706   0.658  52.658  1.00  0.00     0.066 A 
HETATM    2  C5  UNL     1      24.812   1.529  51.655  1.00  0.00     0.047 A 
HETATM    3  C6  UNL     1      23.911   2.476  50.971  1.00  0.00    -0.013 A 
HETATM    4  C7  UNL     1      22.549   2.534  51.463  1.00  0.00     0.090 A 
HETATM    5  C8  UNL     1      22.076   1.731  52.531  1.00  0.00     0.075 A 
HETATM    6  S1  UNL     1      23.025   0.667  53.318  1.00  0.00    -0.154 SA
HETATM    7  O3  UNL     1      21.400   3.451  50.949  1.00  0.00    -0.289 OA
HETATM    8  C9  UNL     1      21.816   4.907  51.091  1.00  0.00     0.200 A 
HETATM    9  N2  UNL     1      21.648   6.173  51.432  1.00  0.00    -0.148 NA
HETATM   10  N3  UNL     1      22.649   7.191  51.274  1.00  0.00    -0.286 N 
HETATM   11  C10 UNL     1      24.043   7.205  50.754  1.00  0.00     0.124 A 
HETATM   12  C11 UNL     1      24.478   5.988  50.297  1.00  0.00     0.028 A 
HETATM   13  C12 UNL     1      25.767   5.437  49.731  1.00  0.00     0.077 C 
HETATM   14  C14 UNL     1      25.804   4.022  49.944  1.00  0.00     0.020 C 
HETATM   15  C15 UNL     1      24.801   2.956  49.906  1.00  0.00     0.050 C 
HETATM   16  C16 UNL     1      23.862   3.249  48.676  1.00  0.00     0.041 C 
HETATM   17  C17 UNL     1      23.094   4.421  49.053  1.00  0.00    -0.009 C 
HETATM   18  C18 UNL     1      23.226   5.121  50.573  1.00  0.00     0.029 A 
HETATM   19  H9  UNL     1      22.756   0.268  54.650  1.00  0.00     0.102 HD
HETATM   20  H10 UNL     1      22.430   8.143  51.562  1.00  0.00     0.188 HD
ENDROOT
BRANCH   1  21
HETATM   21  N1  UNL     1      25.686  -0.229  53.244  1.00  0.00    -0.297 N 
HETATM   22  C3  UNL     1      26.482   0.408  54.238  1.00  0.00     0.365 C 
HETATM   23  O2  UNL     1      26.209   1.613  54.442  1.00  0.00    -0.238 OA
HETATM   24  H6  UNL     1      25.885  -1.245  53.043  1.00  0.00     0.171 HD
BRANCH  22  25
HETATM   25  O1  UNL     1      27.478  -0.207  54.942  1.00  0.00    -0.304 OA
BRANCH  25  26
HETATM   26  C2  UNL     1      28.868   0.046  54.682  1.00  0.00     0.176 C 
HETATM   27  C1  UNL     1      29.281  -0.933  53.580  1.00  0.00     0.034 C 
ENDBRANCH  25  26
ENDBRANCH  22  25
ENDBRANCH   1  21
BRANCH  13  28
HETATM   28  O4  UNL     1      26.270   6.582  49.293  1.00  0.00    -0.355 OA
HETATM   29  C13 UNL     1      27.491   6.557  48.527  1.00  0.00     0.210 C 
ENDBRANCH  13  28
TORSDOF 4
ENDMDL
MODEL 2
REMARK VINA RESULT:      -8.0      1.810      2.057
REMARK  4 active torsions:
REMARK  status: ('A' for Active; 'I' for Inactive)
REMARK    1  A    between atoms: C2_2  and  O1_3 
REMARK    2  A    between atoms: O1_3  and  C3_4 
REMARK       I    between atoms: C3_4  and  N1_6 
REMARK    3  A    between atoms: N1_6  and  C4_7 
REMARK    4  A    between atoms: C12_19  and  O4_20 
ROOT
HETATM    1  C4  UNL     1      26.298   1.784  52.521  1.00  0.00     0.066 A 
HETATM    2  C5  UNL     1      26.206   2.488  51.393  1.00  0.00     0.047 A 
HETATM    3  C6  UNL     1      25.307   3.531  50.863  1.00  0.00    -0.013 A 
HETATM    4  C7  UNL     1      24.230   3.953  51.735  1.00  0.00     0.090 A 
HETATM    5  C8  UNL     1      24.018   3.406  53.025  1.00  0.00     0.075 A 
HETATM    6  S1  UNL     1      24.976   2.250  53.658  1.00  0.00    -0.154 SA
HETATM    7  O3  UNL     1      23.156   5.043  51.447  1.00  0.00    -0.289 OA
HETATM    8  C9  UNL     1      23.846   6.373  51.183  1.00  0.00     0.200 A 
HETATM    9  N2  UNL     1      24.031   7.674  51.321  1.00  0.00    -0.148 NA
HETATM   10  N3  UNL     1      25.080   8.413  50.676  1.00  0.00    -0.286 N 
HETATM   11  C10 UNL     1      26.189   8.050  49.753  1.00  0.00     0.124 A 
HETATM   12  C11 UNL     1      26.220   6.722  49.415  1.00  0.00     0.028 A 
HETATM   13  C12 UNL     1      27.117   5.831  48.586  1.00  0.00     0.077 C 
HETATM   14  C14 UNL     1      26.974   4.479  49.032  1.00  0.00     0.020 C 
HETATM   15  C15 UNL     1      25.848   3.671  49.504  1.00  0.00     0.050 C 
HETATM   16  C16 UNL     1      24.611   4.028  48.596  1.00  0.00     0.041 C 
HETATM   17  C17 UNL     1      24.239   5.380  48.973  1.00  0.00    -0.009 C 
HETATM   18  C18 UNL     1      25.006   6.200  50.221  1.00  0.00     0.029 A 
HETATM   19  H9  UNL     1      25.114   2.077  55.057  1.00  0.00     0.102 HD
HETATM   20  H10 UNL     1      25.145   9.416  50.838  1.00  0.00     0.188 HD
ENDROOT
BRANCH   1  21
HETATM   21  N1  UNL     1      27.247   0.769  52.923  1.00  0.00    -0.297 N 
HETATM   22  C3  UNL     1      28.274   1.279  53.768  1.00  0.00     0.365 C 
HETATM   23  O2  UNL     1      28.192   2.503  54.021  1.00  0.00    -0.238 OA
HETATM   24  H6  UNL     1      27.282  -0.257  52.686  1.00  0.00     0.171 HD
BRANCH  22  25
HETATM   25  O1  UNL     1      29.292   0.530  54.286  1.00  0.00    -0.304 OA
BRANCH  25  26
HETATM   26  C2  UNL     1      30.138  -0.287  53.460  1.00  0.00     0.176 C 
HETATM   27  C1  UNL     1      29.540  -1.696  53.499  1.00  0.00     0.034 C 
ENDBRANCH  25  26
ENDBRANCH  22  25
ENDBRANCH   1  21
BRANCH  13  28
HETATM   28  O4  UNL     1      27.633   6.774  47.811  1.00  0.00    -0.355 OA
HETATM   29  C13 UNL     1      29.065   6.840  47.656  1.00  0.00     0.210 C 
ENDBRANCH  13  28
TORSDOF 4
ENDMDL
MODEL 3
REMARK VINA RESULT:      -7.4      2.626      5.253
REMARK  4 active torsions:
REMARK  status: ('A' for Active; 'I' for Inactive)
REMARK    1  A    between atoms: C2_2  and  O1_3 
REMARK    2  A    between atoms: O1_3  and  C3_4 
REMARK       I    between atoms: C3_4  and  N1_6 
REMARK    3  A    between atoms: N1_6  and  C4_7 
REMARK    4  A    between atoms: C12_19  and  O4_20 
ROOT
HETATM    1  C4  UNL     1      25.189   0.855  52.372  1.00  0.00     0.066 A 
HETATM    2  C5  UNL     1      23.880   0.943  52.606  1.00  0.00     0.047 A 
HETATM    3  C6  UNL     1      22.787   1.846  52.200  1.00  0.00    -0.013 A 
HETATM    4  C7  UNL     1      23.150   2.937  51.317  1.00  0.00     0.090 A 
HETATM    5  C8  UNL     1      24.475   3.156  50.862  1.00  0.00     0.075 A 
HETATM    6  S1  UNL     1      25.720   2.194  51.283  1.00  0.00    -0.154 SA
HETATM    7  O3  UNL     1      22.205   4.018  50.717  1.00  0.00    -0.289 OA
HETATM    8  C9  UNL     1      21.118   3.338  49.897  1.00  0.00     0.200 A 
HETATM    9  N2  UNL     1      20.350   3.167  48.836  1.00  0.00    -0.148 NA
HETATM   10  N3  UNL     1      19.377   2.118  48.704  1.00  0.00    -0.286 N 
HETATM   11  C10 UNL     1      18.936   0.996  49.576  1.00  0.00     0.124 A 
HETATM   12  C11 UNL     1      19.575   0.950  50.788  1.00  0.00     0.028 A 
HETATM   13  C12 UNL     1      19.557   0.035  51.992  1.00  0.00     0.077 C 
HETATM   14  C14 UNL     1      20.795   0.169  52.699  1.00  0.00     0.020 C 
HETATM   15  C15 UNL     1      21.685   1.293  52.998  1.00  0.00     0.050 C 
HETATM   16  C16 UNL     1      20.770   2.524  53.359  1.00  0.00     0.041 C 
HETATM   17  C17 UNL     1      20.144   2.912  52.108  1.00  0.00    -0.009 C 
HETATM   18  C18 UNL     1      20.522   2.167  50.653  1.00  0.00     0.029 A 
HETATM   19  H9  UNL     1      26.874   2.068  50.471  1.00  0.00     0.102 HD
HETATM   20  H10 UNL     1      18.825   2.065  47.850  1.00  0.00     0.188 HD
ENDROOT
BRANCH   1  21
HETATM   21  N1  UNL     1      26.169  -0.099  52.842  1.00  0.00    -0.297 N 
HETATM   22  C3  UNL     1      26.792   0.305  54.057  1.00  0.00     0.365 C 
HETATM   23  O2  UNL     1      26.399   1.402  54.514  1.00  0.00    -0.238 OA
HETATM   24  H6  UNL     1      26.474  -1.018  52.425  1.00  0.00     0.171 HD
BRANCH  22  25
HETATM   25  O1  UNL     1      27.752  -0.416  54.710  1.00  0.00    -0.304 OA
BRANCH  25  26
HETATM   26  C2  UNL     1      29.154  -0.146  54.549  1.00  0.00     0.176 C 
HETATM   27  C1  UNL     1      29.648  -1.097  53.455  1.00  0.00     0.034 C 
ENDBRANCH  25  26
ENDBRANCH  22  25
ENDBRANCH   1  21
BRANCH  13  28
HETATM   28  O4  UNL     1      18.351  -0.479  51.804  1.00  0.00    -0.355 OA
HETATM   29  C13 UNL     1      17.736  -1.220  52.877  1.00  0.00     0.210 C 
ENDBRANCH  13  28
TORSDOF 4
ENDMDL
MODEL 4
REMARK VINA RESULT:      -7.4      2.678      3.349
REMARK  4 active torsions:
REMARK  status: ('A' for Active; 'I' for Inactive)
REMARK    1  A    between atoms: C2_2  and  O1_3 
REMARK    2  A    between atoms: O1_3  and  C3_4 
REMARK       I    between atoms: C3_4  and  N1_6 
REMARK    3  A    between atoms: N1_6  and  C4_7 
REMARK    4  A    between atoms: C12_19  and  O4_20 
ROOT
HETATM    1  C4  UNL     1      24.218   0.330  53.430  1.00  0.00     0.066 A 
HETATM    2  C5  UNL     1      23.785   0.964  52.342  1.00  0.00     0.047 A 
HETATM    3  C6  UNL     1      22.526   1.019  51.575  1.00  0.00    -0.013 A 
HETATM    4  C7  UNL     1      21.435   0.206  52.075  1.00  0.00     0.090 A 
HETATM    5  C8  UNL     1      21.544  -0.615  53.225  1.00  0.00     0.075 A 
HETATM    6  S1  UNL     1      22.911  -0.716  54.106  1.00  0.00    -0.154 SA
HETATM    7  O3  UNL     1      19.999   0.090  51.484  1.00  0.00    -0.289 OA
HETATM    8  C9  UNL     1      19.347   1.464  51.470  1.00  0.00     0.200 A 
HETATM    9  N2  UNL     1      18.369   2.327  51.681  1.00  0.00    -0.148 NA
HETATM   10  N3  UNL     1      18.461   3.735  51.408  1.00  0.00    -0.286 N 
HETATM   11  C10 UNL     1      19.530   4.620  50.872  1.00  0.00     0.124 A 
HETATM   12  C11 UNL     1      20.684   3.959  50.538  1.00  0.00     0.028 A 
HETATM   13  C12 UNL     1      22.048   4.349  50.016  1.00  0.00     0.077 C 
HETATM   14  C14 UNL     1      22.993   3.336  50.373  1.00  0.00     0.020 C 
HETATM   15  C15 UNL     1      22.942   1.875  50.456  1.00  0.00     0.050 C 
HETATM   16  C16 UNL     1      22.116   1.369  49.213  1.00  0.00     0.041 C 
HETATM   17  C17 UNL     1      20.746   1.771  49.478  1.00  0.00    -0.009 C 
HETATM   18  C18 UNL     1      20.296   2.509  50.916  1.00  0.00     0.029 A 
HETATM   19  H9  UNL     1      22.892  -1.078  55.475  1.00  0.00     0.102 HD
HETATM   20  H10 UNL     1      17.654   4.325  51.599  1.00  0.00     0.188 HD
ENDROOT
BRANCH   1  21
HETATM   21  N1  UNL     1      25.504   0.363  54.092  1.00  0.00    -0.297 N 
HETATM   22  C3  UNL     1      26.390  -0.648  53.626  1.00  0.00     0.365 C 
HETATM   23  O2  UNL     1      25.923  -1.392  52.734  1.00  0.00    -0.238 OA
HETATM   24  H6  UNL     1      25.862   1.010  54.844  1.00  0.00     0.171 HD
BRANCH  22  25
HETATM   25  O1  UNL     1      27.663  -0.833  54.086  1.00  0.00    -0.304 OA
BRANCH  25  26
HETATM   26  C2  UNL     1      28.615   0.241  54.160  1.00  0.00     0.176 C 
HETATM   27  C1  UNL     1      29.907  -0.292  53.535  1.00  0.00     0.034 C 
ENDBRANCH  25  26
ENDBRANCH  22  25
ENDBRANCH   1  21
BRANCH  13  28
HETATM   28  O4  UNL     1      21.699   5.499  49.456  1.00  0.00    -0.355 OA
HETATM   29  C13 UNL     1      21.812   5.639  48.026  1.00  0.00     0.210 C 
ENDBRANCH  13  28
TORSDOF 4
ENDMDL
MODEL 5
REMARK VINA RESULT:      -7.2      3.173      7.002
REMARK  4 active torsions:
REMARK  status: ('A' for Active; 'I' for Inactive)
REMARK    1  A    between atoms: C2_2  and  O1_3 
REMARK    2  A    between atoms: O1_3  and  C3_4 
REMARK       I    between atoms: C3_4  and  N1_6 
REMARK    3  A    between atoms: N1_6  and  C4_7 
REMARK    4  A    between atoms: C12_19  and  O4_20 
ROOT
HETATM    1  C4  UNL     1      22.409   2.294  48.282  1.00  0.00     0.066 A 
HETATM    2  C5  UNL     1      23.269   2.578  49.259  1.00  0.00     0.047 A 
HETATM    3  C6  UNL     1      23.346   2.330  50.711  1.00  0.00    -0.013 A 
HETATM    4  C7  UNL     1      22.244   1.591  51.295  1.00  0.00     0.090 A 
HETATM    5  C8  UNL     1      21.135   1.130  50.542  1.00  0.00     0.075 A 
HETATM    6  S1  UNL     1      20.998   1.378  48.937  1.00  0.00    -0.154 SA
HETATM    7  O3  UNL     1      22.076   1.170  52.785  1.00  0.00    -0.289 OA
HETATM    8  C9  UNL     1      23.252   0.300  53.199  1.00  0.00     0.200 A 
HETATM    9  N2  UNL     1      23.826  -0.750  53.758  1.00  0.00    -0.148 NA
HETATM   10  N3  UNL     1      25.242  -0.992  53.760  1.00  0.00    -0.286 N 
HETATM   11  C10 UNL     1      26.419  -0.266  53.211  1.00  0.00     0.124 A 
HETATM   12  C11 UNL     1      26.104   0.909  52.579  1.00  0.00     0.028 A 
HETATM   13  C12 UNL     1      26.864   1.979  51.830  1.00  0.00     0.077 C 
HETATM   14  C14 UNL     1      25.966   2.659  50.947  1.00  0.00     0.020 C 
HETATM   15  C15 UNL     1      24.566   3.080  51.037  1.00  0.00     0.050 C 
HETATM   16  C16 UNL     1      24.342   3.630  52.496  1.00  0.00     0.041 C 
HETATM   17  C17 UNL     1      24.401   2.463  53.357  1.00  0.00    -0.009 C 
HETATM   18  C18 UNL     1      24.564   0.910  52.742  1.00  0.00     0.029 A 
HETATM   19  H9  UNL     1      20.228   0.523  48.112  1.00  0.00     0.102 HD
HETATM   20  H10 UNL     1      25.597  -1.828  54.220  1.00  0.00     0.188 HD
ENDROOT
BRANCH   1  21
HETATM   21  N1  UNL     1      22.453   2.601  46.869  1.00  0.00    -0.297 N 
HETATM   22  C3  UNL     1      21.881   3.869  46.564  1.00  0.00     0.365 C 
HETATM   23  O2  UNL     1      21.440   4.502  47.549  1.00  0.00    -0.238 OA
HETATM   24  H6  UNL     1      22.835   2.037  46.065  1.00  0.00     0.171 HD
BRANCH  22  25
HETATM   25  O1  UNL     1      21.797   4.396  45.306  1.00  0.00    -0.304 OA
BRANCH  25  26
HETATM   26  C2  UNL     1      20.858   3.908  44.333  1.00  0.00     0.176 C 
HETATM   27  C1  UNL     1      19.547   4.653  44.596  1.00  0.00     0.034 C 
ENDBRANCH  25  26
ENDBRANCH  22  25
ENDBRANCH   1  21
BRANCH  13  28
HETATM   28  O4  UNL     1      28.054   1.760  52.371  1.00  0.00    -0.355 OA
HETATM   29  C13 UNL     1      28.448   2.535  53.521  1.00  0.00     0.210 C 
ENDBRANCH  13  28
TORSDOF 4
ENDMDL
MODEL 6
REMARK VINA RESULT:      -7.2      2.401      4.747
REMARK  4 active torsions:
REMARK  status: ('A' for Active; 'I' for Inactive)
REMARK    1  A    between atoms: C2_2  and  O1_3 
REMARK    2  A    between atoms: O1_3  and  C3_4 
REMARK       I    between atoms: C3_4  and  N1_6 
REMARK    3  A    between atoms: N1_6  and  C4_7 
REMARK    4  A    between atoms: C12_19  and  O4_20 
ROOT
HETATM    1  C4  UNL     1      25.721   1.126  52.104  1.00  0.00     0.066 A 
HETATM    2  C5  UNL     1      24.402   1.269  52.229  1.00  0.00     0.047 A 
HETATM    3  C6  UNL     1      23.398   2.264  51.809  1.00  0.00    -0.013 A 
HETATM    4  C7  UNL     1      23.896   3.402  51.062  1.00  0.00     0.090 A 
HETATM    5  C8  UNL     1      25.266   3.583  50.748  1.00  0.00     0.075 A 
HETATM    6  S1  UNL     1      26.417   2.518  51.190  1.00  0.00    -0.154 SA
HETATM    7  O3  UNL     1      23.065   4.583  50.479  1.00  0.00    -0.289 OA
HETATM    8  C9  UNL     1      22.028   4.039  49.509  1.00  0.00     0.200 A 
HETATM    9  N2  UNL     1      21.354   4.001  48.373  1.00  0.00    -0.148 NA
HETATM   10  N3  UNL     1      20.346   3.026  48.063  1.00  0.00    -0.286 N 
HETATM   11  C10 UNL     1      19.771   1.862  48.790  1.00  0.00     0.124 A 
HETATM   12  C11 UNL     1      20.291   1.677  50.045  1.00  0.00     0.028 A 
HETATM   13  C12 UNL     1      20.115   0.667  51.156  1.00  0.00     0.077 C 
HETATM   14  C14 UNL     1      21.286   0.670  51.979  1.00  0.00     0.020 C 
HETATM   15  C15 UNL     1      22.200   1.711  52.454  1.00  0.00     0.050 C 
HETATM   16  C16 UNL     1      21.318   2.958  52.841  1.00  0.00     0.041 C 
HETATM   17  C17 UNL     1      20.831   3.485  51.579  1.00  0.00    -0.009 C 
HETATM   18  C18 UNL     1      21.306   2.844  50.102  1.00  0.00     0.029 A 
HETATM   19  H9  UNL     1      27.634   2.394  50.476  1.00  0.00     0.102 HD
HETATM   20  H10 UNL     1      19.875   3.076  47.163  1.00  0.00     0.188 HD
ENDROOT
BRANCH   1  21
HETATM   21  N1  UNL     1      26.604   0.080  52.573  1.00  0.00    -0.297 N 
HETATM   22  C3  UNL     1      27.144   0.352  53.862  1.00  0.00     0.365 C 
HETATM   23  O2  UNL     1      26.774   1.433  54.374  1.00  0.00    -0.238 OA
HETATM   24  H6  UNL     1      26.892  -0.821  52.108  1.00  0.00     0.171 HD
BRANCH  22  25
HETATM   25  O1  UNL     1      28.004  -0.474  54.529  1.00  0.00    -0.304 OA
BRANCH  25  26
HETATM   26  C2  UNL     1      29.375  -0.635  54.130  1.00  0.00     0.176 C 
HETATM   27  C1  UNL     1      29.431  -1.930  53.315  1.00  0.00     0.034 C 
ENDBRANCH  25  26
ENDBRANCH  22  25
ENDBRANCH   1  21
BRANCH  13  28
HETATM   28  O4  UNL     1      18.908   0.240  50.817  1.00  0.00    -0.355 OA
HETATM   29  C13 UNL     1      18.112  -0.450  51.801  1.00  0.00     0.210 C 
ENDBRANCH  13  28
TORSDOF 4
ENDMDL
MODEL 7
REMARK VINA RESULT:      -6.9      2.575      3.698
REMARK  4 active torsions:
REMARK  status: ('A' for Active; 'I' for Inactive)
REMARK    1  A    between atoms: C2_2  and  O1_3 
REMARK    2  A    between atoms: O1_3  and  C3_4 
REMARK       I    between atoms: C3_4  and  N1_6 
REMARK    3  A    between atoms: N1_6  and  C4_7 
REMARK    4  A    between atoms: C12_19  and  O4_20 
ROOT
HETATM    1  C4  UNL     1      25.935   0.536  52.284  1.00  0.00     0.066 A 
HETATM    2  C5  UNL     1      24.671   0.814  51.964  1.00  0.00     0.047 A 
HETATM    3  C6  UNL     1      23.736   1.930  52.202  1.00  0.00    -0.013 A 
HETATM    4  C7  UNL     1      24.254   3.048  52.966  1.00  0.00     0.090 A 
HETATM    5  C8  UNL     1      25.574   3.091  53.479  1.00  0.00     0.075 A 
HETATM    6  S1  UNL     1      26.646   1.885  53.250  1.00  0.00    -0.154 SA
HETATM    7  O3  UNL     1      23.503   4.359  53.343  1.00  0.00    -0.289 OA
HETATM    8  C9  UNL     1      23.054   5.066  52.073  1.00  0.00     0.200 A 
HETATM    9  N2  UNL     1      22.898   6.106  51.273  1.00  0.00    -0.148 NA
HETATM   10  N3  UNL     1      22.302   6.038  49.968  1.00  0.00    -0.286 N 
HETATM   11  C10 UNL     1      21.729   4.940  49.144  1.00  0.00     0.124 A 
HETATM   12  C11 UNL     1      21.743   3.716  49.762  1.00  0.00     0.028 A 
HETATM   13  C12 UNL     1      21.349   2.305  49.389  1.00  0.00     0.077 C 
HETATM   14  C14 UNL     1      22.082   1.384  50.203  1.00  0.00     0.020 C 
HETATM   15  C15 UNL     1      22.515   1.377  51.602  1.00  0.00     0.050 C 
HETATM   16  C16 UNL     1      21.328   1.961  52.457  1.00  0.00     0.041 C 
HETATM   17  C17 UNL     1      21.278   3.373  52.125  1.00  0.00    -0.009 C 
HETATM   18  C18 UNL     1      22.407   4.090  51.110  1.00  0.00     0.029 A 
HETATM   19  H9  UNL     1      28.044   2.113  53.279  1.00  0.00     0.102 HD
HETATM   20  H10 UNL     1      22.219   6.893  49.422  1.00  0.00     0.188 HD
ENDROOT
BRANCH   1  21
HETATM   21  N1  UNL     1      26.751  -0.619  51.983  1.00  0.00    -0.297 N 
HETATM   22  C3  UNL     1      26.867  -1.513  53.084  1.00  0.00     0.365 C 
HETATM   23  O2  UNL     1      26.255  -1.162  54.118  1.00  0.00    -0.238 OA
HETATM   24  H6  UNL     1      27.253  -0.880  51.093  1.00  0.00     0.171 HD
BRANCH  22  25
HETATM   25  O1  UNL     1      27.581  -2.678  53.062  1.00  0.00    -0.304 OA
BRANCH  25  26
HETATM   26  C2  UNL     1      29.013  -2.700  53.183  1.00  0.00     0.176 C 
HETATM   27  C1  UNL     1      29.433  -1.270  53.534  1.00  0.00     0.034 C 
ENDBRANCH  25  26
ENDBRANCH  22  25
ENDBRANCH   1  21
BRANCH  13  28
HETATM   28  O4  UNL     1      20.478   2.612  48.439  1.00  0.00    -0.355 OA
HETATM   29  C13 UNL     1      19.069   2.499  48.724  1.00  0.00     0.210 C 
ENDBRANCH  13  28
TORSDOF 4
ENDMDL
MODEL 8
REMARK VINA RESULT:      -6.7      4.156      6.175
REMARK  4 active torsions:
REMARK  status: ('A' for Active; 'I' for Inactive)
REMARK    1  A    between atoms: C2_2  and  O1_3 
REMARK    2  A    between atoms: O1_3  and  C3_4 
REMARK       I    between atoms: C3_4  and  N1_6 
REMARK    3  A    between atoms: N1_6  and  C4_7 
REMARK    4  A    between atoms: C12_19  and  O4_20 
ROOT
HETATM    1  C4  UNL     1      18.196   0.294  51.419  1.00  0.00     0.066 A 
HETATM    2  C5  UNL     1      19.482   0.517  51.149  1.00  0.00     0.047 A 
HETATM    3  C6  UNL     1      20.284   1.660  50.673  1.00  0.00    -0.013 A 
HETATM    4  C7  UNL     1      19.560   2.889  50.417  1.00  0.00     0.090 A 
HETATM    5  C8  UNL     1      18.159   3.014  50.592  1.00  0.00     0.075 A 
HETATM    6  S1  UNL     1      17.225   1.784  51.111  1.00  0.00    -0.154 SA
HETATM    7  O3  UNL     1      20.151   4.246  49.934  1.00  0.00    -0.289 OA
HETATM    8  C9  UNL     1      21.186   4.731  50.937  1.00  0.00     0.200 A 
HETATM    9  N2  UNL     1      21.772   5.622  51.717  1.00  0.00    -0.148 NA
HETATM   10  N3  UNL     1      22.895   5.337  52.567  1.00  0.00    -0.286 N 
HETATM   11  C10 UNL     1      23.698   4.117  52.852  1.00  0.00     0.124 A 
HETATM   12  C11 UNL     1      23.307   3.014  52.137  1.00  0.00     0.028 A 
HETATM   13  C12 UNL     1      23.719   1.562  52.067  1.00  0.00     0.077 C 
HETATM   14  C14 UNL     1      22.626   0.789  51.561  1.00  0.00     0.020 C 
HETATM   15  C15 UNL     1      21.598   1.016  50.543  1.00  0.00     0.050 C 
HETATM   16  C16 UNL     1      22.300   1.739  49.331  1.00  0.00     0.041 C 
HETATM   17  C17 UNL     1      22.604   3.075  49.809  1.00  0.00    -0.009 C 
HETATM   18  C18 UNL     1      22.128   3.608  51.328  1.00  0.00     0.029 A 
HETATM   19  H9  UNL     1      15.993   2.009  51.772  1.00  0.00     0.102 HD
HETATM   20  H10 UNL     1      23.285   6.088  53.133  1.00  0.00     0.188 HD
ENDROOT
BRANCH   1  21
HETATM   21  N1  UNL     1      17.525  -0.898  51.889  1.00  0.00    -0.297 N 
HETATM   22  C3  UNL     1      18.067  -1.390  53.110  1.00  0.00     0.365 C 
HETATM   23  O2  UNL     1      19.021  -0.724  53.572  1.00  0.00    -0.238 OA
HETATM   24  H6  UNL     1      16.720  -1.432  51.467  1.00  0.00     0.171 HD
BRANCH  22  25
HETATM   25  O1  UNL     1      17.614  -2.501  53.765  1.00  0.00    -0.304 OA
BRANCH  25  26
HETATM   26  C2  UNL     1      16.617  -3.368  53.200  1.00  0.00     0.176 C 
HETATM   27  C1  UNL     1      16.741  -4.700  53.946  1.00  0.00     0.034 C 
ENDBRANCH  25  26
ENDBRANCH  22  25
ENDBRANCH   1  21
BRANCH  13  28
HETATM   28  O4  UNL     1      24.951   1.706  52.534  1.00  0.00    -0.355 OA
HETATM   29  C13 UNL     1      26.025   0.984  51.899  1.00  0.00     0.210 C 
ENDBRANCH  13  28
TORSDOF 4
ENDMDL
MODEL 9
REMARK VINA RESULT:      -6.7     23.428     25.535
REMARK  4 active torsions:
REMARK  status: ('A' for Active; 'I' for Inactive)
REMARK    1  A    between atoms: C2_2  and  O1_3 
REMARK    2  A    between atoms: O1_3  and  C3_4 
REMARK       I    between atoms: C3_4  and  N1_6 
REMARK    3  A    between atoms: N1_6  and  C4_7 
REMARK    4  A    between atoms: C12_19  and  O4_20 
ROOT
HETATM    1  C4  UNL     1      44.732   4.744  67.874  1.00  0.00     0.066 A 
HETATM    2  C5  UNL     1      44.463   3.497  68.259  1.00  0.00     0.047 A 
HETATM    3  C6  UNL     1      43.484   2.849  69.152  1.00  0.00    -0.013 A 
HETATM    4  C7  UNL     1      42.537   3.727  69.810  1.00  0.00     0.090 A 
HETATM    5  C8  UNL     1      42.535   5.134  69.636  1.00  0.00     0.075 A 
HETATM    6  S1  UNL     1      43.595   5.901  68.665  1.00  0.00    -0.154 SA
HETATM    7  O3  UNL     1      41.389   3.318  70.779  1.00  0.00    -0.289 OA
HETATM    8  C9  UNL     1      40.443   2.365  70.066  1.00  0.00     0.200 A 
HETATM    9  N2  UNL     1      39.261   1.909  69.690  1.00  0.00    -0.148 NA
HETATM   10  N3  UNL     1      39.070   0.765  68.842  1.00  0.00    -0.286 N 
HETATM   11  C10 UNL     1      39.987  -0.189  68.163  1.00  0.00     0.124 A 
HETATM   12  C11 UNL     1      41.315   0.046  68.409  1.00  0.00     0.028 A 
HETATM   13  C12 UNL     1      42.627  -0.557  67.961  1.00  0.00     0.077 C 
HETATM   14  C14 UNL     1      43.663   0.420  68.104  1.00  0.00     0.020 C 
HETATM   15  C15 UNL     1      43.958   1.460  69.091  1.00  0.00     0.050 C 
HETATM   16  C16 UNL     1      43.650   0.851  70.511  1.00  0.00     0.041 C 
HETATM   17  C17 UNL     1      42.204   0.731  70.568  1.00  0.00    -0.009 C 
HETATM   18  C18 UNL     1      41.215   1.286  69.331  1.00  0.00     0.029 A 
HETATM   19  H9  UNL     1      43.300   7.158  68.082  1.00  0.00     0.102 HD
HETATM   20  H10 UNL     1      38.120   0.483  68.606  1.00  0.00     0.188 HD
ENDROOT
BRANCH   1  21
HETATM   21  N1  UNL     1      45.742   5.255  66.974  1.00  0.00    -0.297 N 
HETATM   22  C3  UNL     1      45.393   5.091  65.603  1.00  0.00     0.365 C 
HETATM   23  O2  UNL     1      44.287   4.539  65.401  1.00  0.00    -0.238 OA
HETATM   24  H6  UNL     1      46.667   5.716  67.185  1.00  0.00     0.171 HD
BRANCH  22  25
HETATM   25  O1  UNL     1      46.172   5.488  64.554  1.00  0.00    -0.304 OA
BRANCH  25  26
HETATM   26  C2  UNL     1      45.679   6.354  63.519  1.00  0.00     0.176 C 
HETATM   27  C1  UNL     1      45.430   7.711  64.182  1.00  0.00     0.034 C 
ENDBRANCH  25  26
ENDBRANCH  22  25
ENDBRANCH   1  21
BRANCH  13  28
HETATM   28  O4  UNL     1      42.166  -1.754  67.629  1.00  0.00    -0.355 OA
HETATM   29  C13 UNL     1      42.227  -2.816  68.602  1.00  0.00     0.210 C 
ENDBRANCH  13  28
TORSDOF 4
ENDMDL
