MODEL 1
REMARK VINA RESULT:      -8.3      0.000      0.000
REMARK  7 active torsions:
REMARK  status: ('A' for Active; 'I' for Inactive)
REMARK    1  A    between atoms: O1_2  and  C2_3 
REMARK    2  A    between atoms: C5_6  and  C6_7 
REMARK    3  A    between atoms: C9_10  and  C10_11 
REMARK    4  A    between atoms: C10_11  and  C11_12 
REMARK    5  A    between atoms: C11_12  and  C12_13 
REMARK    6  A    between atoms: C12_13  and  C13_14 
REMARK    7  A    between atoms: C13_14  and  O3_16 
ROOT
HETATM    1  C6  UNL     1      24.205   1.105  52.092  1.00  0.00    -0.025 C 
HETATM    2  C7  UNL     1      24.606   0.442  53.148  1.00  0.00     0.013 C 
HETATM    3  C8  UNL     1      25.852   0.190  53.908  1.00  0.00     0.013 C 
HETATM    4  C9  UNL     1      27.033   0.827  54.029  1.00  0.00     0.010 C 
HETATM    5  C14 UNL     1      27.498   2.096  53.422  1.00  0.00     0.251 C 
HETATM    6  O4  UNL     1      28.281   2.676  54.257  1.00  0.00    -0.268 OA
HETATM    7  N1  UNL     1      27.228   2.710  52.168  1.00  0.00    -0.333 N 
HETATM    8  C15 UNL     1      26.186   2.536  51.215  1.00  0.00     0.092 C 
HETATM    9  C16 UNL     1      25.019   1.905  51.211  1.00  0.00     0.029 C 
HETATM   10  H15 UNL     1      27.978   3.396  51.999  1.00  0.00     0.168 HD
ENDROOT
BRANCH   1  11
HETATM   11  C5  UNL     1      22.798   1.008  51.770  1.00  0.00    -0.026 A 
HETATM   12  C4  UNL     1      22.215   1.430  50.604  1.00  0.00     0.015 A 
HETATM   13  C3  UNL     1      20.871   1.302  50.340  1.00  0.00     0.037 A 
HETATM   14  C2  UNL     1      19.993   0.748  51.205  1.00  0.00     0.068 A 
HETATM   15  C18 UNL     1      20.536   0.297  52.420  1.00  0.00     0.037 A 
HETATM   16  C17 UNL     1      21.887   0.450  52.632  1.00  0.00     0.015 A 
BRANCH  14  17
HETATM   17  O1  UNL     1      18.634   0.622  50.929  1.00  0.00    -0.356 OA
HETATM   18  C1  UNL     1      17.946  -0.448  51.605  1.00  0.00     0.210 C 
ENDBRANCH  14  17
ENDBRANCH   1  11
BRANCH   4  19
HETATM   19  C10 UNL     1      27.951   0.135  54.935  1.00  0.00     0.044 C 
BRANCH  19  20
HETATM   20  C11 UNL     1      29.205  -0.395  54.362  1.00  0.00     0.015 C 
BRANCH  20  21
HETATM   21  C12 UNL     1      29.200  -0.942  52.982  1.00  0.00     0.110 C 
BRANCH  21  22
HETATM   22  C13 UNL     1      28.584  -2.329  53.105  1.00  0.00     0.139 C 
HETATM   23  O2  UNL     1      27.388  -2.584  52.759  1.00  0.00    -0.650 OA
BRANCH  22  24
HETATM   24  O3  UNL     1      29.020  -3.582  53.549  1.00  0.00    -0.776 OA
HETATM   25  H14 UNL     1      29.009  -3.828  54.548  1.00  0.00     0.167 HD
ENDBRANCH  22  24
ENDBRANCH  21  22
ENDBRANCH  20  21
ENDBRANCH  19  20
ENDBRANCH   4  19
TORSDOF 7
ENDMDL
MODEL 2
REMARK VINA RESULT:      -8.2      2.238      3.822
REMARK  7 active torsions:
REMARK  status: ('A' for Active; 'I' for Inactive)
REMARK    1  A    between atoms: O1_2  and  C2_3 
REMARK    2  A    between atoms: C5_6  and  C6_7 
REMARK    3  A    between atoms: C9_10  and  C10_11 
REMARK    4  A    between atoms: C10_11  and  C11_12 
REMARK    5  A    between atoms: C11_12  and  C12_13 
REMARK    6  A    between atoms: C12_13  and  C13_14 
REMARK    7  A    between atoms: C13_14  and  O3_16 
ROOT
HETATM    1  C6  UNL     1      21.869  -0.426  53.617  1.00  0.00    -0.025 C 
HETATM    2  C7  UNL     1      22.616   0.181  52.729  1.00  0.00     0.013 C 
HETATM    3  C8  UNL     1      24.021   0.616  52.555  1.00  0.00     0.013 C 
HETATM    4  C9  UNL     1      25.199   0.252  53.096  1.00  0.00     0.010 C 
HETATM    5  C14 UNL     1      25.505  -0.799  54.093  1.00  0.00     0.251 C 
HETATM    6  O4  UNL     1      26.663  -1.282  53.824  1.00  0.00    -0.268 OA
HETATM    7  N1  UNL     1      24.773  -1.307  55.202  1.00  0.00    -0.333 N 
HETATM    8  C15 UNL     1      23.392  -1.261  55.546  1.00  0.00     0.092 C 
HETATM    9  C16 UNL     1      22.282  -0.914  54.910  1.00  0.00     0.029 C 
HETATM   10  H15 UNL     1      25.447  -1.782  55.818  1.00  0.00     0.168 HD
ENDROOT
BRANCH   1  11
HETATM   11  C5  UNL     1      20.478  -0.611  53.266  1.00  0.00    -0.026 A 
HETATM   12  C4  UNL     1      19.621  -1.513  53.842  1.00  0.00     0.015 A 
HETATM   13  C3  UNL     1      18.300  -1.640  53.481  1.00  0.00     0.037 A 
HETATM   14  C2  UNL     1      17.716  -0.890  52.521  1.00  0.00     0.068 A 
HETATM   15  C18 UNL     1      18.548   0.054  51.895  1.00  0.00     0.037 A 
HETATM   16  C17 UNL     1      19.862   0.139  52.295  1.00  0.00     0.015 A 
BRANCH  14  17
HETATM   17  O1  UNL     1      16.378  -1.025  52.162  1.00  0.00    -0.356 OA
HETATM   18  C1  UNL     1      15.474  -0.039  52.700  1.00  0.00     0.210 C 
ENDBRANCH  14  17
ENDBRANCH   1  11
BRANCH   4  19
HETATM   19  C10 UNL     1      26.322   1.022  52.559  1.00  0.00     0.044 C 
BRANCH  19  20
HETATM   20  C11 UNL     1      26.839   2.137  53.378  1.00  0.00     0.015 C 
BRANCH  20  21
HETATM   21  C12 UNL     1      28.303   2.371  53.446  1.00  0.00     0.110 C 
BRANCH  21  22
HETATM   22  C13 UNL     1      28.874   1.138  54.134  1.00  0.00     0.139 C 
HETATM   23  O2  UNL     1      29.825   0.454  53.641  1.00  0.00    -0.650 OA
BRANCH  22  24
HETATM   24  O3  UNL     1      28.617   0.446  55.322  1.00  0.00    -0.776 OA
HETATM   25  H14 UNL     1      28.984  -0.504  55.477  1.00  0.00     0.167 HD
ENDBRANCH  22  24
ENDBRANCH  21  22
ENDBRANCH  20  21
ENDBRANCH  19  20
ENDBRANCH   4  19
TORSDOF 7
ENDMDL
MODEL 3
REMARK VINA RESULT:      -8.1      2.114      2.777
REMARK  7 active torsions:
REMARK  status: ('A' for Active; 'I' for Inactive)
REMARK    1  A    between atoms: O1_2  and  C2_3 
REMARK    2  A    between atoms: C5_6  and  C6_7 
REMARK    3  A    between atoms: C9_10  and  C10_11 
REMARK    4  A    between atoms: C10_11  and  C11_12 
REMARK    5  A    between atoms: C11_12  and  C12_13 
REMARK    6  A    between atoms: C12_13  and  C13_14 
REMARK    7  A    between atoms: C13_14  and  O3_16 
ROOT
HETATM    1  C6  UNL     1      22.074   0.539  52.271  1.00  0.00    -0.025 C 
HETATM    2  C7  UNL     1      22.791  -0.248  53.033  1.00  0.00     0.013 C 
HETATM    3  C8  UNL     1      24.189  -0.384  53.505  1.00  0.00     0.013 C 
HETATM    4  C9  UNL     1      25.234   0.458  53.626  1.00  0.00     0.010 C 
HETATM    5  C14 UNL     1      25.328   1.907  53.334  1.00  0.00     0.251 C 
HETATM    6  O4  UNL     1      26.142   2.433  54.176  1.00  0.00    -0.268 OA
HETATM    7  N1  UNL     1      24.707   2.726  52.352  1.00  0.00    -0.333 N 
HETATM    8  C15 UNL     1      23.545   2.553  51.548  1.00  0.00     0.092 C 
HETATM    9  C16 UNL     1      22.536   1.692  51.538  1.00  0.00     0.029 C 
HETATM   10  H15 UNL     1      25.269   3.585  52.274  1.00  0.00     0.168 HD
ENDROOT
BRANCH   1  11
HETATM   11  C5  UNL     1      20.673   0.203  52.141  1.00  0.00    -0.026 A 
HETATM   12  C4  UNL     1      19.886   0.468  51.050  1.00  0.00     0.015 A 
HETATM   13  C3  UNL     1      18.559   0.114  50.971  1.00  0.00     0.037 A 
HETATM   14  C2  UNL     1      17.900  -0.528  51.960  1.00  0.00     0.068 A 
HETATM   15  C18 UNL     1      18.659  -0.826  53.104  1.00  0.00     0.037 A 
HETATM   16  C17 UNL     1      19.982  -0.450  53.131  1.00  0.00     0.015 A 
BRANCH  14  17
HETATM   17  O1  UNL     1      16.557  -0.883  51.870  1.00  0.00    -0.356 OA
HETATM   18  C1  UNL     1      15.660  -0.208  52.773  1.00  0.00     0.210 C 
ENDBRANCH  14  17
ENDBRANCH   1  11
BRANCH   4  19
HETATM   19  C10 UNL     1      26.424  -0.203  54.163  1.00  0.00     0.044 C 
BRANCH  19  20
HETATM   20  C11 UNL     1      27.508  -0.530  53.215  1.00  0.00     0.015 C 
BRANCH  20  21
HETATM   21  C12 UNL     1      28.920  -0.326  53.627  1.00  0.00     0.110 C 
BRANCH  21  22
HETATM   22  C13 UNL     1      29.060   1.175  53.846  1.00  0.00     0.139 C 
HETATM   23  O2  UNL     1      29.317   1.683  54.982  1.00  0.00    -0.650 OA
BRANCH  22  24
HETATM   24  O3  UNL     1      28.978   2.316  53.041  1.00  0.00    -0.776 OA
HETATM   25  H14 UNL     1      29.811   2.700  52.573  1.00  0.00     0.167 HD
ENDBRANCH  22  24
ENDBRANCH  21  22
ENDBRANCH  20  21
ENDBRANCH  19  20
ENDBRANCH   4  19
TORSDOF 7
ENDMDL
MODEL 4
REMARK VINA RESULT:      -8.0      2.806      6.530
REMARK  7 active torsions:
REMARK  status: ('A' for Active; 'I' for Inactive)
REMARK    1  A    between atoms: O1_2  and  C2_3 
REMARK    2  A    between atoms: C5_6  and  C6_7 
REMARK    3  A    between atoms: C9_10  and  C10_11 
REMARK    4  A    between atoms: C10_11  and  C11_12 
REMARK    5  A    between atoms: C11_12  and  C12_13 
REMARK    6  A    between atoms: C12_13  and  C13_14 
REMARK    7  A    between atoms: C13_14  and  O3_16 
ROOT
HETATM    1  C6  UNL     1      25.350   1.583  51.766  1.00  0.00    -0.025 C 
HETATM    2  C7  UNL     1      24.184   1.422  52.340  1.00  0.00     0.013 C 
HETATM    3  C8  UNL     1      23.497   0.463  53.235  1.00  0.00     0.013 C 
HETATM    4  C9  UNL     1      23.905  -0.469  54.117  1.00  0.00     0.010 C 
HETATM    5  C14 UNL     1      25.274  -0.848  54.537  1.00  0.00     0.251 C 
HETATM    6  O4  UNL     1      25.233  -1.193  55.773  1.00  0.00    -0.268 OA
HETATM    7  N1  UNL     1      26.512  -0.883  53.838  1.00  0.00    -0.333 N 
HETATM    8  C15 UNL     1      26.960  -0.258  52.640  1.00  0.00     0.092 C 
HETATM    9  C16 UNL     1      26.488   0.700  51.854  1.00  0.00     0.029 C 
HETATM   10  H15 UNL     1      27.144  -1.499  54.370  1.00  0.00     0.168 HD
ENDROOT
BRANCH   1  11
HETATM   11  C5  UNL     1      25.505   2.764  50.946  1.00  0.00    -0.026 A 
HETATM   12  C4  UNL     1      24.631   3.818  50.890  1.00  0.00     0.015 A 
HETATM   13  C3  UNL     1      24.831   4.927  50.102  1.00  0.00     0.037 A 
HETATM   14  C2  UNL     1      25.909   5.087  49.304  1.00  0.00     0.068 A 
HETATM   15  C18 UNL     1      26.842   4.036  49.320  1.00  0.00     0.037 A 
HETATM   16  C17 UNL     1      26.591   2.949  50.127  1.00  0.00     0.015 A 
BRANCH  14  17
HETATM   17  O1  UNL     1      26.105   6.214  48.509  1.00  0.00    -0.356 OA
HETATM   18  C1  UNL     1      27.474   6.583  48.257  1.00  0.00     0.210 C 
ENDBRANCH  14  17
ENDBRANCH   1  11
BRANCH   4  19
HETATM   19  C10 UNL     1      22.786  -1.162  54.756  1.00  0.00     0.044 C 
BRANCH  19  20
HETATM   20  C11 UNL     1      21.453  -0.533  54.665  1.00  0.00     0.015 C 
BRANCH  20  21
HETATM   21  C12 UNL     1      20.351  -1.261  53.986  1.00  0.00     0.110 C 
BRANCH  21  22
HETATM   22  C13 UNL     1      19.707  -0.237  53.061  1.00  0.00     0.139 C 
HETATM   23  O2  UNL     1      18.643  -0.474  52.407  1.00  0.00    -0.650 OA
BRANCH  22  24
HETATM   24  O3  UNL     1      19.988   1.077  52.671  1.00  0.00    -0.776 OA
HETATM   25  H14 UNL     1      19.631   1.881  53.206  1.00  0.00     0.167 HD
ENDBRANCH  22  24
ENDBRANCH  21  22
ENDBRANCH  20  21
ENDBRANCH  19  20
ENDBRANCH   4  19
TORSDOF 7
ENDMDL
MODEL 5
REMARK VINA RESULT:      -7.7      4.558      6.934
REMARK  7 active torsions:
REMARK  status: ('A' for Active; 'I' for Inactive)
REMARK    1  A    between atoms: O1_2  and  C2_3 
REMARK    2  A    between atoms: C5_6  and  C6_7 
REMARK    3  A    between atoms: C9_10  and  C10_11 
REMARK    4  A    between atoms: C10_11  and  C11_12 
REMARK    5  A    between atoms: C11_12  and  C12_13 
REMARK    6  A    between atoms: C12_13  and  C13_14 
REMARK    7  A    between atoms: C13_14  and  O3_16 
ROOT
HETATM    1  C6  UNL     1      25.905   4.115  50.177  1.00  0.00    -0.025 C 
HETATM    2  C7  UNL     1      27.005   4.166  49.469  1.00  0.00     0.013 C 
HETATM    3  C8  UNL     1      27.724   5.108  48.580  1.00  0.00     0.013 C 
HETATM    4  C9  UNL     1      27.715   6.444  48.410  1.00  0.00     0.010 C 
HETATM    5  C14 UNL     1      26.951   7.490  49.128  1.00  0.00     0.251 C 
HETATM    6  O4  UNL     1      27.678   8.547  49.188  1.00  0.00    -0.268 OA
HETATM    7  N1  UNL     1      25.653   7.497  49.709  1.00  0.00    -0.333 N 
HETATM    8  C15 UNL     1      24.778   6.453  50.122  1.00  0.00     0.092 C 
HETATM    9  C16 UNL     1      24.902   5.144  50.296  1.00  0.00     0.029 C 
HETATM   10  H15 UNL     1      25.374   8.482  49.815  1.00  0.00     0.168 HD
ENDROOT
BRANCH   1  11
HETATM   11  C5  UNL     1      25.666   2.887  50.903  1.00  0.00    -0.026 A 
HETATM   12  C4  UNL     1      26.619   1.962  51.245  1.00  0.00     0.015 A 
HETATM   13  C3  UNL     1      26.342   0.814  51.951  1.00  0.00     0.037 A 
HETATM   14  C2  UNL     1      25.103   0.485  52.376  1.00  0.00     0.068 A 
HETATM   15  C18 UNL     1      24.084   1.398  52.055  1.00  0.00     0.037 A 
HETATM   16  C17 UNL     1      24.417   2.530  51.347  1.00  0.00     0.015 A 
BRANCH  14  17
HETATM   17  O1  UNL     1      24.832  -0.679  53.091  1.00  0.00    -0.356 OA
HETATM   18  C1  UNL     1      23.540  -0.747  53.726  1.00  0.00     0.210 C 
ENDBRANCH  14  17
ENDBRANCH   1  11
BRANCH   4  19
HETATM   19  C10 UNL     1      28.644   6.881  47.366  1.00  0.00     0.044 C 
BRANCH  19  20
HETATM   20  C11 UNL     1      30.058   6.476  47.499  1.00  0.00     0.015 C 
BRANCH  20  21
HETATM   21  C12 UNL     1      30.890   7.083  48.568  1.00  0.00     0.110 C 
BRANCH  21  22
HETATM   22  C13 UNL     1      31.467   5.906  49.343  1.00  0.00     0.139 C 
HETATM   23  O2  UNL     1      32.198   5.019  48.801  1.00  0.00    -0.650 OA
BRANCH  22  24
HETATM   24  O3  UNL     1      31.419   5.460  50.668  1.00  0.00    -0.776 OA
HETATM   25  H14 UNL     1      31.626   4.480  50.909  1.00  0.00     0.167 HD
ENDBRANCH  22  24
ENDBRANCH  21  22
ENDBRANCH  20  21
ENDBRANCH  19  20
ENDBRANCH   4  19
TORSDOF 7
ENDMDL
MODEL 6
REMARK VINA RESULT:      -7.7      2.895      8.680
REMARK  7 active torsions:
REMARK  status: ('A' for Active; 'I' for Inactive)
REMARK    1  A    between atoms: O1_2  and  C2_3 
REMARK    2  A    between atoms: C5_6  and  C6_7 
REMARK    3  A    between atoms: C9_10  and  C10_11 
REMARK    4  A    between atoms: C10_11  and  C11_12 
REMARK    5  A    between atoms: C11_12  and  C12_13 
REMARK    6  A    between atoms: C12_13  and  C13_14 
REMARK    7  A    between atoms: C13_14  and  O3_16 
ROOT
HETATM    1  C6  UNL     1      22.660  -0.130  53.140  1.00  0.00    -0.025 C 
HETATM    2  C7  UNL     1      22.053   0.501  52.167  1.00  0.00     0.013 C 
HETATM    3  C8  UNL     1      20.749   0.488  51.463  1.00  0.00     0.013 C 
HETATM    4  C9  UNL     1      19.512   0.052  51.769  1.00  0.00     0.010 C 
HETATM    5  C14 UNL     1      19.003  -0.576  53.010  1.00  0.00     0.251 C 
HETATM    6  O4  UNL     1      17.786  -0.204  53.177  1.00  0.00    -0.268 OA
HETATM    7  N1  UNL     1      19.608  -1.448  53.957  1.00  0.00    -0.333 N 
HETATM    8  C15 UNL     1      20.966  -1.747  54.260  1.00  0.00     0.092 C 
HETATM    9  C16 UNL     1      22.136  -1.218  53.928  1.00  0.00     0.029 C 
HETATM   10  H15 UNL     1      18.846  -1.905  54.477  1.00  0.00     0.168 HD
ENDROOT
BRANCH   1  11
HETATM   11  C5  UNL     1      24.006   0.304  53.443  1.00  0.00    -0.026 A 
HETATM   12  C4  UNL     1      24.545   1.523  53.124  1.00  0.00     0.015 A 
HETATM   13  C3  UNL     1      25.829   1.892  53.448  1.00  0.00     0.037 A 
HETATM   14  C2  UNL     1      26.688   1.089  54.113  1.00  0.00     0.068 A 
HETATM   15  C18 UNL     1      26.189  -0.176  54.468  1.00  0.00     0.037 A 
HETATM   16  C17 UNL     1      24.897  -0.493  54.119  1.00  0.00     0.015 A 
BRANCH  14  17
HETATM   17  O1  UNL     1      27.987   1.472  54.439  1.00  0.00    -0.356 OA
HETATM   18  C1  UNL     1      28.576   2.488  53.605  1.00  0.00     0.210 C 
ENDBRANCH  14  17
ENDBRANCH   1  11
BRANCH   4  19
HETATM   19  C10 UNL     1      18.553   0.288  50.688  1.00  0.00     0.044 C 
BRANCH  19  20
HETATM   20  C11 UNL     1      18.465   1.658  50.142  1.00  0.00     0.015 C 
BRANCH  20  21
HETATM   21  C12 UNL     1      17.219   2.440  50.339  1.00  0.00     0.110 C 
BRANCH  21  22
HETATM   22  C13 UNL     1      17.486   3.316  51.556  1.00  0.00     0.139 C 
HETATM   23  O2  UNL     1      18.650   3.494  52.033  1.00  0.00    -0.650 OA
BRANCH  22  24
HETATM   24  O3  UNL     1      16.707   4.093  52.420  1.00  0.00    -0.776 OA
HETATM   25  H14 UNL     1      16.827   4.040  53.441  1.00  0.00     0.167 HD
ENDBRANCH  22  24
ENDBRANCH  21  22
ENDBRANCH  20  21
ENDBRANCH  19  20
ENDBRANCH   4  19
TORSDOF 7
ENDMDL
MODEL 7
REMARK VINA RESULT:      -7.7      4.248      8.073
REMARK  7 active torsions:
REMARK  status: ('A' for Active; 'I' for Inactive)
REMARK    1  A    between atoms: O1_2  and  C2_3 
REMARK    2  A    between atoms: C5_6  and  C6_7 
REMARK    3  A    between atoms: C9_10  and  C10_11 
REMARK    4  A    between atoms: C10_11  and  C11_12 
REMARK    5  A    between atoms: C11_12  and  C12_13 
REMARK    6  A    between atoms: C12_13  and  C13_14 
REMARK    7  A    between atoms: C13_14  and  O3_16 
ROOT
HETATM    1  C6  UNL     1      25.441   2.858  51.653  1.00  0.00    -0.025 C 
HETATM    2  C7  UNL     1      25.955   3.493  50.629  1.00  0.00     0.013 C 
HETATM    3  C8  UNL     1      25.649   4.653  49.761  1.00  0.00     0.013 C 
HETATM    4  C9  UNL     1      24.886   5.756  49.887  1.00  0.00     0.010 C 
HETATM    5  C14 UNL     1      24.066   6.222  51.030  1.00  0.00     0.251 C 
HETATM    6  O4  UNL     1      24.096   7.505  51.048  1.00  0.00    -0.268 OA
HETATM    7  N1  UNL     1      23.322   5.522  52.019  1.00  0.00    -0.333 N 
HETATM    8  C15 UNL     1      23.367   4.179  52.488  1.00  0.00     0.092 C 
HETATM    9  C16 UNL     1      24.204   3.162  52.330  1.00  0.00     0.029 C 
HETATM   10  H15 UNL     1      22.648   6.190  52.419  1.00  0.00     0.168 HD
ENDROOT
BRANCH   1  11
HETATM   11  C5  UNL     1      26.189   1.722  52.144  1.00  0.00    -0.026 A 
HETATM   12  C4  UNL     1      25.764   0.419  52.131  1.00  0.00     0.015 A 
HETATM   13  C3  UNL     1      26.522  -0.629  52.599  1.00  0.00     0.037 A 
HETATM   14  C2  UNL     1      27.760  -0.478  53.118  1.00  0.00     0.068 A 
HETATM   15  C18 UNL     1      28.249   0.839  53.157  1.00  0.00     0.037 A 
HETATM   16  C17 UNL     1      27.449   1.850  52.675  1.00  0.00     0.015 A 
BRANCH  14  17
HETATM   17  O1  UNL     1      28.520  -1.546  53.588  1.00  0.00    -0.356 OA
HETATM   18  C1  UNL     1      29.922  -1.284  53.796  1.00  0.00     0.210 C 
ENDBRANCH  14  17
ENDBRANCH   1  11
BRANCH   4  19
HETATM   19  C10 UNL     1      24.935   6.609  48.698  1.00  0.00     0.044 C 
BRANCH  19  20
HETATM   20  C11 UNL     1      26.267   6.958  48.164  1.00  0.00     0.015 C 
BRANCH  20  21
HETATM   21  C12 UNL     1      26.637   8.388  48.011  1.00  0.00     0.110 C 
BRANCH  21  22
HETATM   22  C13 UNL     1      26.671   8.945  49.428  1.00  0.00     0.139 C 
HETATM   23  O2  UNL     1      26.348  10.143  49.704  1.00  0.00    -0.650 OA
BRANCH  22  24
HETATM   24  O3  UNL     1      26.998   8.445  50.693  1.00  0.00    -0.776 OA
HETATM   25  H14 UNL     1      27.893   8.678  51.145  1.00  0.00     0.167 HD
ENDBRANCH  22  24
ENDBRANCH  21  22
ENDBRANCH  20  21
ENDBRANCH  19  20
ENDBRANCH   4  19
TORSDOF 7
ENDMDL
MODEL 8
REMARK VINA RESULT:      -7.5      2.201      3.539
REMARK  7 active torsions:
REMARK  status: ('A' for Active; 'I' for Inactive)
REMARK    1  A    between atoms: O1_2  and  C2_3 
REMARK    2  A    between atoms: C5_6  and  C6_7 
REMARK    3  A    between atoms: C9_10  and  C10_11 
REMARK    4  A    between atoms: C10_11  and  C11_12 
REMARK    5  A    between atoms: C11_12  and  C12_13 
REMARK    6  A    between atoms: C12_13  and  C13_14 
REMARK    7  A    between atoms: C13_14  and  O3_16 
ROOT
HETATM    1  C6  UNL     1      21.296   0.245  52.746  1.00  0.00    -0.025 C 
HETATM    2  C7  UNL     1      22.444   0.571  52.206  1.00  0.00     0.013 C 
HETATM    3  C8  UNL     1      23.873   0.669  52.583  1.00  0.00     0.013 C 
HETATM    4  C9  UNL     1      24.638   0.123  53.547  1.00  0.00     0.010 C 
HETATM    5  C14 UNL     1      24.285  -0.849  54.607  1.00  0.00     0.251 C 
HETATM    6  O4  UNL     1      25.305  -1.599  54.819  1.00  0.00    -0.268 OA
HETATM    7  N1  UNL     1      23.093  -1.057  55.354  1.00  0.00    -0.333 N 
HETATM    8  C15 UNL     1      21.739  -0.675  55.133  1.00  0.00     0.092 C 
HETATM    9  C16 UNL     1      21.066  -0.171  54.108  1.00  0.00     0.029 C 
HETATM   10  H15 UNL     1      23.351  -1.594  56.194  1.00  0.00     0.168 HD
ENDROOT
BRANCH   1  11
HETATM   11  C5  UNL     1      20.136   0.326  51.886  1.00  0.00    -0.026 A 
HETATM   12  C4  UNL     1      18.910  -0.229  52.144  1.00  0.00     0.015 A 
HETATM   13  C3  UNL     1      17.832  -0.110  51.297  1.00  0.00     0.037 A 
HETATM   14  C2  UNL     1      17.876   0.564  50.128  1.00  0.00     0.068 A 
HETATM   15  C18 UNL     1      19.111   1.156  49.811  1.00  0.00     0.037 A 
HETATM   16  C17 UNL     1      20.156   1.006  50.694  1.00  0.00     0.015 A 
BRANCH  14  17
HETATM   17  O1  UNL     1      16.779   0.680  49.278  1.00  0.00    -0.356 OA
HETATM   18  C1  UNL     1      16.586   1.969  48.664  1.00  0.00     0.210 C 
ENDBRANCH  14  17
ENDBRANCH   1  11
BRANCH   4  19
HETATM   19  C10 UNL     1      26.032   0.565  53.473  1.00  0.00     0.044 C 
BRANCH  19  20
HETATM   20  C11 UNL     1      26.931  -0.166  52.557  1.00  0.00     0.015 C 
BRANCH  20  21
HETATM   21  C12 UNL     1      28.155  -0.808  53.099  1.00  0.00     0.110 C 
BRANCH  21  22
HETATM   22  C13 UNL     1      27.956  -2.301  52.873  1.00  0.00     0.139 C 
HETATM   23  O2  UNL     1      27.044  -2.767  52.122  1.00  0.00    -0.650 OA
BRANCH  22  24
HETATM   24  O3  UNL     1      28.582  -3.471  53.315  1.00  0.00    -0.776 OA
HETATM   25  H14 UNL     1      28.071  -4.365  53.361  1.00  0.00     0.167 HD
ENDBRANCH  22  24
ENDBRANCH  21  22
ENDBRANCH  20  21
ENDBRANCH  19  20
ENDBRANCH   4  19
TORSDOF 7
ENDMDL
MODEL 9
REMARK VINA RESULT:      -7.5      4.159      7.340
REMARK  7 active torsions:
REMARK  status: ('A' for Active; 'I' for Inactive)
REMARK    1  A    between atoms: O1_2  and  C2_3 
REMARK    2  A    between atoms: C5_6  and  C6_7 
REMARK    3  A    between atoms: C9_10  and  C10_11 
REMARK    4  A    between atoms: C10_11  and  C11_12 
REMARK    5  A    between atoms: C11_12  and  C12_13 
REMARK    6  A    between atoms: C12_13  and  C13_14 
REMARK    7  A    between atoms: C13_14  and  O3_16 
ROOT
HETATM    1  C6  UNL     1      25.476   4.612  49.530  1.00  0.00    -0.025 C 
HETATM    2  C7  UNL     1      25.848   3.667  50.356  1.00  0.00     0.013 C 
HETATM    3  C8  UNL     1      25.238   2.651  51.245  1.00  0.00     0.013 C 
HETATM    4  C9  UNL     1      24.038   2.041  51.304  1.00  0.00     0.010 C 
HETATM    5  C14 UNL     1      22.859   2.173  50.418  1.00  0.00     0.251 C 
HETATM    6  O4  UNL     1      22.272   1.033  50.359  1.00  0.00    -0.268 OA
HETATM    7  N1  UNL     1      22.329   3.274  49.690  1.00  0.00    -0.333 N 
HETATM    8  C15 UNL     1      22.896   4.507  49.262  1.00  0.00     0.092 C 
HETATM    9  C16 UNL     1      24.125   5.003  49.211  1.00  0.00     0.029 C 
HETATM   10  H15 UNL     1      21.348   3.049  49.472  1.00  0.00     0.168 HD
ENDROOT
BRANCH   1  11
HETATM   11  C5  UNL     1      26.538   5.351  48.882  1.00  0.00    -0.026 A 
HETATM   12  C4  UNL     1      26.439   6.627  48.391  1.00  0.00     0.015 A 
HETATM   13  C3  UNL     1      27.485   7.293  47.795  1.00  0.00     0.037 A 
HETATM   14  C2  UNL     1      28.713   6.754  47.633  1.00  0.00     0.068 A 
HETATM   15  C18 UNL     1      28.873   5.445  48.119  1.00  0.00     0.037 A 
HETATM   16  C17 UNL     1      27.794   4.826  48.707  1.00  0.00     0.015 A 
BRANCH  14  17
HETATM   17  O1  UNL     1      29.766   7.435  47.029  1.00  0.00    -0.356 OA
HETATM   18  C1  UNL     1      29.423   8.260  45.899  1.00  0.00     0.210 C 
ENDBRANCH  14  17
ENDBRANCH   1  11
BRANCH   4  19
HETATM   19  C10 UNL     1      23.950   1.088  52.411  1.00  0.00     0.044 C 
BRANCH  19  20
HETATM   20  C11 UNL     1      25.130   0.241  52.678  1.00  0.00     0.015 C 
BRANCH  20  21
HETATM   21  C12 UNL     1      25.293  -0.378  54.017  1.00  0.00     0.110 C 
BRANCH  21  22
HETATM   22  C13 UNL     1      26.571   0.225  54.584  1.00  0.00     0.139 C 
HETATM   23  O2  UNL     1      26.765   1.479  54.659  1.00  0.00    -0.650 OA
BRANCH  22  24
HETATM   24  O3  UNL     1      27.760  -0.276  55.125  1.00  0.00    -0.776 OA
HETATM   25  H14 UNL     1      28.307  -0.998  54.636  1.00  0.00     0.167 HD
ENDBRANCH  22  24
ENDBRANCH  21  22
ENDBRANCH  20  21
ENDBRANCH  19  20
ENDBRANCH   4  19
TORSDOF 7
ENDMDL
