MODEL 1
REMARK VINA RESULT:      -7.8      0.000      0.000
REMARK  5 active torsions:
REMARK  status: ('A' for Active; 'I' for Inactive)
REMARK    1  A    between atoms: C3_3  and  C4_4 
REMARK    2  A    between atoms: C4_4  and  C5_5 
REMARK    3  A    between atoms: C5_5  and  O1_6 
REMARK    4  A    between atoms: C13_17  and  N4_18 
REMARK       I    between atoms: N4_18  and  C14_19 
REMARK    5  A    between atoms: C14_19  and  C15_21 
ROOT
HETATM    1  O1  UNL     1      23.541   3.729  52.097  1.00  0.00     0.000 OA
HETATM    2  C6  UNL     1      23.410   4.480  50.911  1.00  0.00     0.032 A 
HETATM    3  C7  UNL     1      23.307   5.337  50.034  1.00  0.00    -0.015 C 
HETATM    4  C8  UNL     1      23.495   5.140  51.576  1.00  0.00     0.314 A 
HETATM    5  N1  UNL     1      23.952   6.360  51.989  1.00  0.00    -0.414 NA
HETATM    6  C9  UNL     1      24.128   7.335  50.962  1.00  0.00     0.231 C 
HETATM    7  N2  UNL     1      24.720   8.079  50.045  1.00  0.00    -0.283 NA
HETATM    8  C10 UNL     1      26.168   7.964  49.722  1.00  0.00     0.264 C 
HETATM    9  N3  UNL     1      26.327   6.949  48.620  1.00  0.00    -0.387 N 
HETATM   10  C11 UNL     1      25.270   7.390  47.770  1.00  0.00     0.148 C 
HETATM   11  C12 UNL     1      23.865   7.009  48.261  1.00  0.00     0.022 C 
HETATM   12  C13 UNL     1      23.022   6.336  49.020  1.00  0.00     0.037 C 
HETATM   13  C17 UNL     1      27.363   5.856  48.652  1.00  0.00     0.023 A 
HETATM   14  C18 UNL     1      27.345   4.388  48.972  1.00  0.00     0.021 A 
HETATM   15  C19 UNL     1      26.452   3.373  49.306  1.00  0.00     0.004 A 
HETATM   16  C20 UNL     1      24.972   3.243  49.526  1.00  0.00    -0.036 A 
HETATM   17  C21 UNL     1      25.078   4.611  49.197  1.00  0.00     0.037 A 
HETATM   18  C22 UNL     1      26.421   5.055  48.943  1.00  0.00     0.084 A 
HETATM   19  C23 UNL     1      23.425   3.415  49.743  1.00  0.00     0.003 C 
HETATM   20  C24 UNL     1      22.984   2.092  50.178  1.00  0.00     0.011 C 
ENDROOT
BRANCH  12  21
HETATM   21  N4  UNL     1      21.624   6.734  48.617  1.00  0.00    -0.327 N 
HETATM   22  C14 UNL     1      20.569   7.510  49.302  1.00  0.00     0.221 C 
HETATM   23  O2  UNL     1      21.009   7.767  50.441  1.00  0.00    -0.273 OA
HETATM   24  H15 UNL     1      21.941   6.180  47.848  1.00  0.00     0.169 HD
BRANCH  22  25
HETATM   25  C15 UNL     1      19.550   7.556  48.244  1.00  0.00     0.098 C 
HETATM   26  C16 UNL     1      19.805   6.623  47.070  1.00  0.00     0.014 C 
ENDBRANCH  22  25
ENDBRANCH  12  21
BRANCH   1  27
HETATM   27  C5  UNL     1      24.861   3.073  52.208  1.00  0.00     0.000 C 
BRANCH  27  28
HETATM   28  C4  UNL     1      24.463   2.589  53.410  1.00  0.00    -0.000 C 
BRANCH  28  29
HETATM   29  C3  UNL     1      24.598   1.086  53.277  1.00  0.00    -0.004 C 
HETATM   30  C2  UNL     1      25.730   0.784  52.547  1.00  0.00    -0.031 C 
HETATM   31  C1  UNL     1      26.730  -0.161  51.903  1.00  0.00     0.036 C 
ENDBRANCH  28  29
ENDBRANCH  27  28
ENDBRANCH   1  27
TORSDOF 5
ENDMDL
MODEL 2
REMARK VINA RESULT:      -7.8      2.919      6.422
REMARK  5 active torsions:
REMARK  status: ('A' for Active; 'I' for Inactive)
REMARK    1  A    between atoms: C3_3  and  C4_4 
REMARK    2  A    between atoms: C4_4  and  C5_5 
REMARK    3  A    between atoms: C5_5  and  O1_6 
REMARK    4  A    between atoms: C13_17  and  N4_18 
REMARK       I    between atoms: N4_18  and  C14_19 
REMARK    5  A    between atoms: C14_19  and  C15_21 
ROOT
HETATM    1  O1  UNL     1      23.909   4.746  51.851  1.00  0.00     0.000 OA
HETATM    2  C6  UNL     1      23.313   3.474  51.735  1.00  0.00     0.032 A 
HETATM    3  C7  UNL     1      22.600   2.471  51.763  1.00  0.00    -0.015 C 
HETATM    4  C8  UNL     1      22.658   3.978  52.183  1.00  0.00     0.314 A 
HETATM    5  N1  UNL     1      21.347   4.282  52.421  1.00  0.00    -0.414 NA
HETATM    6  C9  UNL     1      20.416   3.225  52.198  1.00  0.00     0.231 C 
HETATM    7  N2  UNL     1      19.521   2.467  51.591  1.00  0.00    -0.283 NA
HETATM    8  C10 UNL     1      19.036   2.736  50.210  1.00  0.00     0.264 C 
HETATM    9  N3  UNL     1      19.926   1.996  49.245  1.00  0.00    -0.387 N 
HETATM   10  C11 UNL     1      19.985   0.744  49.926  1.00  0.00     0.148 C 
HETATM   11  C12 UNL     1      20.898   0.741  51.162  1.00  0.00     0.022 C 
HETATM   12  C13 UNL     1      21.837   1.249  51.936  1.00  0.00     0.037 C 
HETATM   13  C17 UNL     1      20.493   2.627  48.000  1.00  0.00     0.023 A 
HETATM   14  C18 UNL     1      21.827   3.200  47.615  1.00  0.00     0.021 A 
HETATM   15  C19 UNL     1      23.111   3.371  48.129  1.00  0.00     0.004 A 
HETATM   16  C20 UNL     1      23.833   3.044  49.404  1.00  0.00    -0.036 A 
HETATM   17  C21 UNL     1      22.554   2.515  49.675  1.00  0.00     0.037 A 
HETATM   18  C22 UNL     1      21.602   2.697  48.613  1.00  0.00     0.084 A 
HETATM   19  C23 UNL     1      24.310   2.631  50.843  1.00  0.00     0.003 C 
HETATM   20  C24 UNL     1      25.684   3.121  50.911  1.00  0.00     0.011 C 
ENDROOT
BRANCH  12  21
HETATM   21  N4  UNL     1      22.064   0.283  53.073  1.00  0.00    -0.327 N 
HETATM   22  C14 UNL     1      23.281  -0.363  53.608  1.00  0.00     0.221 C 
HETATM   23  O2  UNL     1      24.216  -0.025  52.853  1.00  0.00    -0.273 OA
HETATM   24  H15 UNL     1      21.073   0.407  53.065  1.00  0.00     0.169 HD
BRANCH  22  25
HETATM   25  C15 UNL     1      22.714  -1.071  54.764  1.00  0.00     0.098 C 
HETATM   26  C16 UNL     1      21.298  -1.589  54.565  1.00  0.00     0.014 C 
ENDBRANCH  22  25
ENDBRANCH  12  21
BRANCH   1  27
HETATM   27  C5  UNL     1      23.957   5.468  50.562  1.00  0.00     0.000 C 
BRANCH  27  28
HETATM   28  C4  UNL     1      24.345   6.569  51.251  1.00  0.00    -0.000 C 
BRANCH  28  29
HETATM   29  C3  UNL     1      25.290   7.292  50.312  1.00  0.00    -0.004 C 
HETATM   30  C2  UNL     1      26.014   6.370  49.583  1.00  0.00    -0.031 C 
HETATM   31  C1  UNL     1      27.032   5.950  48.537  1.00  0.00     0.036 C 
ENDBRANCH  28  29
ENDBRANCH  27  28
ENDBRANCH   1  27
TORSDOF 5
ENDMDL
MODEL 3
REMARK VINA RESULT:      -7.6      2.509      5.839
REMARK  5 active torsions:
REMARK  status: ('A' for Active; 'I' for Inactive)
REMARK    1  A    between atoms: C3_3  and  C4_4 
REMARK    2  A    between atoms: C4_4  and  C5_5 
REMARK    3  A    between atoms: C5_5  and  O1_6 
REMARK    4  A    between atoms: C13_17  and  N4_18 
REMARK       I    between atoms: N4_18  and  C14_19 
REMARK    5  A    between atoms: C14_19  and  C15_21 
ROOT
HETATM    1  O1  UNL     1      21.273   4.947  48.256  1.00  0.00     0.000 OA
HETATM    2  C6  UNL     1      22.464   4.294  48.634  1.00  0.00     0.032 A 
HETATM    3  C7  UNL     1      23.506   3.895  49.154  1.00  0.00    -0.015 C 
HETATM    4  C8  UNL     1      22.355   4.946  49.303  1.00  0.00     0.314 A 
HETATM    5  N1  UNL     1      22.470   5.346  50.604  1.00  0.00    -0.414 NA
HETATM    6  C9  UNL     1      23.497   4.707  51.360  1.00  0.00     0.231 C 
HETATM    7  N2  UNL     1      24.089   3.859  52.182  1.00  0.00    -0.283 NA
HETATM    8  C10 UNL     1      23.357   2.767  52.880  1.00  0.00     0.264 C 
HETATM    9  N3  UNL     1      23.399   1.538  52.009  1.00  0.00    -0.387 N 
HETATM   10  C11 UNL     1      24.778   1.581  51.647  1.00  0.00     0.148 C 
HETATM   11  C12 UNL     1      25.122   2.646  50.595  1.00  0.00     0.022 C 
HETATM   12  C13 UNL     1      24.814   3.529  49.666  1.00  0.00     0.037 C 
HETATM   13  C17 UNL     1      22.187   0.690  51.725  1.00  0.00     0.023 A 
HETATM   14  C18 UNL     1      21.236   0.553  50.571  1.00  0.00     0.021 A 
HETATM   15  C19 UNL     1      21.037   1.038  49.281  1.00  0.00     0.004 A 
HETATM   16  C20 UNL     1      21.721   2.001  48.354  1.00  0.00    -0.036 A 
HETATM   17  C21 UNL     1      22.573   2.054  49.477  1.00  0.00     0.037 A 
HETATM   18  C22 UNL     1      22.156   1.226  50.575  1.00  0.00     0.084 A 
HETATM   19  C23 UNL     1      22.606   3.080  47.631  1.00  0.00     0.003 C 
HETATM   20  C24 UNL     1      21.914   3.309  46.365  1.00  0.00     0.011 C 
ENDROOT
BRANCH  12  21
HETATM   21  N4  UNL     1      26.104   4.100  49.131  1.00  0.00    -0.327 N 
HETATM   22  C14 UNL     1      26.647   5.474  49.091  1.00  0.00     0.221 C 
HETATM   23  O2  UNL     1      25.755   6.216  49.547  1.00  0.00    -0.273 OA
HETATM   24  H15 UNL     1      26.162   3.131  48.897  1.00  0.00     0.169 HD
BRANCH  22  25
HETATM   25  C15 UNL     1      27.976   5.213  48.518  1.00  0.00     0.098 C 
HETATM   26  C16 UNL     1      28.675   6.435  47.941  1.00  0.00     0.014 C 
ENDBRANCH  22  25
ENDBRANCH  12  21
BRANCH   1  27
HETATM   27  C5  UNL     1      20.073   4.120  48.500  1.00  0.00     0.000 C 
BRANCH  27  28
HETATM   28  C4  UNL     1      19.381   5.271  48.690  1.00  0.00    -0.000 C 
BRANCH  28  29
HETATM   29  C3  UNL     1      18.497   4.990  49.888  1.00  0.00    -0.004 C 
HETATM   30  C2  UNL     1      19.100   4.050  50.699  1.00  0.00    -0.031 C 
HETATM   31  C1  UNL     1      19.193   3.162  51.928  1.00  0.00     0.036 C 
ENDBRANCH  28  29
ENDBRANCH  27  28
ENDBRANCH   1  27
TORSDOF 5
ENDMDL
MODEL 4
REMARK VINA RESULT:      -7.5      2.756      6.535
REMARK  5 active torsions:
REMARK  status: ('A' for Active; 'I' for Inactive)
REMARK    1  A    between atoms: C3_3  and  C4_4 
REMARK    2  A    between atoms: C4_4  and  C5_5 
REMARK    3  A    between atoms: C5_5  and  O1_6 
REMARK    4  A    between atoms: C13_17  and  N4_18 
REMARK       I    between atoms: N4_18  and  C14_19 
REMARK    5  A    between atoms: C14_19  and  C15_21 
ROOT
HETATM    1  O1  UNL     1      24.165   4.948  51.628  1.00  0.00     0.000 OA
HETATM    2  C6  UNL     1      23.611   3.652  51.575  1.00  0.00     0.032 A 
HETATM    3  C7  UNL     1      22.944   2.623  51.676  1.00  0.00    -0.015 C 
HETATM    4  C8  UNL     1      22.986   4.133  52.087  1.00  0.00     0.314 A 
HETATM    5  N1  UNL     1      21.696   4.387  52.459  1.00  0.00    -0.414 NA
HETATM    6  C9  UNL     1      20.789   3.293  52.334  1.00  0.00     0.231 C 
HETATM    7  N2  UNL     1      19.866   2.498  51.823  1.00  0.00    -0.283 NA
HETATM    8  C10 UNL     1      19.232   2.742  50.499  1.00  0.00     0.264 C 
HETATM    9  N3  UNL     1      20.046   2.033  49.447  1.00  0.00    -0.387 N 
HETATM   10  C11 UNL     1      20.224   0.787  50.120  1.00  0.00     0.148 C 
HETATM   11  C12 UNL     1      21.258   0.826  51.255  1.00  0.00     0.022 C 
HETATM   12  C13 UNL     1      22.252   1.372  51.928  1.00  0.00     0.037 C 
HETATM   13  C17 UNL     1      20.456   2.680  48.151  1.00  0.00     0.023 A 
HETATM   14  C18 UNL     1      21.720   3.302  47.630  1.00  0.00     0.021 A 
HETATM   15  C19 UNL     1      23.042   3.525  48.008  1.00  0.00     0.004 A 
HETATM   16  C20 UNL     1      23.905   3.233  49.202  1.00  0.00    -0.036 A 
HETATM   17  C21 UNL     1      22.682   2.656  49.604  1.00  0.00     0.037 A 
HETATM   18  C22 UNL     1      21.619   2.796  48.646  1.00  0.00     0.084 A 
HETATM   19  C23 UNL     1      24.543   2.844  50.585  1.00  0.00     0.003 C 
HETATM   20  C24 UNL     1      25.896   3.388  50.511  1.00  0.00     0.011 C 
ENDROOT
BRANCH  12  21
HETATM   21  N4  UNL     1      22.632   0.422  53.036  1.00  0.00    -0.327 N 
HETATM   22  C14 UNL     1      23.926  -0.155  53.458  1.00  0.00     0.221 C 
HETATM   23  O2  UNL     1      24.769   0.234  52.625  1.00  0.00    -0.273 OA
HETATM   24  H15 UNL     1      21.638   0.490  53.116  1.00  0.00     0.169 HD
BRANCH  22  25
HETATM   25  C15 UNL     1      23.504  -0.893  54.657  1.00  0.00     0.098 C 
HETATM   26  C16 UNL     1      22.005  -0.891  54.914  1.00  0.00     0.014 C 
ENDBRANCH  22  25
ENDBRANCH  12  21
BRANCH   1  27
HETATM   27  C5  UNL     1      24.052   5.665  50.340  1.00  0.00     0.000 C 
BRANCH  27  28
HETATM   28  C4  UNL     1      24.114   6.825  51.039  1.00  0.00    -0.000 C 
BRANCH  28  29
HETATM   29  C3  UNL     1      23.006   7.678  50.458  1.00  0.00    -0.004 C 
HETATM   30  C2  UNL     1      22.038   6.866  49.902  1.00  0.00    -0.031 C 
HETATM   31  C1  UNL     1      20.722   6.595  49.193  1.00  0.00     0.036 C 
ENDBRANCH  28  29
ENDBRANCH  27  28
ENDBRANCH   1  27
TORSDOF 5
ENDMDL
MODEL 5
REMARK VINA RESULT:      -7.4      2.594      6.794
REMARK  5 active torsions:
REMARK  status: ('A' for Active; 'I' for Inactive)
REMARK    1  A    between atoms: C3_3  and  C4_4 
REMARK    2  A    between atoms: C4_4  and  C5_5 
REMARK    3  A    between atoms: C5_5  and  O1_6 
REMARK    4  A    between atoms: C13_17  and  N4_18 
REMARK       I    between atoms: N4_18  and  C14_19 
REMARK    5  A    between atoms: C14_19  and  C15_21 
ROOT
HETATM    1  O1  UNL     1      24.244   5.390  50.650  1.00  0.00     0.000 OA
HETATM    2  C6  UNL     1      24.069   4.031  50.981  1.00  0.00     0.032 A 
HETATM    3  C7  UNL     1      23.763   2.936  51.452  1.00  0.00    -0.015 C 
HETATM    4  C8  UNL     1      23.506   4.474  51.589  1.00  0.00     0.314 A 
HETATM    5  N1  UNL     1      22.351   4.530  52.317  1.00  0.00    -0.414 NA
HETATM    6  C9  UNL     1      21.777   3.271  52.665  1.00  0.00     0.231 C 
HETATM    7  N2  UNL     1      21.001   2.204  52.613  1.00  0.00    -0.283 NA
HETATM    8  C10 UNL     1      19.983   1.997  51.547  1.00  0.00     0.264 C 
HETATM    9  N3  UNL     1      20.634   1.251  50.411  1.00  0.00    -0.387 N 
HETATM   10  C11 UNL     1      21.322   0.261  51.172  1.00  0.00     0.148 C 
HETATM   11  C12 UNL     1      22.581   0.777  51.887  1.00  0.00     0.022 C 
HETATM   12  C13 UNL     1      23.534   1.661  52.106  1.00  0.00     0.037 C 
HETATM   13  C17 UNL     1      20.476   1.653  48.968  1.00  0.00     0.023 A 
HETATM   14  C18 UNL     1      21.328   2.390  47.974  1.00  0.00     0.021 A 
HETATM   15  C19 UNL     1      22.591   2.967  47.861  1.00  0.00     0.004 A 
HETATM   16  C20 UNL     1      23.796   3.146  48.737  1.00  0.00    -0.036 A 
HETATM   17  C21 UNL     1      22.937   2.433  49.600  1.00  0.00     0.037 A 
HETATM   18  C22 UNL     1      21.654   2.122  49.033  1.00  0.00     0.084 A 
HETATM   19  C23 UNL     1      24.873   3.231  49.879  1.00  0.00     0.003 C 
HETATM   20  C24 UNL     1      25.952   4.015  49.284  1.00  0.00     0.011 C 
ENDROOT
BRANCH  12  21
HETATM   21  N4  UNL     1      24.450   1.094  53.162  1.00  0.00    -0.327 N 
HETATM   22  C14 UNL     1      25.793   0.479  53.095  1.00  0.00     0.221 C 
HETATM   23  O2  UNL     1      26.084   0.407  51.884  1.00  0.00    -0.273 OA
HETATM   24  H15 UNL     1      23.635   1.357  53.676  1.00  0.00     0.169 HD
BRANCH  22  25
HETATM   25  C15 UNL     1      26.060   0.278  54.527  1.00  0.00     0.098 C 
HETATM   26  C16 UNL     1      27.533   0.174  54.893  1.00  0.00     0.014 C 
ENDBRANCH  22  25
ENDBRANCH  12  21
BRANCH   1  27
HETATM   27  C5  UNL     1      23.588   5.751  49.375  1.00  0.00     0.000 C 
BRANCH  27  28
HETATM   28  C4  UNL     1      24.134   6.984  49.501  1.00  0.00    -0.000 C 
BRANCH  28  29
HETATM   29  C3  UNL     1      24.598   7.340  48.103  1.00  0.00    -0.004 C 
HETATM   30  C2  UNL     1      25.975   7.434  48.081  1.00  0.00    -0.031 C 
HETATM   31  C1  UNL     1      27.320   7.659  47.411  1.00  0.00     0.036 C 
ENDBRANCH  28  29
ENDBRANCH  27  28
ENDBRANCH   1  27
TORSDOF 5
ENDMDL
MODEL 6
REMARK VINA RESULT:      -7.4      5.546      8.096
REMARK  5 active torsions:
REMARK  status: ('A' for Active; 'I' for Inactive)
REMARK    1  A    between atoms: C3_3  and  C4_4 
REMARK    2  A    between atoms: C4_4  and  C5_5 
REMARK    3  A    between atoms: C5_5  and  O1_6 
REMARK    4  A    between atoms: C13_17  and  N4_18 
REMARK       I    between atoms: N4_18  and  C14_19 
REMARK    5  A    between atoms: C14_19  and  C15_21 
ROOT
HETATM    1  O1  UNL     1      32.529   6.010  49.074  1.00  0.00     0.000 OA
HETATM    2  C6  UNL     1      31.339   6.657  48.678  1.00  0.00     0.032 A 
HETATM    3  C7  UNL     1      30.360   7.386  48.519  1.00  0.00    -0.015 C 
HETATM    4  C8  UNL     1      31.667   7.210  49.363  1.00  0.00     0.314 A 
HETATM    5  N1  UNL     1      31.854   8.452  49.903  1.00  0.00    -0.414 NA
HETATM    6  C9  UNL     1      30.895   9.440  49.530  1.00  0.00     0.231 C 
HETATM    7  N2  UNL     1      30.339  10.448  48.882  1.00  0.00    -0.283 NA
HETATM    8  C10 UNL     1      31.008  11.151  47.753  1.00  0.00     0.264 C 
HETATM    9  N3  UNL     1      30.619  10.461  46.471  1.00  0.00    -0.387 N 
HETATM   10  C11 UNL     1      29.220  10.326  46.717  1.00  0.00     0.148 C 
HETATM   11  C12 UNL     1      28.860   9.217  47.718  1.00  0.00     0.022 C 
HETATM   12  C13 UNL     1      29.127   8.145  48.439  1.00  0.00     0.037 C 
HETATM   13  C17 UNL     1      31.613  10.093  45.401  1.00  0.00     0.023 A 
HETATM   14  C18 UNL     1      32.307   8.826  44.988  1.00  0.00     0.021 A 
HETATM   15  C19 UNL     1      32.341   7.470  45.302  1.00  0.00     0.004 A 
HETATM   16  C20 UNL     1      31.656   6.552  46.274  1.00  0.00    -0.036 A 
HETATM   17  C21 UNL     1      31.041   7.783  46.584  1.00  0.00     0.037 A 
HETATM   18  C22 UNL     1      31.517   8.895  45.808  1.00  0.00     0.084 A 
HETATM   19  C23 UNL     1      30.833   5.852  47.415  1.00  0.00     0.003 C 
HETATM   20  C24 UNL     1      31.310   4.471  47.394  1.00  0.00     0.011 C 
ENDROOT
BRANCH  12  21
HETATM   21  N4  UNL     1      27.865   7.760  49.170  1.00  0.00    -0.327 N 
HETATM   22  C14 UNL     1      26.974   8.503  50.087  1.00  0.00     0.221 C 
HETATM   23  O2  UNL     1      27.507   9.616  50.265  1.00  0.00    -0.273 OA
HETATM   24  H15 UNL     1      28.133   6.917  48.705  1.00  0.00     0.169 HD
BRANCH  22  25
HETATM   25  C15 UNL     1      25.920   7.500  50.296  1.00  0.00     0.098 C 
HETATM   26  C16 UNL     1      25.956   6.323  49.332  1.00  0.00     0.014 C 
ENDBRANCH  22  25
ENDBRANCH  12  21
BRANCH   1  27
HETATM   27  C5  UNL     1      33.611   6.159  48.078  1.00  0.00     0.000 C 
BRANCH  27  28
HETATM   28  C4  UNL     1      34.426   5.505  48.942  1.00  0.00    -0.000 C 
BRANCH  28  29
HETATM   29  C3  UNL     1      34.824   4.241  48.207  1.00  0.00    -0.004 C 
HETATM   30  C2  UNL     1      34.774   4.462  46.845  1.00  0.00    -0.031 C 
HETATM   31  C1  UNL     1      34.935   4.062  45.388  1.00  0.00     0.036 C 
ENDBRANCH  28  29
ENDBRANCH  27  28
ENDBRANCH   1  27
TORSDOF 5
ENDMDL
MODEL 7
REMARK VINA RESULT:      -7.1      1.372      1.480
REMARK  5 active torsions:
REMARK  status: ('A' for Active; 'I' for Inactive)
REMARK    1  A    between atoms: C3_3  and  C4_4 
REMARK    2  A    between atoms: C4_4  and  C5_5 
REMARK    3  A    between atoms: C5_5  and  O1_6 
REMARK    4  A    between atoms: C13_17  and  N4_18 
REMARK       I    between atoms: N4_18  and  C14_19 
REMARK    5  A    between atoms: C14_19  and  C15_21 
ROOT
HETATM    1  O1  UNL     1      22.142   3.177  51.484  1.00  0.00     0.000 OA
HETATM    2  C6  UNL     1      22.159   4.003  50.342  1.00  0.00     0.032 A 
HETATM    3  C7  UNL     1      22.119   4.910  49.511  1.00  0.00    -0.015 C 
HETATM    4  C8  UNL     1      21.987   4.607  51.041  1.00  0.00     0.314 A 
HETATM    5  N1  UNL     1      22.138   5.839  51.613  1.00  0.00    -0.414 NA
HETATM    6  C9  UNL     1      22.380   6.916  50.709  1.00  0.00     0.231 C 
HETATM    7  N2  UNL     1      23.033   7.815  49.996  1.00  0.00    -0.283 NA
HETATM    8  C10 UNL     1      24.517   7.939  50.015  1.00  0.00     0.264 C 
HETATM    9  N3  UNL     1      25.079   7.059  48.929  1.00  0.00    -0.387 N 
HETATM   10  C11 UNL     1      24.181   7.416  47.879  1.00  0.00     0.148 C 
HETATM   11  C12 UNL     1      22.782   6.794  48.008  1.00  0.00     0.022 C 
HETATM   12  C13 UNL     1      21.911   5.942  48.512  1.00  0.00     0.037 C 
HETATM   13  C17 UNL     1      26.243   6.128  49.146  1.00  0.00     0.023 A 
HETATM   14  C18 UNL     1      26.390   4.651  49.376  1.00  0.00     0.021 A 
HETATM   15  C19 UNL     1      25.620   3.492  49.438  1.00  0.00     0.004 A 
HETATM   16  C20 UNL     1      24.170   3.131  49.298  1.00  0.00    -0.036 A 
HETATM   17  C21 UNL     1      24.125   4.523  49.075  1.00  0.00     0.037 A 
HETATM   18  C22 UNL     1      25.401   5.178  49.166  1.00  0.00     0.084 A 
HETATM   19  C23 UNL     1      22.606   3.058  49.155  1.00  0.00     0.003 C 
HETATM   20  C24 UNL     1      22.298   1.652  49.405  1.00  0.00     0.011 C 
ENDROOT
BRANCH  12  21
HETATM   21  N4  UNL     1      20.593   6.168  47.814  1.00  0.00    -0.327 N 
HETATM   22  C14 UNL     1      19.270   6.617  48.297  1.00  0.00     0.221 C 
HETATM   23  O2  UNL     1      19.371   6.730  49.535  1.00  0.00    -0.273 OA
HETATM   24  H15 UNL     1      21.187   5.826  47.087  1.00  0.00     0.169 HD
BRANCH  22  25
HETATM   25  C15 UNL     1      18.537   6.686  47.025  1.00  0.00     0.098 C 
HETATM   26  C16 UNL     1      17.021   6.657  47.158  1.00  0.00     0.014 C 
ENDBRANCH  22  25
ENDBRANCH  12  21
BRANCH   1  27
HETATM   27  C5  UNL     1      23.492   2.712  51.867  1.00  0.00     0.000 C 
BRANCH  27  28
HETATM   28  C4  UNL     1      22.896   1.863  52.739  1.00  0.00    -0.000 C 
BRANCH  28  29
HETATM   29  C3  UNL     1      23.840   0.681  52.823  1.00  0.00    -0.004 C 
HETATM   30  C2  UNL     1      25.049   1.011  52.245  1.00  0.00    -0.031 C 
HETATM   31  C1  UNL     1      26.484   0.740  51.826  1.00  0.00     0.036 C 
ENDBRANCH  28  29
ENDBRANCH  27  28
ENDBRANCH   1  27
TORSDOF 5
ENDMDL
MODEL 8
REMARK VINA RESULT:      -7.1      3.474      7.236
REMARK  5 active torsions:
REMARK  status: ('A' for Active; 'I' for Inactive)
REMARK    1  A    between atoms: C3_3  and  C4_4 
REMARK    2  A    between atoms: C4_4  and  C5_5 
REMARK    3  A    between atoms: C5_5  and  O1_6 
REMARK    4  A    between atoms: C13_17  and  N4_18 
REMARK       I    between atoms: N4_18  and  C14_19 
REMARK    5  A    between atoms: C14_19  and  C15_21 
ROOT
HETATM    1  O1  UNL     1      29.451   8.930  49.240  1.00  0.00     0.000 OA
HETATM    2  C6  UNL     1      28.356   8.101  48.922  1.00  0.00     0.032 A 
HETATM    3  C7  UNL     1      27.281   7.509  48.829  1.00  0.00    -0.015 C 
HETATM    4  C8  UNL     1      28.012   8.664  49.592  1.00  0.00     0.314 A 
HETATM    5  N1  UNL     1      26.980   9.379  50.131  1.00  0.00    -0.414 NA
HETATM    6  C9  UNL     1      25.671   8.902  49.826  1.00  0.00     0.231 C 
HETATM    7  N2  UNL     1      24.502   8.786  49.223  1.00  0.00    -0.283 NA
HETATM    8  C10 UNL     1      24.103   9.629  48.062  1.00  0.00     0.264 C 
HETATM    9  N3  UNL     1      24.525   8.924  46.799  1.00  0.00    -0.387 N 
HETATM   10  C11 UNL     1      24.074   7.611  47.127  1.00  0.00     0.148 C 
HETATM   11  C12 UNL     1      24.965   6.871  48.137  1.00  0.00     0.022 C 
HETATM   12  C13 UNL     1      26.075   6.702  48.830  1.00  0.00     0.037 C 
HETATM   13  C17 UNL     1      25.237   9.619  45.668  1.00  0.00     0.023 A 
HETATM   14  C18 UNL     1      26.663   9.699  45.203  1.00  0.00     0.021 A 
HETATM   15  C19 UNL     1      27.920   9.179  45.501  1.00  0.00     0.004 A 
HETATM   16  C20 UNL     1      28.502   8.224  46.503  1.00  0.00    -0.036 A 
HETATM   17  C21 UNL     1      27.138   8.195  46.861  1.00  0.00     0.037 A 
HETATM   18  C22 UNL     1      26.300   9.052  46.069  1.00  0.00     0.084 A 
HETATM   19  C23 UNL     1      28.834   7.242  47.684  1.00  0.00     0.003 C 
HETATM   20  C24 UNL     1      30.286   7.098  47.621  1.00  0.00     0.011 C 
ENDROOT
BRANCH  12  21
HETATM   21  N4  UNL     1      25.925   5.433  49.632  1.00  0.00    -0.327 N 
HETATM   22  C14 UNL     1      26.681   4.163  49.643  1.00  0.00     0.221 C 
HETATM   23  O2  UNL     1      27.528   4.253  48.731  1.00  0.00    -0.273 OA
HETATM   24  H15 UNL     1      25.160   5.998  49.941  1.00  0.00     0.169 HD
BRANCH  22  25
HETATM   25  C15 UNL     1      26.007   3.468  50.748  1.00  0.00     0.098 C 
HETATM   26  C16 UNL     1      26.650   2.152  51.163  1.00  0.00     0.014 C 
ENDBRANCH  22  25
ENDBRANCH  12  21
BRANCH   1  27
HETATM   27  C5  UNL     1      29.734   9.925  48.183  1.00  0.00     0.000 C 
BRANCH  27  28
HETATM   28  C4  UNL     1      30.552  10.552  49.063  1.00  0.00    -0.000 C 
BRANCH  28  29
HETATM   29  C3  UNL     1      30.185  12.017  48.946  1.00  0.00    -0.004 C 
HETATM   30  C2  UNL     1      28.861  12.135  48.574  1.00  0.00    -0.031 C 
HETATM   31  C1  UNL     1      27.600  12.911  48.233  1.00  0.00     0.036 C 
ENDBRANCH  28  29
ENDBRANCH  27  28
ENDBRANCH   1  27
TORSDOF 5
ENDMDL
MODEL 9
REMARK VINA RESULT:      -7.0      3.482      5.616
REMARK  5 active torsions:
REMARK  status: ('A' for Active; 'I' for Inactive)
REMARK    1  A    between atoms: C3_3  and  C4_4 
REMARK    2  A    between atoms: C4_4  and  C5_5 
REMARK    3  A    between atoms: C5_5  and  O1_6 
REMARK    4  A    between atoms: C13_17  and  N4_18 
REMARK       I    between atoms: N4_18  and  C14_19 
REMARK    5  A    between atoms: C14_19  and  C15_21 
ROOT
HETATM    1  O1  UNL     1      25.120   8.302  50.123  1.00  0.00     0.000 OA
HETATM    2  C6  UNL     1      25.968   8.689  49.066  1.00  0.00     0.032 A 
HETATM    3  C7  UNL     1      26.824   9.168  48.322  1.00  0.00    -0.015 C 
HETATM    4  C8  UNL     1      26.328   9.142  49.806  1.00  0.00     0.314 A 
HETATM    5  N1  UNL     1      27.403   9.625  50.498  1.00  0.00    -0.414 NA
HETATM    6  C9  UNL     1      28.552   9.943  49.715  1.00  0.00     0.231 C 
HETATM    7  N2  UNL     1      29.728   9.816  49.129  1.00  0.00    -0.283 NA
HETATM    8  C10 UNL     1      30.563   8.590  49.250  1.00  0.00     0.264 C 
HETATM    9  N3  UNL     1      30.200   7.658  48.123  1.00  0.00    -0.387 N 
HETATM   10  C11 UNL     1      30.182   8.608  47.058  1.00  0.00     0.148 C 
HETATM   11  C12 UNL     1      28.943   9.516  47.043  1.00  0.00     0.022 C 
HETATM   12  C13 UNL     1      27.723   9.854  47.413  1.00  0.00     0.037 C 
HETATM   13  C17 UNL     1      29.944   6.187  48.322  1.00  0.00     0.023 A 
HETATM   14  C18 UNL     1      28.716   5.329  48.422  1.00  0.00     0.021 A 
HETATM   15  C19 UNL     1      27.329   5.424  48.329  1.00  0.00     0.004 A 
HETATM   16  C20 UNL     1      26.319   6.504  48.069  1.00  0.00    -0.036 A 
HETATM   17  C21 UNL     1      27.525   7.231  47.974  1.00  0.00     0.037 A 
HETATM   18  C22 UNL     1      28.707   6.447  48.202  1.00  0.00     0.084 A 
HETATM   19  C23 UNL     1      25.503   7.825  47.826  1.00  0.00     0.003 C 
HETATM   20  C24 UNL     1      24.109   7.398  47.924  1.00  0.00     0.011 C 
ENDROOT
BRANCH  12  21
HETATM   21  N4  UNL     1      27.347  11.106  46.660  1.00  0.00    -0.327 N 
HETATM   22  C14 UNL     1      26.951  12.459  47.106  1.00  0.00     0.221 C 
HETATM   23  O2  UNL     1      26.883  12.410  48.350  1.00  0.00    -0.273 OA
HETATM   24  H15 UNL     1      27.497  10.433  45.936  1.00  0.00     0.169 HD
BRANCH  22  25
HETATM   25  C15 UNL     1      26.847  13.141  45.808  1.00  0.00     0.098 C 
HETATM   26  C16 UNL     1      28.161  13.284  45.054  1.00  0.00     0.014 C 
ENDBRANCH  22  25
ENDBRANCH  12  21
BRANCH   1  27
HETATM   27  C5  UNL     1      25.340   6.902  50.542  1.00  0.00     0.000 C 
BRANCH  27  28
HETATM   28  C4  UNL     1      24.205   6.997  51.277  1.00  0.00    -0.000 C 
BRANCH  28  29
HETATM   29  C3  UNL     1      23.750   5.563  51.461  1.00  0.00    -0.004 C 
HETATM   30  C2  UNL     1      24.288   4.774  50.465  1.00  0.00    -0.031 C 
HETATM   31  C1  UNL     1      24.533   3.460  49.743  1.00  0.00     0.036 C 
ENDBRANCH  28  29
ENDBRANCH  27  28
ENDBRANCH   1  27
TORSDOF 5
ENDMDL
