MODEL 1
REMARK VINA RESULT:      -7.8      0.000      0.000
REMARK  6 active torsions:
REMARK  status: ('A' for Active; 'I' for Inactive)
REMARK    1  A    between atoms: C7_7  and  N1_8 
REMARK    2  A    between atoms: N1_8  and  C8_9 
REMARK    3  A    between atoms: C15_19  and  O2_20 
REMARK    4  A    between atoms: O2_20  and  C16_21 
REMARK    5  A    between atoms: C16_21  and  C17_22 
REMARK    6  A    between atoms: C17_22  and  O3_23 
ROOT
HETATM    1  C1  UNL     1      29.490  -1.795  53.420  1.00  0.00     0.018 C 
HETATM    2  C2  UNL     1      28.654  -0.924  53.391  1.00  0.00    -0.078 C 
HETATM    3  C3  UNL     1      27.669   0.119  53.377  1.00  0.00     0.019 A 
HETATM    4  C4  UNL     1      27.901   1.404  53.828  1.00  0.00     0.021 A 
HETATM    5  C5  UNL     1      26.866   2.305  53.757  1.00  0.00     0.004 A 
HETATM    6  C6  UNL     1      25.628   1.961  53.255  1.00  0.00     0.029 A 
HETATM    7  C7  UNL     1      25.365   0.672  52.792  1.00  0.00     0.035 A 
HETATM    8  C20 UNL     1      26.435  -0.226  52.877  1.00  0.00     0.050 A 
ENDROOT
BRANCH   7   9
HETATM    9  N1  UNL     1      24.049   0.497  52.279  1.00  0.00    -0.340 N 
HETATM   10  H5  UNL     1      24.271   0.954  51.378  1.00  0.00     0.167 HD
BRANCH   9  11
HETATM   11  C8  UNL     1      23.105  -0.153  53.110  1.00  0.00     0.141 A 
HETATM   12  N2  UNL     1      23.577  -0.676  54.248  1.00  0.00    -0.224 NA
HETATM   13  C9  UNL     1      22.780  -1.313  55.121  1.00  0.00     0.236 A 
HETATM   14  N3  UNL     1      21.475  -1.434  54.855  1.00  0.00    -0.241 NA
HETATM   15  C10 UNL     1      20.908  -0.947  53.747  1.00  0.00     0.074 A 
HETATM   16  C11 UNL     1      21.760  -0.302  52.880  1.00  0.00     0.037 A 
HETATM   17  C19 UNL     1      19.626  -1.256  53.838  1.00  0.00     0.071 C 
HETATM   18  C12 UNL     1      21.592   0.293  51.718  1.00  0.00     0.017 C 
HETATM   19  C13 UNL     1      20.544   0.607  50.746  1.00  0.00     0.203 C 
HETATM   20  O1  UNL     1      19.240   0.613  51.219  1.00  0.00    -0.357 OA
HETATM   21  C14 UNL     1      18.335  -0.223  51.847  1.00  0.00     0.171 C 
HETATM   22  C15 UNL     1      18.516  -0.987  52.929  1.00  0.00     0.092 C 
BRANCH  22  23
HETATM   23  O2  UNL     1      17.376  -1.697  53.276  1.00  0.00    -0.347 OA
BRANCH  23  24
HETATM   24  C16 UNL     1      16.233  -1.884  52.526  1.00  0.00     0.201 C 
BRANCH  24  25
HETATM   25  C17 UNL     1      15.675  -3.260  52.743  1.00  0.00     0.193 C 
BRANCH  25  26
HETATM   26  O3  UNL     1      14.315  -3.375  52.753  1.00  0.00    -0.394 OA
HETATM   27  C18 UNL     1      13.684  -3.624  51.571  1.00  0.00     0.201 C 
ENDBRANCH  25  26
ENDBRANCH  24  25
ENDBRANCH  23  24
ENDBRANCH  22  23
ENDBRANCH   9  11
ENDBRANCH   7   9
TORSDOF 6
ENDMDL
MODEL 2
REMARK VINA RESULT:      -7.5      3.272      3.937
REMARK  6 active torsions:
REMARK  status: ('A' for Active; 'I' for Inactive)
REMARK    1  A    between atoms: C7_7  and  N1_8 
REMARK    2  A    between atoms: N1_8  and  C8_9 
REMARK    3  A    between atoms: C15_19  and  O2_20 
REMARK    4  A    between atoms: O2_20  and  C16_21 
REMARK    5  A    between atoms: C16_21  and  C17_22 
REMARK    6  A    between atoms: C17_22  and  O3_23 
ROOT
HETATM    1  C1  UNL     1      29.824  -2.386  53.599  1.00  0.00     0.018 C 
HETATM    2  C2  UNL     1      29.285  -1.313  53.477  1.00  0.00    -0.078 C 
HETATM    3  C3  UNL     1      28.648  -0.033  53.354  1.00  0.00     0.019 A 
HETATM    4  C4  UNL     1      29.101   1.116  53.975  1.00  0.00     0.021 A 
HETATM    5  C5  UNL     1      28.394   2.276  53.771  1.00  0.00     0.004 A 
HETATM    6  C6  UNL     1      27.266   2.317  52.977  1.00  0.00     0.029 A 
HETATM    7  C7  UNL     1      26.786   1.174  52.339  1.00  0.00     0.035 A 
HETATM    8  C20 UNL     1      27.524   0.006  52.563  1.00  0.00     0.050 A 
ENDROOT
BRANCH   7   9
HETATM    9  N1  UNL     1      25.634   1.400  51.535  1.00  0.00    -0.340 N 
HETATM   10  H5  UNL     1      26.188   1.653  50.698  1.00  0.00     0.167 HD
BRANCH   9  11
HETATM   11  C8  UNL     1      24.368   1.202  52.138  1.00  0.00     0.141 A 
HETATM   12  N2  UNL     1      24.259   0.151  52.959  1.00  0.00    -0.224 NA
HETATM   13  C9  UNL     1      23.112  -0.138  53.593  1.00  0.00     0.236 A 
HETATM   14  N3  UNL     1      22.040   0.641  53.407  1.00  0.00    -0.241 NA
HETATM   15  C10 UNL     1      22.048   1.713  52.608  1.00  0.00     0.074 A 
HETATM   16  C11 UNL     1      23.243   1.973  51.978  1.00  0.00     0.037 A 
HETATM   17  C19 UNL     1      20.829   2.219  52.680  1.00  0.00     0.071 C 
HETATM   18  C12 UNL     1      23.641   2.905  51.137  1.00  0.00     0.017 C 
HETATM   19  C13 UNL     1      23.141   4.089  50.438  1.00  0.00     0.203 C 
HETATM   20  O1  UNL     1      22.024   4.706  50.982  1.00  0.00    -0.357 OA
HETATM   21  C14 UNL     1      20.715   4.420  51.325  1.00  0.00     0.171 C 
HETATM   22  C15 UNL     1      20.243   3.386  52.028  1.00  0.00     0.092 C 
BRANCH  22  23
HETATM   23  O2  UNL     1      18.865   3.428  52.177  1.00  0.00    -0.347 OA
BRANCH  23  24
HETATM   24  C16 UNL     1      17.908   3.511  51.186  1.00  0.00     0.201 C 
BRANCH  24  25
HETATM   25  C17 UNL     1      17.630   2.157  50.602  1.00  0.00     0.193 C 
BRANCH  25  26
HETATM   26  O3  UNL     1      17.829   2.016  49.259  1.00  0.00    -0.394 OA
HETATM   27  C18 UNL     1      18.576   2.961  48.620  1.00  0.00     0.201 C 
ENDBRANCH  25  26
ENDBRANCH  24  25
ENDBRANCH  23  24
ENDBRANCH  22  23
ENDBRANCH   9  11
ENDBRANCH   7   9
TORSDOF 6
ENDMDL
MODEL 3
REMARK VINA RESULT:      -7.4      7.003     10.783
REMARK  6 active torsions:
REMARK  status: ('A' for Active; 'I' for Inactive)
REMARK    1  A    between atoms: C7_7  and  N1_8 
REMARK    2  A    between atoms: N1_8  and  C8_9 
REMARK    3  A    between atoms: C15_19  and  O2_20 
REMARK    4  A    between atoms: O2_20  and  C16_21 
REMARK    5  A    between atoms: C16_21  and  C17_22 
REMARK    6  A    between atoms: C17_22  and  O3_23 
ROOT
HETATM    1  C1  UNL     1      22.749  -0.895  53.862  1.00  0.00     0.018 C 
HETATM    2  C2  UNL     1      23.632  -0.241  53.361  1.00  0.00    -0.078 C 
HETATM    3  C3  UNL     1      24.691   0.538  52.786  1.00  0.00     0.019 A 
HETATM    4  C4  UNL     1      26.012   0.454  53.184  1.00  0.00     0.021 A 
HETATM    5  C5  UNL     1      26.924   1.260  52.547  1.00  0.00     0.004 A 
HETATM    6  C6  UNL     1      26.558   2.131  51.542  1.00  0.00     0.029 A 
HETATM    7  C7  UNL     1      25.233   2.236  51.120  1.00  0.00     0.035 A 
HETATM    8  C20 UNL     1      24.324   1.405  51.784  1.00  0.00     0.050 A 
ENDROOT
BRANCH   7   9
HETATM    9  N1  UNL     1      25.036   3.156  50.053  1.00  0.00    -0.340 N 
HETATM   10  H5  UNL     1      25.254   2.457  49.323  1.00  0.00     0.167 HD
BRANCH   9  11
HETATM   11  C8  UNL     1      24.664   4.480  50.392  1.00  0.00     0.141 A 
HETATM   12  N2  UNL     1      23.582   4.611  51.170  1.00  0.00    -0.224 NA
HETATM   13  C9  UNL     1      23.133   5.813  51.564  1.00  0.00     0.236 A 
HETATM   14  N3  UNL     1      23.777   6.919  51.174  1.00  0.00    -0.241 NA
HETATM   15  C10 UNL     1      24.865   6.893  50.398  1.00  0.00     0.074 A 
HETATM   16  C11 UNL     1      25.292   5.641  50.017  1.00  0.00     0.037 A 
HETATM   17  C19 UNL     1      25.212   8.157  50.230  1.00  0.00     0.071 C 
HETATM   18  C12 UNL     1      26.291   5.210  49.277  1.00  0.00     0.017 C 
HETATM   19  C13 UNL     1      27.425   5.712  48.499  1.00  0.00     0.203 C 
HETATM   20  O1  UNL     1      27.880   6.984  48.815  1.00  0.00    -0.357 OA
HETATM   21  C14 UNL     1      27.422   8.286  48.891  1.00  0.00     0.171 C 
HETATM   22  C15 UNL     1      26.317   8.750  49.481  1.00  0.00     0.092 C 
BRANCH  22  23
HETATM   23  O2  UNL     1      26.181  10.124  49.355  1.00  0.00    -0.347 OA
BRANCH  23  24
HETATM   24  C16 UNL     1      25.707  10.832  48.269  1.00  0.00     0.201 C 
BRANCH  24  25
HETATM   25  C17 UNL     1      26.553  12.046  48.018  1.00  0.00     0.193 C 
BRANCH  25  26
HETATM   26  O3  UNL     1      27.696  12.159  48.757  1.00  0.00    -0.394 OA
HETATM   27  C18 UNL     1      28.262  13.393  48.875  1.00  0.00     0.201 C 
ENDBRANCH  25  26
ENDBRANCH  24  25
ENDBRANCH  23  24
ENDBRANCH  22  23
ENDBRANCH   9  11
ENDBRANCH   7   9
TORSDOF 6
ENDMDL
MODEL 4
REMARK VINA RESULT:      -7.3     11.161     13.767
REMARK  6 active torsions:
REMARK  status: ('A' for Active; 'I' for Inactive)
REMARK    1  A    between atoms: C7_7  and  N1_8 
REMARK    2  A    between atoms: N1_8  and  C8_9 
REMARK    3  A    between atoms: C15_19  and  O2_20 
REMARK    4  A    between atoms: O2_20  and  C16_21 
REMARK    5  A    between atoms: C16_21  and  C17_22 
REMARK    6  A    between atoms: C17_22  and  O3_23 
ROOT
HETATM    1  C1  UNL     1      33.798   5.093  42.431  1.00  0.00     0.018 C 
HETATM    2  C2  UNL     1      33.915   4.767  43.587  1.00  0.00    -0.078 C 
HETATM    3  C3  UNL     1      34.064   4.360  44.956  1.00  0.00     0.019 A 
HETATM    4  C4  UNL     1      35.159   3.669  45.438  1.00  0.00     0.021 A 
HETATM    5  C5  UNL     1      35.172   3.340  46.773  1.00  0.00     0.004 A 
HETATM    6  C6  UNL     1      34.138   3.681  47.621  1.00  0.00     0.029 A 
HETATM    7  C7  UNL     1      33.022   4.378  47.162  1.00  0.00     0.035 A 
HETATM    8  C20 UNL     1      33.033   4.699  45.800  1.00  0.00     0.050 A 
ENDROOT
BRANCH   7   9
HETATM    9  N1  UNL     1      32.067   4.675  48.174  1.00  0.00    -0.340 N 
HETATM   10  H5  UNL     1      31.897   3.679  48.396  1.00  0.00     0.167 HD
BRANCH   9  11
HETATM   11  C8  UNL     1      31.787   6.040  48.428  1.00  0.00     0.141 A 
HETATM   12  N2  UNL     1      32.846   6.852  48.539  1.00  0.00    -0.224 NA
HETATM   13  C9  UNL     1      32.710   8.166  48.775  1.00  0.00     0.236 A 
HETATM   14  N3  UNL     1      31.486   8.691  48.904  1.00  0.00    -0.241 NA
HETATM   15  C10 UNL     1      30.368   7.964  48.810  1.00  0.00     0.074 A 
HETATM   16  C11 UNL     1      30.552   6.622  48.568  1.00  0.00     0.037 A 
HETATM   17  C19 UNL     1      29.374   8.817  48.988  1.00  0.00     0.071 C 
HETATM   18  C12 UNL     1      29.728   5.607  48.416  1.00  0.00     0.017 C 
HETATM   19  C13 UNL     1      28.298   5.299  48.407  1.00  0.00     0.203 C 
HETATM   20  O1  UNL     1      27.437   6.357  48.155  1.00  0.00    -0.357 OA
HETATM   21  C14 UNL     1      27.113   7.604  48.656  1.00  0.00     0.171 C 
HETATM   22  C15 UNL     1      27.929   8.606  48.995  1.00  0.00     0.092 C 
BRANCH  22  23
HETATM   23  O2  UNL     1      27.244   9.717  49.465  1.00  0.00    -0.347 OA
BRANCH  23  24
HETATM   24  C16 UNL     1      26.124  10.313  48.923  1.00  0.00     0.201 C 
BRANCH  24  25
HETATM   25  C17 UNL     1      26.485  11.606  48.251  1.00  0.00     0.193 C 
BRANCH  25  26
HETATM   26  O3  UNL     1      27.618  12.228  48.689  1.00  0.00    -0.394 OA
HETATM   27  C18 UNL     1      27.696  13.583  48.558  1.00  0.00     0.201 C 
ENDBRANCH  25  26
ENDBRANCH  24  25
ENDBRANCH  23  24
ENDBRANCH  22  23
ENDBRANCH   9  11
ENDBRANCH   7   9
TORSDOF 6
ENDMDL
MODEL 5
REMARK VINA RESULT:      -7.3      2.320      3.991
REMARK  6 active torsions:
REMARK  status: ('A' for Active; 'I' for Inactive)
REMARK    1  A    between atoms: C7_7  and  N1_8 
REMARK    2  A    between atoms: N1_8  and  C8_9 
REMARK    3  A    between atoms: C15_19  and  O2_20 
REMARK    4  A    between atoms: O2_20  and  C16_21 
REMARK    5  A    between atoms: C16_21  and  C17_22 
REMARK    6  A    between atoms: C17_22  and  O3_23 
ROOT
HETATM    1  C1  UNL     1      29.905   2.109  54.897  1.00  0.00     0.018 C 
HETATM    2  C2  UNL     1      29.152   1.269  54.468  1.00  0.00    -0.078 C 
HETATM    3  C3  UNL     1      28.270   0.269  53.938  1.00  0.00     0.019 A 
HETATM    4  C4  UNL     1      28.688  -0.794  53.160  1.00  0.00     0.021 A 
HETATM    5  C5  UNL     1      27.735  -1.679  52.718  1.00  0.00     0.004 A 
HETATM    6  C6  UNL     1      26.398  -1.532  53.027  1.00  0.00     0.029 A 
HETATM    7  C7  UNL     1      25.947  -0.470  53.809  1.00  0.00     0.035 A 
HETATM    8  C20 UNL     1      26.938   0.417  54.247  1.00  0.00     0.050 A 
ENDROOT
BRANCH   7   9
HETATM    9  N1  UNL     1      24.546  -0.487  54.058  1.00  0.00    -0.340 N 
HETATM   10  H5  UNL     1      24.641  -1.055  54.918  1.00  0.00     0.167 HD
BRANCH   9  11
HETATM   11  C8  UNL     1      23.712   0.200  53.143  1.00  0.00     0.141 A 
HETATM   12  N2  UNL     1      24.321   1.050  52.308  1.00  0.00    -0.224 NA
HETATM   13  C9  UNL     1      23.639   1.756  51.392  1.00  0.00     0.236 A 
HETATM   14  N3  UNL     1      22.312   1.614  51.303  1.00  0.00    -0.241 NA
HETATM   15  C10 UNL     1      21.613   0.790  52.091  1.00  0.00     0.074 A 
HETATM   16  C11 UNL     1      22.350   0.087  53.015  1.00  0.00     0.037 A 
HETATM   17  C19 UNL     1      20.353   0.918  51.711  1.00  0.00     0.071 C 
HETATM   18  C12 UNL     1      22.039  -0.794  53.943  1.00  0.00     0.017 C 
HETATM   19  C13 UNL     1      20.879  -1.489  54.504  1.00  0.00     0.203 C 
HETATM   20  O1  UNL     1      19.755  -1.571  53.696  1.00  0.00    -0.357 OA
HETATM   21  C14 UNL     1      18.871  -0.751  53.019  1.00  0.00     0.171 C 
HETATM   22  C15 UNL     1      19.140   0.273  52.203  1.00  0.00     0.092 C 
BRANCH  22  23
HETATM   23  O2  UNL     1      17.993   0.870  51.700  1.00  0.00    -0.347 OA
BRANCH  23  24
HETATM   24  C16 UNL     1      17.880   1.691  50.598  1.00  0.00     0.201 C 
BRANCH  24  25
HETATM   25  C17 UNL     1      17.103   2.930  50.937  1.00  0.00     0.193 C 
BRANCH  25  26
HETATM   26  O3  UNL     1      17.830   4.031  51.291  1.00  0.00    -0.394 OA
HETATM   27  C18 UNL     1      19.095   4.148  50.798  1.00  0.00     0.201 C 
ENDBRANCH  25  26
ENDBRANCH  24  25
ENDBRANCH  23  24
ENDBRANCH  22  23
ENDBRANCH   9  11
ENDBRANCH   7   9
TORSDOF 6
ENDMDL
MODEL 6
REMARK VINA RESULT:      -7.2      4.971      8.772
REMARK  6 active torsions:
REMARK  status: ('A' for Active; 'I' for Inactive)
REMARK    1  A    between atoms: C7_7  and  N1_8 
REMARK    2  A    between atoms: N1_8  and  C8_9 
REMARK    3  A    between atoms: C15_19  and  O2_20 
REMARK    4  A    between atoms: O2_20  and  C16_21 
REMARK    5  A    between atoms: C16_21  and  C17_22 
REMARK    6  A    between atoms: C17_22  and  O3_23 
ROOT
HETATM    1  C1  UNL     1      26.718  -0.955  53.224  1.00  0.00     0.018 C 
HETATM    2  C2  UNL     1      25.553  -0.725  53.442  1.00  0.00    -0.078 C 
HETATM    3  C3  UNL     1      24.165  -0.473  53.707  1.00  0.00     0.019 A 
HETATM    4  C4  UNL     1      23.453  -1.080  54.724  1.00  0.00     0.021 A 
HETATM    5  C5  UNL     1      22.127  -0.746  54.865  1.00  0.00     0.004 A 
HETATM    6  C6  UNL     1      21.507   0.162  54.032  1.00  0.00     0.029 A 
HETATM    7  C7  UNL     1      22.201   0.790  52.998  1.00  0.00     0.035 A 
HETATM    8  C20 UNL     1      23.549   0.432  52.876  1.00  0.00     0.050 A 
ENDROOT
BRANCH   7   9
HETATM    9  N1  UNL     1      21.420   1.719  52.256  1.00  0.00    -0.340 N 
HETATM   10  H5  UNL     1      20.691   1.788  52.987  1.00  0.00     0.167 HD
BRANCH   9  11
HETATM   11  C8  UNL     1      21.909   2.119  50.989  1.00  0.00     0.141 A 
HETATM   12  N2  UNL     1      21.582   1.337  49.953  1.00  0.00    -0.224 NA
HETATM   13  C9  UNL     1      21.981   1.613  48.701  1.00  0.00     0.236 A 
HETATM   14  N3  UNL     1      22.728   2.698  48.471  1.00  0.00    -0.241 NA
HETATM   15  C10 UNL     1      23.107   3.541  49.438  1.00  0.00     0.074 A 
HETATM   16  C11 UNL     1      22.677   3.221  50.704  1.00  0.00     0.037 A 
HETATM   17  C19 UNL     1      23.820   4.476  48.834  1.00  0.00     0.071 C 
HETATM   18  C12 UNL     1      22.837   3.781  51.885  1.00  0.00     0.017 C 
HETATM   19  C13 UNL     1      23.480   4.935  52.515  1.00  0.00     0.203 C 
HETATM   20  O1  UNL     1      23.773   6.010  51.688  1.00  0.00    -0.357 OA
HETATM   21  C14 UNL     1      24.488   6.302  50.541  1.00  0.00     0.171 C 
HETATM   22  C15 UNL     1      24.493   5.655  49.372  1.00  0.00     0.092 C 
BRANCH  22  23
HETATM   23  O2  UNL     1      25.339   6.240  48.442  1.00  0.00    -0.347 OA
BRANCH  23  24
HETATM   24  C16 UNL     1      26.631   6.686  48.634  1.00  0.00     0.201 C 
BRANCH  24  25
HETATM   25  C17 UNL     1      26.807   8.062  48.062  1.00  0.00     0.193 C 
BRANCH  25  26
HETATM   26  O3  UNL     1      27.525   8.949  48.812  1.00  0.00    -0.394 OA
HETATM   27  C18 UNL     1      27.221   9.062  50.135  1.00  0.00     0.201 C 
ENDBRANCH  25  26
ENDBRANCH  24  25
ENDBRANCH  23  24
ENDBRANCH  22  23
ENDBRANCH   9  11
ENDBRANCH   7   9
TORSDOF 6
ENDMDL
MODEL 7
REMARK VINA RESULT:      -7.2      5.519      9.908
REMARK  6 active torsions:
REMARK  status: ('A' for Active; 'I' for Inactive)
REMARK    1  A    between atoms: C7_7  and  N1_8 
REMARK    2  A    between atoms: N1_8  and  C8_9 
REMARK    3  A    between atoms: C15_19  and  O2_20 
REMARK    4  A    between atoms: O2_20  and  C16_21 
REMARK    5  A    between atoms: C16_21  and  C17_22 
REMARK    6  A    between atoms: C17_22  and  O3_23 
ROOT
HETATM    1  C1  UNL     1      19.096  -0.674  53.274  1.00  0.00     0.018 C 
HETATM    2  C2  UNL     1      20.291  -0.515  53.333  1.00  0.00    -0.078 C 
HETATM    3  C3  UNL     1      21.711  -0.327  53.427  1.00  0.00     0.019 A 
HETATM    4  C4  UNL     1      22.505  -0.924  54.388  1.00  0.00     0.021 A 
HETATM    5  C5  UNL     1      23.853  -0.656  54.362  1.00  0.00     0.004 A 
HETATM    6  C6  UNL     1      24.416   0.178  53.418  1.00  0.00     0.029 A 
HETATM    7  C7  UNL     1      23.639   0.794  52.437  1.00  0.00     0.035 A 
HETATM    8  C20 UNL     1      22.271   0.504  52.486  1.00  0.00     0.050 A 
ENDROOT
BRANCH   7   9
HETATM    9  N1  UNL     1      24.383   1.594  51.526  1.00  0.00    -0.340 N 
HETATM   10  H5  UNL     1      24.876   0.782  51.115  1.00  0.00     0.167 HD
BRANCH   9  11
HETATM   11  C8  UNL     1      24.162   2.993  51.554  1.00  0.00     0.141 A 
HETATM   12  N2  UNL     1      23.206   3.426  52.383  1.00  0.00    -0.224 NA
HETATM   13  C9  UNL     1      22.906   4.729  52.503  1.00  0.00     0.236 A 
HETATM   14  N3  UNL     1      23.577   5.629  51.776  1.00  0.00    -0.241 NA
HETATM   15  C10 UNL     1      24.549   5.297  50.920  1.00  0.00     0.074 A 
HETATM   16  C11 UNL     1      24.824   3.952  50.829  1.00  0.00     0.037 A 
HETATM   17  C19 UNL     1      24.969   6.437  50.399  1.00  0.00     0.071 C 
HETATM   18  C12 UNL     1      25.682   3.248  50.120  1.00  0.00     0.017 C 
HETATM   19  C13 UNL     1      26.739   3.418  49.124  1.00  0.00     0.203 C 
HETATM   20  O1  UNL     1      27.329   4.672  49.053  1.00  0.00    -0.357 OA
HETATM   21  C14 UNL     1      26.988   5.995  48.842  1.00  0.00     0.171 C 
HETATM   22  C15 UNL     1      26.008   6.706  49.409  1.00  0.00     0.092 C 
BRANCH  22  23
HETATM   23  O2  UNL     1      25.964   8.014  48.951  1.00  0.00    -0.347 OA
BRANCH  23  24
HETATM   24  C16 UNL     1      26.050   9.174  49.693  1.00  0.00     0.201 C 
BRANCH  24  25
HETATM   25  C17 UNL     1      27.484   9.529  49.957  1.00  0.00     0.193 C 
BRANCH  25  26
HETATM   26  O3  UNL     1      28.344   9.429  48.901  1.00  0.00    -0.394 OA
HETATM   27  C18 UNL     1      29.520   8.769  49.094  1.00  0.00     0.201 C 
ENDBRANCH  25  26
ENDBRANCH  24  25
ENDBRANCH  23  24
ENDBRANCH  22  23
ENDBRANCH   9  11
ENDBRANCH   7   9
TORSDOF 6
ENDMDL
MODEL 8
REMARK VINA RESULT:      -7.1      7.657     11.660
REMARK  6 active torsions:
REMARK  status: ('A' for Active; 'I' for Inactive)
REMARK    1  A    between atoms: C7_7  and  N1_8 
REMARK    2  A    between atoms: N1_8  and  C8_9 
REMARK    3  A    between atoms: C15_19  and  O2_20 
REMARK    4  A    between atoms: O2_20  and  C16_21 
REMARK    5  A    between atoms: C16_21  and  C17_22 
REMARK    6  A    between atoms: C17_22  and  O3_23 
ROOT
HETATM    1  C1  UNL     1      25.986   0.217  53.903  1.00  0.00     0.018 C 
HETATM    2  C2  UNL     1      25.342   0.757  53.037  1.00  0.00    -0.078 C 
HETATM    3  C3  UNL     1      24.566   1.379  52.002  1.00  0.00     0.019 A 
HETATM    4  C4  UNL     1      23.243   1.075  51.744  1.00  0.00     0.021 A 
HETATM    5  C5  UNL     1      22.620   1.748  50.721  1.00  0.00     0.004 A 
HETATM    6  C6  UNL     1      23.272   2.700  49.964  1.00  0.00     0.029 A 
HETATM    7  C7  UNL     1      24.606   3.027  50.203  1.00  0.00     0.035 A 
HETATM    8  C20 UNL     1      25.218   2.327  51.249  1.00  0.00     0.050 A 
ENDROOT
BRANCH   7   9
HETATM    9  N1  UNL     1      25.113   4.049  49.353  1.00  0.00    -0.340 N 
HETATM   10  H5  UNL     1      25.362   3.388  48.598  1.00  0.00     0.167 HD
BRANCH   9  11
HETATM   11  C8  UNL     1      25.066   5.381  49.834  1.00  0.00     0.141 A 
HETATM   12  N2  UNL     1      24.011   5.700  50.593  1.00  0.00    -0.224 NA
HETATM   13  C9  UNL     1      23.855   6.929  51.111  1.00  0.00     0.236 A 
HETATM   14  N3  UNL     1      24.775   7.869  50.868  1.00  0.00    -0.241 NA
HETATM   15  C10 UNL     1      25.863   7.648  50.122  1.00  0.00     0.074 A 
HETATM   16  C11 UNL     1      25.983   6.377  49.612  1.00  0.00     0.037 A 
HETATM   17  C19 UNL     1      26.524   8.793  50.111  1.00  0.00     0.071 C 
HETATM   18  C12 UNL     1      26.883   5.786  48.852  1.00  0.00     0.017 C 
HETATM   19  C13 UNL     1      28.146   6.061  48.168  1.00  0.00     0.203 C 
HETATM   20  O1  UNL     1      28.887   7.135  48.640  1.00  0.00    -0.357 OA
HETATM   21  C14 UNL     1      28.766   8.495  48.854  1.00  0.00     0.171 C 
HETATM   22  C15 UNL     1      27.781   9.160  49.465  1.00  0.00     0.092 C 
BRANCH  22  23
HETATM   23  O2  UNL     1      28.000  10.530  49.494  1.00  0.00    -0.347 OA
BRANCH  23  24
HETATM   24  C16 UNL     1      28.543  11.322  48.504  1.00  0.00     0.201 C 
BRANCH  24  25
HETATM   25  C17 UNL     1      28.698  12.736  48.982  1.00  0.00     0.193 C 
BRANCH  25  26
HETATM   26  O3  UNL     1      27.548  13.436  49.209  1.00  0.00    -0.394 OA
HETATM   27  C18 UNL     1      26.999  14.122  48.168  1.00  0.00     0.201 C 
ENDBRANCH  25  26
ENDBRANCH  24  25
ENDBRANCH  23  24
ENDBRANCH  22  23
ENDBRANCH   9  11
ENDBRANCH   7   9
TORSDOF 6
ENDMDL
MODEL 9
REMARK VINA RESULT:      -7.0      5.003      7.161
REMARK  6 active torsions:
REMARK  status: ('A' for Active; 'I' for Inactive)
REMARK    1  A    between atoms: C7_7  and  N1_8 
REMARK    2  A    between atoms: N1_8  and  C8_9 
REMARK    3  A    between atoms: C15_19  and  O2_20 
REMARK    4  A    between atoms: O2_20  and  C16_21 
REMARK    5  A    between atoms: C16_21  and  C17_22 
REMARK    6  A    between atoms: C17_22  and  O3_23 
ROOT
HETATM    1  C1  UNL     1      24.894   9.240  47.791  1.00  0.00     0.018 C 
HETATM    2  C2  UNL     1      25.732   8.379  47.908  1.00  0.00    -0.078 C 
HETATM    3  C3  UNL     1      26.737   7.362  48.028  1.00  0.00     0.019 A 
HETATM    4  C4  UNL     1      28.044   7.518  47.608  1.00  0.00     0.021 A 
HETATM    5  C5  UNL     1      28.904   6.460  47.783  1.00  0.00     0.004 A 
HETATM    6  C6  UNL     1      28.498   5.273  48.357  1.00  0.00     0.029 A 
HETATM    7  C7  UNL     1      27.186   5.088  48.791  1.00  0.00     0.035 A 
HETATM    8  C20 UNL     1      26.331   6.180  48.601  1.00  0.00     0.050 A 
ENDROOT
BRANCH   7   9
HETATM    9  N1  UNL     1      26.946   3.819  49.388  1.00  0.00    -0.340 N 
HETATM   10  H5  UNL     1      27.939   3.532  49.329  1.00  0.00     0.167 HD
BRANCH   9  11
HETATM   11  C8  UNL     1      25.617   3.518  49.771  1.00  0.00     0.141 A 
HETATM   12  N2  UNL     1      24.648   4.162  49.109  1.00  0.00    -0.224 NA
HETATM   13  C9  UNL     1      23.349   3.959  49.378  1.00  0.00     0.236 A 
HETATM   14  N3  UNL     1      23.001   3.089  50.333  1.00  0.00    -0.241 NA
HETATM   15  C10 UNL     1      23.893   2.397  51.049  1.00  0.00     0.074 A 
HETATM   16  C11 UNL     1      25.212   2.636  50.742  1.00  0.00     0.037 A 
HETATM   17  C19 UNL     1      23.182   1.653  51.879  1.00  0.00     0.071 C 
HETATM   18  C12 UNL     1      26.351   2.168  51.209  1.00  0.00     0.017 C 
HETATM   19  C13 UNL     1      26.868   1.231  52.207  1.00  0.00     0.203 C 
HETATM   20  O1  UNL     1      25.997   0.241  52.638  1.00  0.00    -0.357 OA
HETATM   21  C14 UNL     1      24.754   0.103  53.228  1.00  0.00     0.171 C 
HETATM   22  C15 UNL     1      23.603   0.697  52.899  1.00  0.00     0.092 C 
BRANCH  22  23
HETATM   23  O2  UNL     1      22.553   0.316  53.720  1.00  0.00    -0.347 OA
BRANCH  23  24
HETATM   24  C16 UNL     1      22.481  -0.787  54.546  1.00  0.00     0.201 C 
BRANCH  24  25
HETATM   25  C17 UNL     1      21.183  -1.514  54.348  1.00  0.00     0.193 C 
BRANCH  25  26
HETATM   26  O3  UNL     1      20.443  -1.160  53.256  1.00  0.00    -0.394 OA
HETATM   27  C18 UNL     1      19.193  -0.660  53.465  1.00  0.00     0.201 C 
ENDBRANCH  25  26
ENDBRANCH  24  25
ENDBRANCH  23  24
ENDBRANCH  22  23
ENDBRANCH   9  11
ENDBRANCH   7   9
TORSDOF 6
ENDMDL
