MODEL 1
REMARK VINA RESULT:      -7.0      0.000      0.000
REMARK  7 active torsions:
REMARK  status: ('A' for Active; 'I' for Inactive)
REMARK    1  A    between atoms: C3_3  and  C4_5 
REMARK    2  A    between atoms: C9_10  and  C10_11 
REMARK    3  A    between atoms: C10_11  and  C11_12 
REMARK    4  A    between atoms: C10_11  and  N2_19 
REMARK    5  A    between atoms: C11_12  and  C12_13 
REMARK    6  A    between atoms: C12_13  and  C13_14 
REMARK    7  A    between atoms: N2_19  and  C17_20 
ROOT
HETATM    1  C10 UNL     1      22.456   0.203  52.816  1.00  0.00     0.035 C 
ENDROOT
BRANCH   1   2
HETATM    2  C9  UNL     1      22.218   0.907  51.579  1.00  0.00     0.007 C 
HETATM    3  C5  UNL     1      23.123   1.883  50.945  1.00  0.00    -0.038 C 
HETATM    4  C4  UNL     1      24.114   2.557  51.488  1.00  0.00     0.050 C 
HETATM    5  C6  UNL     1      22.706   1.980  49.523  1.00  0.00     0.067 C 
HETATM    6  C7  UNL     1      21.572   1.003  49.481  1.00  0.00    -0.009 C 
HETATM    7  C8  UNL     1      21.215   0.876  50.748  1.00  0.00    -0.016 C 
BRANCH   4   8
HETATM    8  C3  UNL     1      24.861   3.467  50.629  1.00  0.00     0.112 C 
HETATM    9  C2  UNL     1      26.058   3.140  50.170  1.00  0.00     0.011 C 
HETATM   10  C1  UNL     1      26.823   4.049  49.304  1.00  0.00     0.039 C 
HETATM   11  F1  UNL     1      24.396   4.667  50.258  1.00  0.00    -0.206 F 
ENDBRANCH   4   8
ENDBRANCH   1   2
BRANCH   1  12
HETATM   12  C11 UNL     1      23.537  -0.516  53.067  1.00  0.00     0.004 C 
BRANCH  12  13
HETATM   13  C12 UNL     1      24.591  -0.527  54.091  1.00  0.00     0.043 C 
BRANCH  13  14
HETATM   14  C13 UNL     1      25.831   0.221  53.662  1.00  0.00     0.054 A 
HETATM   15  C14 UNL     1      26.558  -0.480  52.573  1.00  0.00     0.003 A 
HETATM   16  C15 UNL     1      27.725  -0.846  53.077  1.00  0.00     0.112 A 
HETATM   17  N1  UNL     1      27.839  -0.442  54.429  1.00  0.00    -0.277 NA
HETATM   18  C16 UNL     1      26.779   0.178  54.820  1.00  0.00     0.098 A 
ENDBRANCH  13  14
ENDBRANCH  12  13
ENDBRANCH   1  12
BRANCH   1  19
HETATM   19  N2  UNL     1      21.491   0.261  53.857  1.00  0.00    -0.390 N 
HETATM   20  H16 UNL     1      21.579   1.246  54.181  1.00  0.00     0.159 HD
BRANCH  19  21
HETATM   21  C17 UNL     1      20.753  -0.963  54.115  1.00  0.00     0.115 C 
HETATM   22  C18 UNL     1      19.375  -0.826  53.468  1.00  0.00     0.026 C 
ENDBRANCH  19  21
ENDBRANCH   1  19
TORSDOF 7
ENDMDL
MODEL 2
REMARK VINA RESULT:      -6.9      2.253      4.870
REMARK  7 active torsions:
REMARK  status: ('A' for Active; 'I' for Inactive)
REMARK    1  A    between atoms: C3_3  and  C4_5 
REMARK    2  A    between atoms: C9_10  and  C10_11 
REMARK    3  A    between atoms: C10_11  and  C11_12 
REMARK    4  A    between atoms: C10_11  and  N2_19 
REMARK    5  A    between atoms: C11_12  and  C12_13 
REMARK    6  A    between atoms: C12_13  and  C13_14 
REMARK    7  A    between atoms: N2_19  and  C17_20 
ROOT
HETATM    1  C10 UNL     1      25.379   2.961  50.953  1.00  0.00     0.035 C 
ENDROOT
BRANCH   1   2
HETATM    2  C9  UNL     1      24.075   2.425  50.646  1.00  0.00     0.007 C 
HETATM    3  C5  UNL     1      23.203   1.675  51.569  1.00  0.00    -0.038 C 
HETATM    4  C4  UNL     1      23.527   1.056  52.684  1.00  0.00     0.050 C 
HETATM    5  C6  UNL     1      21.834   1.740  50.998  1.00  0.00     0.067 C 
HETATM    6  C7  UNL     1      22.065   2.564  49.769  1.00  0.00    -0.009 C 
HETATM    7  C8  UNL     1      23.366   2.454  49.554  1.00  0.00    -0.016 C 
BRANCH   4   8
HETATM    8  C3  UNL     1      22.461   0.384  53.417  1.00  0.00     0.112 C 
HETATM    9  C2  UNL     1      22.447  -0.933  53.539  1.00  0.00     0.011 C 
HETATM   10  C1  UNL     1      21.377  -1.624  54.274  1.00  0.00     0.039 C 
HETATM   11  F1  UNL     1      21.451   1.041  54.000  1.00  0.00    -0.206 F 
ENDBRANCH   4   8
ENDBRANCH   1   2
BRANCH   1  12
HETATM   12  C11 UNL     1      26.404   2.236  51.367  1.00  0.00     0.004 C 
BRANCH  12  13
HETATM   13  C12 UNL     1      27.138   2.057  52.627  1.00  0.00     0.043 C 
BRANCH  13  14
HETATM   14  C13 UNL     1      27.661   0.650  52.806  1.00  0.00     0.054 A 
HETATM   15  C14 UNL     1      26.796  -0.356  52.140  1.00  0.00     0.003 A 
HETATM   16  C15 UNL     1      26.284  -1.105  53.102  1.00  0.00     0.112 A 
HETATM   17  N1  UNL     1      26.741  -0.677  54.372  1.00  0.00    -0.277 NA
HETATM   18  C16 UNL     1      27.538   0.331  54.263  1.00  0.00     0.098 A 
ENDBRANCH  13  14
ENDBRANCH  12  13
ENDBRANCH   1  12
BRANCH   1  19
HETATM   19  N2  UNL     1      25.619   4.355  50.813  1.00  0.00    -0.390 N 
HETATM   20  H16 UNL     1      25.296   4.725  51.730  1.00  0.00     0.159 HD
BRANCH  19  21
HETATM   21  C17 UNL     1      26.190   4.782  49.548  1.00  0.00     0.115 C 
HETATM   22  C18 UNL     1      25.172   5.684  48.852  1.00  0.00     0.026 C 
ENDBRANCH  19  21
ENDBRANCH   1  19
TORSDOF 7
ENDMDL
MODEL 3
REMARK VINA RESULT:      -6.9      2.189      4.687
REMARK  7 active torsions:
REMARK  status: ('A' for Active; 'I' for Inactive)
REMARK    1  A    between atoms: C3_3  and  C4_5 
REMARK    2  A    between atoms: C9_10  and  C10_11 
REMARK    3  A    between atoms: C10_11  and  C11_12 
REMARK    4  A    between atoms: C10_11  and  N2_19 
REMARK    5  A    between atoms: C11_12  and  C12_13 
REMARK    6  A    between atoms: C12_13  and  C13_14 
REMARK    7  A    between atoms: N2_19  and  C17_20 
ROOT
HETATM    1  C10 UNL     1      25.766   2.741  51.307  1.00  0.00     0.035 C 
ENDROOT
BRANCH   1   2
HETATM    2  C9  UNL     1      24.384   2.425  51.577  1.00  0.00     0.007 C 
HETATM    3  C5  UNL     1      23.321   2.238  50.572  1.00  0.00    -0.038 C 
HETATM    4  C4  UNL     1      23.298   2.636  49.318  1.00  0.00     0.050 C 
HETATM    5  C6  UNL     1      22.231   1.491  51.248  1.00  0.00     0.067 C 
HETATM    6  C7  UNL     1      22.806   1.304  52.618  1.00  0.00    -0.009 C 
HETATM    7  C8  UNL     1      23.746   2.232  52.697  1.00  0.00    -0.016 C 
BRANCH   4   8
HETATM    8  C3  UNL     1      22.113   2.318  48.531  1.00  0.00     0.112 C 
HETATM    9  C2  UNL     1      21.204   3.243  48.268  1.00  0.00     0.011 C 
HETATM   10  C1  UNL     1      20.004   2.936  47.476  1.00  0.00     0.039 C 
HETATM   11  F1  UNL     1      21.873   1.098  48.035  1.00  0.00    -0.206 F 
ENDBRANCH   4   8
ENDBRANCH   1   2
BRANCH   1  12
HETATM   12  C11 UNL     1      26.780   1.934  51.569  1.00  0.00     0.004 C 
BRANCH  12  13
HETATM   13  C12 UNL     1      27.647   1.658  52.723  1.00  0.00     0.043 C 
BRANCH  13  14
HETATM   14  C13 UNL     1      27.629   0.205  53.136  1.00  0.00     0.054 A 
HETATM   15  C14 UNL     1      26.399  -0.490  52.681  1.00  0.00     0.003 A 
HETATM   16  C15 UNL     1      25.736  -0.831  53.773  1.00  0.00     0.112 A 
HETATM   17  N1  UNL     1      26.430  -0.416  54.935  1.00  0.00    -0.277 NA
HETATM   18  C16 UNL     1      27.529   0.186  54.630  1.00  0.00     0.098 A 
ENDBRANCH  13  14
ENDBRANCH  12  13
ENDBRANCH   1  12
BRANCH   1  19
HETATM   19  N2  UNL     1      26.101   3.991  50.720  1.00  0.00    -0.390 N 
HETATM   20  H16 UNL     1      25.739   4.666  51.425  1.00  0.00     0.159 HD
BRANCH  19  21
HETATM   21  C17 UNL     1      26.783   3.934  49.440  1.00  0.00     0.115 C 
HETATM   22  C18 UNL     1      26.728   5.327  48.815  1.00  0.00     0.026 C 
ENDBRANCH  19  21
ENDBRANCH   1  19
TORSDOF 7
ENDMDL
MODEL 4
REMARK VINA RESULT:      -6.8      2.158      4.407
REMARK  7 active torsions:
REMARK  status: ('A' for Active; 'I' for Inactive)
REMARK    1  A    between atoms: C3_3  and  C4_5 
REMARK    2  A    between atoms: C9_10  and  C10_11 
REMARK    3  A    between atoms: C10_11  and  C11_12 
REMARK    4  A    between atoms: C10_11  and  N2_19 
REMARK    5  A    between atoms: C11_12  and  C12_13 
REMARK    6  A    between atoms: C12_13  and  C13_14 
REMARK    7  A    between atoms: N2_19  and  C17_20 
ROOT
HETATM    1  C10 UNL     1      25.467   1.932  51.868  1.00  0.00     0.035 C 
ENDROOT
BRANCH   1   2
HETATM    2  C9  UNL     1      24.106   1.508  52.096  1.00  0.00     0.007 C 
HETATM    3  C5  UNL     1      23.020   1.493  51.098  1.00  0.00    -0.038 C 
HETATM    4  C4  UNL     1      22.944   2.145  49.958  1.00  0.00     0.050 C 
HETATM    5  C6  UNL     1      21.980   0.575  51.625  1.00  0.00     0.067 C 
HETATM    6  C7  UNL     1      22.603   0.127  52.911  1.00  0.00    -0.009 C 
HETATM    7  C8  UNL     1      23.511   1.056  53.163  1.00  0.00    -0.016 C 
BRANCH   4   8
HETATM    8  C3  UNL     1      21.748   1.951  49.148  1.00  0.00     0.112 C 
HETATM    9  C2  UNL     1      20.801   2.874  49.103  1.00  0.00     0.011 C 
HETATM   10  C1  UNL     1      19.589   2.691  48.291  1.00  0.00     0.039 C 
HETATM   11  F1  UNL     1      21.534   0.851  48.415  1.00  0.00    -0.206 F 
ENDBRANCH   4   8
ENDBRANCH   1   2
BRANCH   1  12
HETATM   12  C11 UNL     1      26.522   1.144  51.986  1.00  0.00     0.004 C 
BRANCH  12  13
HETATM   13  C12 UNL     1      26.767  -0.304  52.026  1.00  0.00     0.043 C 
BRANCH  13  14
HETATM   14  C13 UNL     1      27.178  -0.791  53.396  1.00  0.00     0.054 A 
HETATM   15  C14 UNL     1      27.304   0.322  54.370  1.00  0.00     0.003 A 
HETATM   16  C15 UNL     1      28.581   0.382  54.707  1.00  0.00     0.112 A 
HETATM   17  N1  UNL     1      29.328  -0.611  54.030  1.00  0.00    -0.277 NA
HETATM   18  C16 UNL     1      28.573  -1.318  53.261  1.00  0.00     0.098 A 
ENDBRANCH  13  14
ENDBRANCH  12  13
ENDBRANCH   1  12
BRANCH   1  19
HETATM   19  N2  UNL     1      25.732   3.276  51.490  1.00  0.00    -0.390 N 
HETATM   20  H16 UNL     1      25.245   3.813  52.237  1.00  0.00     0.159 HD
BRANCH  19  21
HETATM   21  C17 UNL     1      26.530   3.457  50.290  1.00  0.00     0.115 C 
HETATM   22  C18 UNL     1      25.806   4.460  49.392  1.00  0.00     0.026 C 
ENDBRANCH  19  21
ENDBRANCH   1  19
TORSDOF 7
ENDMDL
MODEL 5
REMARK VINA RESULT:      -6.7      2.844      5.397
REMARK  7 active torsions:
REMARK  status: ('A' for Active; 'I' for Inactive)
REMARK    1  A    between atoms: C3_3  and  C4_5 
REMARK    2  A    between atoms: C9_10  and  C10_11 
REMARK    3  A    between atoms: C10_11  and  C11_12 
REMARK    4  A    between atoms: C10_11  and  N2_19 
REMARK    5  A    between atoms: C11_12  and  C12_13 
REMARK    6  A    between atoms: C12_13  and  C13_14 
REMARK    7  A    between atoms: N2_19  and  C17_20 
ROOT
HETATM    1  C10 UNL     1      23.334   2.681  51.317  1.00  0.00     0.035 C 
ENDROOT
BRANCH   1   2
HETATM    2  C9  UNL     1      23.403   1.411  52.000  1.00  0.00     0.007 C 
HETATM    3  C5  UNL     1      24.633   0.703  52.398  1.00  0.00    -0.038 C 
HETATM    4  C4  UNL     1      25.858   0.867  51.945  1.00  0.00     0.050 C 
HETATM    5  C6  UNL     1      24.236  -0.272  53.444  1.00  0.00     0.067 C 
HETATM    6  C7  UNL     1      22.767  -0.005  53.556  1.00  0.00    -0.009 C 
HETATM    7  C8  UNL     1      22.469   0.606  52.420  1.00  0.00    -0.016 C 
BRANCH   4   8
HETATM    8  C3  UNL     1      26.906   0.029  52.515  1.00  0.00     0.112 C 
HETATM    9  C2  UNL     1      27.758   0.516  53.403  1.00  0.00     0.011 C 
HETATM   10  C1  UNL     1      28.820  -0.318  53.984  1.00  0.00     0.039 C 
HETATM   11  F1  UNL     1      27.071  -1.258  52.184  1.00  0.00    -0.206 F 
ENDBRANCH   4   8
ENDBRANCH   1   2
BRANCH   1  12
HETATM   12  C11 UNL     1      23.512   2.837  50.016  1.00  0.00     0.004 C 
BRANCH  12  13
HETATM   13  C12 UNL     1      24.277   3.745  49.150  1.00  0.00     0.043 C 
BRANCH  13  14
HETATM   14  C13 UNL     1      25.461   4.365  49.854  1.00  0.00     0.054 A 
HETATM   15  C14 UNL     1      25.771   5.722  49.336  1.00  0.00     0.003 A 
HETATM   16  C15 UNL     1      26.961   5.642  48.765  1.00  0.00     0.112 A 
HETATM   17  N1  UNL     1      27.478   4.328  48.859  1.00  0.00    -0.277 NA
HETATM   18  C16 UNL     1      26.658   3.549  49.477  1.00  0.00     0.098 A 
ENDBRANCH  13  14
ENDBRANCH  12  13
ENDBRANCH   1  12
BRANCH   1  19
HETATM   19  N2  UNL     1      23.056   3.864  52.053  1.00  0.00    -0.390 N 
HETATM   20  H16 UNL     1      23.919   3.971  52.626  1.00  0.00     0.159 HD
BRANCH  19  21
HETATM   21  C17 UNL     1      21.773   4.492  51.795  1.00  0.00     0.115 C 
HETATM   22  C18 UNL     1      22.031   5.950  51.415  1.00  0.00     0.026 C 
ENDBRANCH  19  21
ENDBRANCH   1  19
TORSDOF 7
ENDMDL
MODEL 6
REMARK VINA RESULT:      -6.6      2.549      6.161
REMARK  7 active torsions:
REMARK  status: ('A' for Active; 'I' for Inactive)
REMARK    1  A    between atoms: C3_3  and  C4_5 
REMARK    2  A    between atoms: C9_10  and  C10_11 
REMARK    3  A    between atoms: C10_11  and  C11_12 
REMARK    4  A    between atoms: C10_11  and  N2_19 
REMARK    5  A    between atoms: C11_12  and  C12_13 
REMARK    6  A    between atoms: C12_13  and  C13_14 
REMARK    7  A    between atoms: N2_19  and  C17_20 
ROOT
HETATM    1  C10 UNL     1      23.070   1.147  52.490  1.00  0.00     0.035 C 
ENDROOT
BRANCH   1   2
HETATM    2  C9  UNL     1      23.541   0.084  53.345  1.00  0.00     0.007 C 
HETATM    3  C5  UNL     1      24.930  -0.403  53.444  1.00  0.00    -0.038 C 
HETATM    4  C4  UNL     1      25.918  -0.244  52.591  1.00  0.00     0.050 C 
HETATM    5  C6  UNL     1      25.026  -1.137  54.731  1.00  0.00     0.067 C 
HETATM    6  C7  UNL     1      23.636  -0.978  55.267  1.00  0.00    -0.009 C 
HETATM    7  C8  UNL     1      22.917  -0.678  54.197  1.00  0.00    -0.016 C 
BRANCH   4   8
HETATM    8  C3  UNL     1      27.207  -0.833  52.934  1.00  0.00     0.112 C 
HETATM    9  C2  UNL     1      28.202  -0.079  53.372  1.00  0.00     0.011 C 
HETATM   10  C1  UNL     1      29.508  -0.659  53.721  1.00  0.00     0.039 C 
HETATM   11  F1  UNL     1      27.462  -2.143  52.829  1.00  0.00    -0.206 F 
ENDBRANCH   4   8
ENDBRANCH   1   2
BRANCH   1  12
HETATM   12  C11 UNL     1      22.238   0.975  51.478  1.00  0.00     0.004 C 
BRANCH  12  13
HETATM   13  C12 UNL     1      21.028   0.182  51.221  1.00  0.00     0.043 C 
BRANCH  13  14
HETATM   14  C13 UNL     1      19.853   0.614  52.066  1.00  0.00     0.054 A 
HETATM   15  C14 UNL     1      19.433  -0.441  53.022  1.00  0.00     0.003 A 
HETATM   16  C15 UNL     1      18.217  -0.814  52.657  1.00  0.00     0.112 A 
HETATM   17  N1  UNL     1      17.786  -0.086  51.523  1.00  0.00    -0.277 NA
HETATM   18  C16 UNL     1      18.686   0.753  51.138  1.00  0.00     0.098 A 
ENDBRANCH  13  14
ENDBRANCH  12  13
ENDBRANCH   1  12
BRANCH   1  19
HETATM   19  N2  UNL     1      23.505   2.481  52.719  1.00  0.00    -0.390 N 
HETATM   20  H16 UNL     1      23.521   2.529  53.759  1.00  0.00     0.159 HD
BRANCH  19  21
HETATM   21  C17 UNL     1      23.768   3.280  51.535  1.00  0.00     0.115 C 
HETATM   22  C18 UNL     1      25.245   3.121  51.179  1.00  0.00     0.026 C 
ENDBRANCH  19  21
ENDBRANCH   1  19
TORSDOF 7
ENDMDL
MODEL 7
REMARK VINA RESULT:      -6.5      2.340      3.543
REMARK  7 active torsions:
REMARK  status: ('A' for Active; 'I' for Inactive)
REMARK    1  A    between atoms: C3_3  and  C4_5 
REMARK    2  A    between atoms: C9_10  and  C10_11 
REMARK    3  A    between atoms: C10_11  and  C11_12 
REMARK    4  A    between atoms: C10_11  and  N2_19 
REMARK    5  A    between atoms: C11_12  and  C12_13 
REMARK    6  A    between atoms: C12_13  and  C13_14 
REMARK    7  A    between atoms: N2_19  and  C17_20 
ROOT
HETATM    1  C10 UNL     1      24.140   2.188  52.353  1.00  0.00     0.035 C 
ENDROOT
BRANCH   1   2
HETATM    2  C9  UNL     1      22.940   1.765  51.674  1.00  0.00     0.007 C 
HETATM    3  C5  UNL     1      22.655   1.916  50.235  1.00  0.00    -0.038 C 
HETATM    4  C4  UNL     1      23.222   2.724  49.366  1.00  0.00     0.050 C 
HETATM    5  C6  UNL     1      21.568   0.955  49.920  1.00  0.00     0.067 C 
HETATM    6  C7  UNL     1      21.341   0.316  51.255  1.00  0.00    -0.009 C 
HETATM    7  C8  UNL     1      21.861   1.180  52.112  1.00  0.00    -0.016 C 
BRANCH   4   8
HETATM    8  C3  UNL     1      22.750   2.673  47.988  1.00  0.00     0.112 C 
HETATM    9  C2  UNL     1      22.128   3.706  47.444  1.00  0.00     0.011 C 
HETATM   10  C1  UNL     1      21.646   3.667  46.056  1.00  0.00     0.039 C 
HETATM   11  F1  UNL     1      22.911   1.601  47.201  1.00  0.00    -0.206 F 
ENDBRANCH   4   8
ENDBRANCH   1   2
BRANCH   1  12
HETATM   12  C11 UNL     1      24.956   1.373  53.000  1.00  0.00     0.004 C 
BRANCH  12  13
HETATM   13  C12 UNL     1      25.781   0.205  52.658  1.00  0.00     0.043 C 
BRANCH  13  14
HETATM   14  C13 UNL     1      27.261   0.513  52.661  1.00  0.00     0.054 A 
HETATM   15  C14 UNL     1      28.063  -0.608  53.213  1.00  0.00     0.003 A 
HETATM   16  C15 UNL     1      28.615  -0.159  54.328  1.00  0.00     0.112 A 
HETATM   17  N1  UNL     1      28.244   1.185  54.569  1.00  0.00    -0.277 NA
HETATM   18  C16 UNL     1      27.464   1.626  53.641  1.00  0.00     0.098 A 
ENDBRANCH  13  14
ENDBRANCH  12  13
ENDBRANCH   1  12
BRANCH   1  19
HETATM   19  N2  UNL     1      24.506   3.561  52.351  1.00  0.00    -0.390 N 
HETATM   20  H16 UNL     1      25.503   3.521  52.055  1.00  0.00     0.159 HD
BRANCH  19  21
HETATM   21  C17 UNL     1      23.464   4.501  52.726  1.00  0.00     0.115 C 
HETATM   22  C18 UNL     1      23.401   5.586  51.653  1.00  0.00     0.026 C 
ENDBRANCH  19  21
ENDBRANCH   1  19
TORSDOF 7
ENDMDL
MODEL 8
REMARK VINA RESULT:      -6.5      2.374      3.959
REMARK  7 active torsions:
REMARK  status: ('A' for Active; 'I' for Inactive)
REMARK    1  A    between atoms: C3_3  and  C4_5 
REMARK    2  A    between atoms: C9_10  and  C10_11 
REMARK    3  A    between atoms: C10_11  and  C11_12 
REMARK    4  A    between atoms: C10_11  and  N2_19 
REMARK    5  A    between atoms: C11_12  and  C12_13 
REMARK    6  A    between atoms: C12_13  and  C13_14 
REMARK    7  A    between atoms: N2_19  and  C17_20 
ROOT
HETATM    1  C10 UNL     1      25.641   1.964  51.358  1.00  0.00     0.035 C 
ENDROOT
BRANCH   1   2
HETATM    2  C9  UNL     1      25.799   3.050  50.420  1.00  0.00     0.007 C 
HETATM    3  C5  UNL     1      25.131   4.363  50.488  1.00  0.00    -0.038 C 
HETATM    4  C4  UNL     1      24.051   4.700  51.159  1.00  0.00     0.050 C 
HETATM    5  C6  UNL     1      25.923   5.280  49.632  1.00  0.00     0.067 C 
HETATM    6  C7  UNL     1      27.013   4.372  49.153  1.00  0.00    -0.009 C 
HETATM    7  C8  UNL     1      26.520   3.159  49.341  1.00  0.00    -0.016 C 
BRANCH   4   8
HETATM    8  C3  UNL     1      23.596   6.081  51.054  1.00  0.00     0.112 C 
HETATM    9  C2  UNL     1      22.525   6.391  50.342  1.00  0.00     0.011 C 
HETATM   10  C1  UNL     1      22.055   7.780  50.227  1.00  0.00     0.039 C 
HETATM   11  F1  UNL     1      24.218   7.102  51.657  1.00  0.00    -0.206 F 
ENDBRANCH   4   8
ENDBRANCH   1   2
BRANCH   1  12
HETATM   12  C11 UNL     1      26.637   1.398  52.017  1.00  0.00     0.004 C 
BRANCH  12  13
HETATM   13  C12 UNL     1      27.764   1.860  52.839  1.00  0.00     0.043 C 
BRANCH  13  14
HETATM   14  C13 UNL     1      28.120   0.893  53.944  1.00  0.00     0.054 A 
HETATM   15  C14 UNL     1      29.541   0.470  53.880  1.00  0.00     0.003 A 
HETATM   16  C15 UNL     1      29.534  -0.826  53.615  1.00  0.00     0.112 A 
HETATM   17  N1  UNL     1      28.210  -1.309  53.495  1.00  0.00    -0.277 NA
HETATM   18  C16 UNL     1      27.352  -0.363  53.675  1.00  0.00     0.098 A 
ENDBRANCH  13  14
ENDBRANCH  12  13
ENDBRANCH   1  12
BRANCH   1  19
HETATM   19  N2  UNL     1      24.345   1.440  51.617  1.00  0.00    -0.390 N 
HETATM   20  H16 UNL     1      23.986   1.260  50.657  1.00  0.00     0.159 HD
BRANCH  19  21
HETATM   21  C17 UNL     1      23.969   1.330  53.015  1.00  0.00     0.115 C 
HETATM   22  C18 UNL     1      23.490  -0.101  53.262  1.00  0.00     0.026 C 
ENDBRANCH  19  21
ENDBRANCH   1  19
TORSDOF 7
ENDMDL
MODEL 9
REMARK VINA RESULT:      -6.5      1.800      2.774
REMARK  7 active torsions:
REMARK  status: ('A' for Active; 'I' for Inactive)
REMARK    1  A    between atoms: C3_3  and  C4_5 
REMARK    2  A    between atoms: C9_10  and  C10_11 
REMARK    3  A    between atoms: C10_11  and  C11_12 
REMARK    4  A    between atoms: C10_11  and  N2_19 
REMARK    5  A    between atoms: C11_12  and  C12_13 
REMARK    6  A    between atoms: C12_13  and  C13_14 
REMARK    7  A    between atoms: N2_19  and  C17_20 
ROOT
HETATM    1  C10 UNL     1      23.893   0.868  52.902  1.00  0.00     0.035 C 
ENDROOT
BRANCH   1   2
HETATM    2  C9  UNL     1      23.907   2.260  52.519  1.00  0.00     0.007 C 
HETATM    3  C5  UNL     1      23.581   2.799  51.186  1.00  0.00    -0.038 C 
HETATM    4  C4  UNL     1      23.553   2.171  50.031  1.00  0.00     0.050 C 
HETATM    5  C6  UNL     1      23.277   4.239  51.380  1.00  0.00     0.067 C 
HETATM    6  C7  UNL     1      23.450   4.382  52.860  1.00  0.00    -0.009 C 
HETATM    7  C8  UNL     1      24.189   3.337  53.195  1.00  0.00    -0.016 C 
BRANCH   4   8
HETATM    8  C3  UNL     1      23.195   2.946  48.849  1.00  0.00     0.112 C 
HETATM    9  C2  UNL     1      22.230   2.542  48.039  1.00  0.00     0.011 C 
HETATM   10  C1  UNL     1      21.859   3.314  46.843  1.00  0.00     0.039 C 
HETATM   11  F1  UNL     1      23.804   4.091  48.515  1.00  0.00    -0.206 F 
ENDBRANCH   4   8
ENDBRANCH   1   2
BRANCH   1  12
HETATM   12  C11 UNL     1      24.935   0.220  53.393  1.00  0.00     0.004 C 
BRANCH  12  13
HETATM   13  C12 UNL     1      26.032  -0.593  52.850  1.00  0.00     0.043 C 
BRANCH  13  14
HETATM   14  C13 UNL     1      27.358   0.130  52.858  1.00  0.00     0.054 A 
HETATM   15  C14 UNL     1      28.477  -0.759  53.260  1.00  0.00     0.003 A 
HETATM   16  C15 UNL     1      28.935  -0.287  54.408  1.00  0.00     0.112 A 
HETATM   17  N1  UNL     1      28.206   0.857  54.810  1.00  0.00    -0.277 NA
HETATM   18  C16 UNL     1      27.285   1.145  53.956  1.00  0.00     0.098 A 
ENDBRANCH  13  14
ENDBRANCH  12  13
ENDBRANCH   1  12
BRANCH   1  19
HETATM   19  N2  UNL     1      22.700   0.110  52.758  1.00  0.00    -0.390 N 
HETATM   20  H16 UNL     1      22.972  -0.591  52.038  1.00  0.00     0.159 HD
BRANCH  19  21
HETATM   21  C17 UNL     1      21.580   0.515  53.589  1.00  0.00     0.115 C 
HETATM   22  C18 UNL     1      21.473  -0.473  54.750  1.00  0.00     0.026 C 
ENDBRANCH  19  21
ENDBRANCH   1  19
TORSDOF 7
ENDMDL
