MODEL 1
REMARK VINA RESULT:      -8.7      0.000      0.000
REMARK  8 active torsions:
REMARK  status: ('A' for Active; 'I' for Inactive)
REMARK    1  A    between atoms: O1_2  and  C2_3 
REMARK    2  A    between atoms: C2_3  and  C3_5 
REMARK    3  A    between atoms: C8_10  and  S1_11 
REMARK    4  A    between atoms: S1_11  and  C9_12 
REMARK    5  A    between atoms: C9_12  and  C10_13 
REMARK    6  A    between atoms: C13_16  and  O3_17 
REMARK    7  A    between atoms: O3_17  and  C14_18 
REMARK    8  A    between atoms: C19_23  and  O4_24 
ROOT
HETATM    1  C10 UNL     1      23.139   2.993  51.716  1.00  0.00     0.036 C 
HETATM    2  C11 UNL     1      23.611   2.595  53.023  1.00  0.00    -0.017 C 
HETATM    3  C12 UNL     1      24.817   2.313  53.429  1.00  0.00     0.034 C 
HETATM    4  C13 UNL     1      26.227   2.226  53.047  1.00  0.00     0.075 C 
HETATM    5  C20 UNL     1      26.946   2.483  51.956  1.00  0.00     0.038 C 
HETATM    6  C21 UNL     1      26.776   2.979  50.570  1.00  0.00     0.020 C 
HETATM    7  C22 UNL     1      25.844   3.401  49.715  1.00  0.00     0.085 C 
HETATM    8  N1  UNL     1      24.404   3.599  49.706  1.00  0.00    -0.394 N 
HETATM    9  C23 UNL     1      23.749   4.498  48.832  1.00  0.00     0.148 C 
HETATM   10  C24 UNL     1      24.057   2.576  50.594  1.00  0.00     0.131 C 
ENDROOT
BRANCH   1  11
HETATM   11  C9  UNL     1      21.711   2.893  51.373  1.00  0.00     0.089 C 
BRANCH  11  12
HETATM   12  S1  UNL     1      21.293   1.262  50.645  1.00  0.00    -0.128 SA
BRANCH  12  13
HETATM   13  C8  UNL     1      20.932   0.181  52.032  1.00  0.00     0.016 A 
HETATM   14  C3  UNL     1      19.604  -0.039  52.371  1.00  0.00     0.056 A 
HETATM   15  C4  UNL     1      19.390  -0.890  53.459  1.00  0.00     0.019 A 
HETATM   16  C5  UNL     1      20.454  -1.456  54.129  1.00  0.00     0.001 A 
HETATM   17  C6  UNL     1      21.763  -1.217  53.767  1.00  0.00     0.001 A 
HETATM   18  C7  UNL     1      22.009  -0.375  52.690  1.00  0.00     0.019 A 
BRANCH  14  19
HETATM   19  C2  UNL     1      18.512   0.582  51.631  1.00  0.00     0.294 C 
HETATM   20  O2  UNL     1      18.267   1.771  51.942  1.00  0.00    -0.259 OA
BRANCH  19  21
HETATM   21  O1  UNL     1      17.871  -0.208  50.674  1.00  0.00    -0.322 OA
HETATM   22  C1  UNL     1      16.707   0.217  49.992  1.00  0.00     0.213 C 
ENDBRANCH  19  21
ENDBRANCH  14  19
ENDBRANCH  12  13
ENDBRANCH  11  12
ENDBRANCH   1  11
BRANCH   4  23
HETATM   23  O3  UNL     1      27.040   1.743  54.108  1.00  0.00    -0.308 OA
BRANCH  23  24
HETATM   24  C14 UNL     1      27.902   0.685  53.863  1.00  0.00     0.109 A 
HETATM   25  C15 UNL     1      27.434  -0.557  53.431  1.00  0.00     0.040 A 
HETATM   26  C16 UNL     1      28.352  -1.577  53.202  1.00  0.00     0.003 A 
HETATM   27  C17 UNL     1      29.698  -1.357  53.401  1.00  0.00     0.003 A 
HETATM   28  C18 UNL     1      30.146  -0.115  53.833  1.00  0.00     0.039 A 
HETATM   29  C19 UNL     1      29.248   0.904  54.062  1.00  0.00     0.099 A 
BRANCH  29  30
HETATM   30  O4  UNL     1      29.755   2.102  54.485  1.00  0.00    -0.358 OA
HETATM   31  H17 UNL     1      29.787   2.958  53.928  1.00  0.00     0.217 HD
ENDBRANCH  29  30
ENDBRANCH  23  24
ENDBRANCH   4  23
TORSDOF 8
ENDMDL
MODEL 2
REMARK VINA RESULT:      -8.7      3.263      6.427
REMARK  8 active torsions:
REMARK  status: ('A' for Active; 'I' for Inactive)
REMARK    1  A    between atoms: O1_2  and  C2_3 
REMARK    2  A    between atoms: C2_3  and  C3_5 
REMARK    3  A    between atoms: C8_10  and  S1_11 
REMARK    4  A    between atoms: S1_11  and  C9_12 
REMARK    5  A    between atoms: C9_12  and  C10_13 
REMARK    6  A    between atoms: C13_16  and  O3_17 
REMARK    7  A    between atoms: O3_17  and  C14_18 
REMARK    8  A    between atoms: C19_23  and  O4_24 
ROOT
HETATM    1  C10 UNL     1      24.409   2.660  51.650  1.00  0.00     0.036 C 
HETATM    2  C11 UNL     1      25.607   1.853  51.706  1.00  0.00    -0.017 C 
HETATM    3  C12 UNL     1      25.826   0.718  52.307  1.00  0.00     0.034 C 
HETATM    4  C13 UNL     1      25.238  -0.347  53.122  1.00  0.00     0.075 C 
HETATM    5  C20 UNL     1      24.032  -0.628  53.613  1.00  0.00     0.038 C 
HETATM    6  C21 UNL     1      22.654  -0.084  53.634  1.00  0.00     0.020 C 
HETATM    7  C22 UNL     1      21.928   0.945  53.197  1.00  0.00     0.085 C 
HETATM    8  N1  UNL     1      22.137   2.156  52.420  1.00  0.00    -0.394 N 
HETATM    9  C23 UNL     1      21.103   2.814  51.713  1.00  0.00     0.148 C 
HETATM   10  C24 UNL     1      23.460   2.407  52.795  1.00  0.00     0.131 C 
ENDROOT
BRANCH   1  11
HETATM   11  C9  UNL     1      24.476   4.075  51.247  1.00  0.00     0.089 C 
BRANCH  11  12
HETATM   12  S1  UNL     1      24.364   4.276  49.427  1.00  0.00    -0.128 SA
BRANCH  12  13
HETATM   13  C8  UNL     1      25.860   5.136  48.933  1.00  0.00     0.016 A 
HETATM   14  C3  UNL     1      25.767   6.473  48.577  1.00  0.00     0.056 A 
HETATM   15  C4  UNL     1      26.967   7.086  48.203  1.00  0.00     0.019 A 
HETATM   16  C5  UNL     1      28.148   6.374  48.201  1.00  0.00     0.001 A 
HETATM   17  C6  UNL     1      28.207   5.044  48.561  1.00  0.00     0.001 A 
HETATM   18  C7  UNL     1      27.032   4.408  48.937  1.00  0.00     0.019 A 
BRANCH  14  19
HETATM   19  C2  UNL     1      24.494   7.184  48.595  1.00  0.00     0.294 C 
HETATM   20  O2  UNL     1      23.873   7.192  47.507  1.00  0.00    -0.259 OA
BRANCH  19  21
HETATM   21  O1  UNL     1      24.118   7.769  49.806  1.00  0.00    -0.322 OA
HETATM   22  C1  UNL     1      22.782   7.763  50.272  1.00  0.00     0.213 C 
ENDBRANCH  19  21
ENDBRANCH  14  19
ENDBRANCH  12  13
ENDBRANCH  11  12
ENDBRANCH   1  11
BRANCH   4  23
HETATM   23  O3  UNL     1      26.195  -1.334  53.483  1.00  0.00    -0.308 OA
BRANCH  23  24
HETATM   24  C14 UNL     1      27.529  -0.968  53.581  1.00  0.00     0.109 A 
HETATM   25  C15 UNL     1      27.912   0.290  54.049  1.00  0.00     0.040 A 
HETATM   26  C16 UNL     1      29.267   0.593  54.123  1.00  0.00     0.003 A 
HETATM   27  C17 UNL     1      30.209  -0.337  53.739  1.00  0.00     0.003 A 
HETATM   28  C18 UNL     1      29.810  -1.584  53.275  1.00  0.00     0.039 A 
HETATM   29  C19 UNL     1      28.471  -1.898  53.197  1.00  0.00     0.099 A 
BRANCH  29  30
HETATM   30  O4  UNL     1      28.147  -3.142  52.732  1.00  0.00    -0.358 OA
HETATM   31  H17 UNL     1      28.776  -3.761  52.217  1.00  0.00     0.217 HD
ENDBRANCH  29  30
ENDBRANCH  23  24
ENDBRANCH   4  23
TORSDOF 8
ENDMDL
MODEL 3
REMARK VINA RESULT:      -8.7      3.182      6.360
REMARK  8 active torsions:
REMARK  status: ('A' for Active; 'I' for Inactive)
REMARK    1  A    between atoms: O1_2  and  C2_3 
REMARK    2  A    between atoms: C2_3  and  C3_5 
REMARK    3  A    between atoms: C8_10  and  S1_11 
REMARK    4  A    between atoms: S1_11  and  C9_12 
REMARK    5  A    between atoms: C9_12  and  C10_13 
REMARK    6  A    between atoms: C13_16  and  O3_17 
REMARK    7  A    between atoms: O3_17  and  C14_18 
REMARK    8  A    between atoms: C19_23  and  O4_24 
ROOT
HETATM    1  C10 UNL     1      23.948   2.394  50.437  1.00  0.00     0.036 C 
HETATM    2  C11 UNL     1      25.165   2.226  51.199  1.00  0.00    -0.017 C 
HETATM    3  C12 UNL     1      25.402   1.494  52.250  1.00  0.00     0.034 C 
HETATM    4  C13 UNL     1      24.841   0.529  53.198  1.00  0.00     0.075 C 
HETATM    5  C20 UNL     1      23.680  -0.107  53.349  1.00  0.00     0.038 C 
HETATM    6  C21 UNL     1      22.351  -0.225  52.704  1.00  0.00     0.020 C 
HETATM    7  C22 UNL     1      21.643   0.240  51.675  1.00  0.00     0.085 C 
HETATM    8  N1  UNL     1      21.824   1.178  50.579  1.00  0.00    -0.394 N 
HETATM    9  C23 UNL     1      21.084   1.119  49.375  1.00  0.00     0.148 C 
HETATM   10  C24 UNL     1      22.701   2.061  51.217  1.00  0.00     0.131 C 
ENDROOT
BRANCH   1  11
HETATM   11  C9  UNL     1      23.784   3.543  49.531  1.00  0.00     0.089 C 
BRANCH  11  12
HETATM   12  S1  UNL     1      24.358   5.108  50.296  1.00  0.00    -0.128 SA
BRANCH  12  13
HETATM   13  C8  UNL     1      25.849   5.572  49.410  1.00  0.00     0.016 A 
HETATM   14  C3  UNL     1      25.975   6.880  48.967  1.00  0.00     0.056 A 
HETATM   15  C4  UNL     1      27.158   7.178  48.285  1.00  0.00     0.019 A 
HETATM   16  C5  UNL     1      28.116   6.207  48.084  1.00  0.00     0.001 A 
HETATM   17  C6  UNL     1      27.961   4.913  48.537  1.00  0.00     0.001 A 
HETATM   18  C7  UNL     1      26.796   4.587  49.218  1.00  0.00     0.019 A 
BRANCH  14  19
HETATM   19  C2  UNL     1      24.934   7.873  49.205  1.00  0.00     0.294 C 
HETATM   20  O2  UNL     1      25.005   8.466  50.306  1.00  0.00    -0.259 OA
BRANCH  19  21
HETATM   21  O1  UNL     1      23.988   8.047  48.193  1.00  0.00    -0.322 OA
HETATM   22  C1  UNL     1      22.604   7.838  48.399  1.00  0.00     0.213 C 
ENDBRANCH  19  21
ENDBRANCH  14  19
ENDBRANCH  12  13
ENDBRANCH  11  12
ENDBRANCH   1  11
BRANCH   4  23
HETATM   23  O3  UNL     1      25.767   0.180  54.218  1.00  0.00    -0.308 OA
BRANCH  23  24
HETATM   24  C14 UNL     1      26.926  -0.495  53.866  1.00  0.00     0.109 A 
HETATM   25  C15 UNL     1      26.896  -1.642  53.071  1.00  0.00     0.040 A 
HETATM   26  C16 UNL     1      28.095  -2.270  52.755  1.00  0.00     0.003 A 
HETATM   27  C17 UNL     1      29.289  -1.764  53.221  1.00  0.00     0.003 A 
HETATM   28  C18 UNL     1      29.302  -0.622  54.012  1.00  0.00     0.039 A 
HETATM   29  C19 UNL     1      28.120   0.012  54.333  1.00  0.00     0.099 A 
BRANCH  29  30
HETATM   30  O4  UNL     1      28.203   1.131  55.114  1.00  0.00    -0.358 OA
HETATM   31  H17 UNL     1      27.966   2.078  54.813  1.00  0.00     0.217 HD
ENDBRANCH  29  30
ENDBRANCH  23  24
ENDBRANCH   4  23
TORSDOF 8
ENDMDL
MODEL 4
REMARK VINA RESULT:      -8.3      4.231      7.051
REMARK  8 active torsions:
REMARK  status: ('A' for Active; 'I' for Inactive)
REMARK    1  A    between atoms: O1_2  and  C2_3 
REMARK    2  A    between atoms: C2_3  and  C3_5 
REMARK    3  A    between atoms: C8_10  and  S1_11 
REMARK    4  A    between atoms: S1_11  and  C9_12 
REMARK    5  A    between atoms: C9_12  and  C10_13 
REMARK    6  A    between atoms: C13_16  and  O3_17 
REMARK    7  A    between atoms: O3_17  and  C14_18 
REMARK    8  A    between atoms: C19_23  and  O4_24 
ROOT
HETATM    1  C10 UNL     1      25.673   4.223  50.108  1.00  0.00     0.036 C 
HETATM    2  C11 UNL     1      26.745   4.708  49.269  1.00  0.00    -0.017 C 
HETATM    3  C12 UNL     1      26.994   5.912  48.839  1.00  0.00     0.034 C 
HETATM    4  C13 UNL     1      26.567   7.312  48.862  1.00  0.00     0.075 C 
HETATM    5  C20 UNL     1      25.614   8.017  49.470  1.00  0.00     0.038 C 
HETATM    6  C21 UNL     1      24.493   7.836  50.421  1.00  0.00     0.020 C 
HETATM    7  C22 UNL     1      23.866   6.901  51.134  1.00  0.00     0.085 C 
HETATM    8  N1  UNL     1      23.965   5.467  51.352  1.00  0.00    -0.394 N 
HETATM    9  C23 UNL     1      23.479   4.821  52.513  1.00  0.00     0.148 C 
HETATM   10  C24 UNL     1      24.451   5.107  50.091  1.00  0.00     0.131 C 
ENDROOT
BRANCH   1  11
HETATM   11  C9  UNL     1      25.356   2.786  50.163  1.00  0.00     0.089 C 
BRANCH  11  12
HETATM   12  S1  UNL     1      26.015   1.996  51.681  1.00  0.00    -0.128 SA
BRANCH  12  13
HETATM   13  C8  UNL     1      24.658   1.045  52.371  1.00  0.00     0.016 A 
HETATM   14  C3  UNL     1      24.910   0.230  53.465  1.00  0.00     0.056 A 
HETATM   15  C4  UNL     1      23.812  -0.483  53.955  1.00  0.00     0.019 A 
HETATM   16  C5  UNL     1      22.572  -0.358  53.364  1.00  0.00     0.001 A 
HETATM   17  C6  UNL     1      22.354   0.462  52.276  1.00  0.00     0.001 A 
HETATM   18  C7  UNL     1      23.425   1.183  51.766  1.00  0.00     0.019 A 
BRANCH  14  19
HETATM   19  C2  UNL     1      26.238   0.131  54.057  1.00  0.00     0.294 C 
HETATM   20  O2  UNL     1      26.523   1.034  54.879  1.00  0.00    -0.259 OA
BRANCH  19  21
HETATM   21  O1  UNL     1      27.032  -0.941  53.647  1.00  0.00    -0.322 OA
HETATM   22  C1  UNL     1      28.385  -0.785  53.262  1.00  0.00     0.213 C 
ENDBRANCH  19  21
ENDBRANCH  14  19
ENDBRANCH  12  13
ENDBRANCH  11  12
ENDBRANCH   1  11
BRANCH   4  23
HETATM   23  O3  UNL     1      27.370   8.131  48.023  1.00  0.00    -0.308 OA
BRANCH  23  24
HETATM   24  C14 UNL     1      28.749   7.982  48.065  1.00  0.00     0.109 A 
HETATM   25  C15 UNL     1      29.437   7.239  47.105  1.00  0.00     0.040 A 
HETATM   26  C16 UNL     1      30.819   7.130  47.206  1.00  0.00     0.003 A 
HETATM   27  C17 UNL     1      31.491   7.748  48.238  1.00  0.00     0.003 A 
HETATM   28  C18 UNL     1      30.791   8.483  49.186  1.00  0.00     0.039 A 
HETATM   29  C19 UNL     1      29.421   8.600  49.098  1.00  0.00     0.099 A 
BRANCH  29  30
HETATM   30  O4  UNL     1      28.793   9.338  50.063  1.00  0.00    -0.358 OA
HETATM   31  H17 UNL     1      28.749   9.094  51.055  1.00  0.00     0.217 HD
ENDBRANCH  29  30
ENDBRANCH  23  24
ENDBRANCH   4  23
TORSDOF 8
ENDMDL
MODEL 5
REMARK VINA RESULT:      -8.1      3.438      7.295
REMARK  8 active torsions:
REMARK  status: ('A' for Active; 'I' for Inactive)
REMARK    1  A    between atoms: O1_2  and  C2_3 
REMARK    2  A    between atoms: C2_3  and  C3_5 
REMARK    3  A    between atoms: C8_10  and  S1_11 
REMARK    4  A    between atoms: S1_11  and  C9_12 
REMARK    5  A    between atoms: C9_12  and  C10_13 
REMARK    6  A    between atoms: C13_16  and  O3_17 
REMARK    7  A    between atoms: O3_17  and  C14_18 
REMARK    8  A    between atoms: C19_23  and  O4_24 
ROOT
HETATM    1  C10 UNL     1      24.512   3.054  50.175  1.00  0.00     0.036 C 
HETATM    2  C11 UNL     1      25.710   3.004  50.982  1.00  0.00    -0.017 C 
HETATM    3  C12 UNL     1      25.957   2.343  52.077  1.00  0.00     0.034 C 
HETATM    4  C13 UNL     1      25.426   1.394  53.057  1.00  0.00     0.075 C 
HETATM    5  C20 UNL     1      24.302   0.694  53.207  1.00  0.00     0.038 C 
HETATM    6  C21 UNL     1      23.006   0.459  52.529  1.00  0.00     0.020 C 
HETATM    7  C22 UNL     1      22.305   0.824  51.456  1.00  0.00     0.085 C 
HETATM    8  N1  UNL     1      22.464   1.714  50.318  1.00  0.00    -0.394 N 
HETATM    9  C23 UNL     1      21.770   1.547  49.097  1.00  0.00     0.148 C 
HETATM   10  C24 UNL     1      23.262   2.683  50.934  1.00  0.00     0.131 C 
ENDROOT
BRANCH   1  11
HETATM   11  C9  UNL     1      24.307   4.142  49.204  1.00  0.00     0.089 C 
BRANCH  11  12
HETATM   12  S1  UNL     1      25.464   5.538  49.484  1.00  0.00    -0.128 SA
BRANCH  12  13
HETATM   13  C8  UNL     1      25.154   6.708  48.158  1.00  0.00     0.016 A 
HETATM   14  C3  UNL     1      26.208   7.488  47.705  1.00  0.00     0.056 A 
HETATM   15  C4  UNL     1      25.903   8.377  46.671  1.00  0.00     0.019 A 
HETATM   16  C5  UNL     1      24.623   8.447  46.159  1.00  0.00     0.001 A 
HETATM   17  C6  UNL     1      23.596   7.657  46.632  1.00  0.00     0.001 A 
HETATM   18  C7  UNL     1      23.869   6.764  47.659  1.00  0.00     0.019 A 
BRANCH  14  19
HETATM   19  C2  UNL     1      27.545   7.377  48.277  1.00  0.00     0.294 C 
HETATM   20  O2  UNL     1      28.265   6.481  47.778  1.00  0.00    -0.259 OA
BRANCH  19  21
HETATM   21  O1  UNL     1      27.866   8.268  49.302  1.00  0.00    -0.322 OA
HETATM   22  C1  UNL     1      28.981   9.137  49.236  1.00  0.00     0.213 C 
ENDBRANCH  19  21
ENDBRANCH  14  19
ENDBRANCH  12  13
ENDBRANCH  11  12
ENDBRANCH   1  11
BRANCH   4  23
HETATM   23  O3  UNL     1      26.337   1.158  54.122  1.00  0.00    -0.308 OA
BRANCH  23  24
HETATM   24  C14 UNL     1      27.486   0.425  53.868  1.00  0.00     0.109 A 
HETATM   25  C15 UNL     1      27.430  -0.886  53.390  1.00  0.00     0.040 A 
HETATM   26  C16 UNL     1      28.620  -1.565  53.156  1.00  0.00     0.003 A 
HETATM   27  C17 UNL     1      29.830  -0.950  53.395  1.00  0.00     0.003 A 
HETATM   28  C18 UNL     1      29.868   0.354  53.871  1.00  0.00     0.039 A 
HETATM   29  C19 UNL     1      28.696   1.040  54.107  1.00  0.00     0.099 A 
BRANCH  29  30
HETATM   30  O4  UNL     1      28.804   2.320  54.575  1.00  0.00    -0.358 OA
HETATM   31  H17 UNL     1      29.107   3.125  54.024  1.00  0.00     0.217 HD
ENDBRANCH  29  30
ENDBRANCH  23  24
ENDBRANCH   4  23
TORSDOF 8
ENDMDL
MODEL 6
REMARK VINA RESULT:      -8.1      3.180      6.422
REMARK  8 active torsions:
REMARK  status: ('A' for Active; 'I' for Inactive)
REMARK    1  A    between atoms: O1_2  and  C2_3 
REMARK    2  A    between atoms: C2_3  and  C3_5 
REMARK    3  A    between atoms: C8_10  and  S1_11 
REMARK    4  A    between atoms: S1_11  and  C9_12 
REMARK    5  A    between atoms: C9_12  and  C10_13 
REMARK    6  A    between atoms: C13_16  and  O3_17 
REMARK    7  A    between atoms: O3_17  and  C14_18 
REMARK    8  A    between atoms: C19_23  and  O4_24 
ROOT
HETATM    1  C10 UNL     1      23.686   2.180  51.704  1.00  0.00     0.036 C 
HETATM    2  C11 UNL     1      24.978   1.559  51.887  1.00  0.00    -0.017 C 
HETATM    3  C12 UNL     1      25.332   0.572  52.661  1.00  0.00     0.034 C 
HETATM    4  C13 UNL     1      24.873  -0.420  53.635  1.00  0.00     0.075 C 
HETATM    5  C20 UNL     1      23.705  -0.779  54.165  1.00  0.00     0.038 C 
HETATM    6  C21 UNL     1      22.267  -0.427  54.100  1.00  0.00     0.020 C 
HETATM    7  C22 UNL     1      21.421   0.414  53.505  1.00  0.00     0.085 C 
HETATM    8  N1  UNL     1      21.484   1.506  52.546  1.00  0.00    -0.394 N 
HETATM    9  C23 UNL     1      20.388   1.900  51.744  1.00  0.00     0.148 C 
HETATM   10  C24 UNL     1      22.755   1.986  52.876  1.00  0.00     0.131 C 
ENDROOT
BRANCH   1  11
HETATM   11  C9  UNL     1      23.575   3.510  51.082  1.00  0.00     0.089 C 
BRANCH  11  12
HETATM   12  S1  UNL     1      24.682   3.682  49.629  1.00  0.00    -0.128 SA
BRANCH  12  13
HETATM   13  C8  UNL     1      23.956   4.965  48.606  1.00  0.00     0.016 A 
HETATM   14  C3  UNL     1      24.627   6.174  48.485  1.00  0.00     0.056 A 
HETATM   15  C4  UNL     1      24.011   7.131  47.674  1.00  0.00     0.019 A 
HETATM   16  C5  UNL     1      22.812   6.856  47.050  1.00  0.00     0.001 A 
HETATM   17  C6  UNL     1      22.169   5.644  47.191  1.00  0.00     0.001 A 
HETATM   18  C7  UNL     1      22.757   4.673  47.990  1.00  0.00     0.019 A 
BRANCH  14  19
HETATM   19  C2  UNL     1      25.894   6.417  49.164  1.00  0.00     0.294 C 
HETATM   20  O2  UNL     1      25.796   6.813  50.349  1.00  0.00    -0.259 OA
BRANCH  19  21
HETATM   21  O1  UNL     1      27.058   6.186  48.427  1.00  0.00    -0.322 OA
HETATM   22  C1  UNL     1      27.835   5.014  48.578  1.00  0.00     0.213 C 
ENDBRANCH  19  21
ENDBRANCH  14  19
ENDBRANCH  12  13
ENDBRANCH  11  12
ENDBRANCH   1  11
BRANCH   4  23
HETATM   23  O3  UNL     1      25.944  -1.202  54.147  1.00  0.00    -0.308 OA
BRANCH  23  24
HETATM   24  C14 UNL     1      27.243  -0.743  53.987  1.00  0.00     0.109 A 
HETATM   25  C15 UNL     1      27.641   0.511  54.455  1.00  0.00     0.040 A 
HETATM   26  C16 UNL     1      28.959   0.910  54.262  1.00  0.00     0.003 A 
HETATM   27  C17 UNL     1      29.850   0.078  53.620  1.00  0.00     0.003 A 
HETATM   28  C18 UNL     1      29.437  -1.166  53.160  1.00  0.00     0.039 A 
HETATM   29  C19 UNL     1      28.134  -1.575  53.345  1.00  0.00     0.099 A 
BRANCH  29  30
HETATM   30  O4  UNL     1      27.793  -2.811  52.869  1.00  0.00    -0.358 OA
HETATM   31  H17 UNL     1      27.568  -3.623  53.447  1.00  0.00     0.217 HD
ENDBRANCH  29  30
ENDBRANCH  23  24
ENDBRANCH   4  23
TORSDOF 8
ENDMDL
MODEL 7
REMARK VINA RESULT:      -8.0      2.644      5.685
REMARK  8 active torsions:
REMARK  status: ('A' for Active; 'I' for Inactive)
REMARK    1  A    between atoms: O1_2  and  C2_3 
REMARK    2  A    between atoms: C2_3  and  C3_5 
REMARK    3  A    between atoms: C8_10  and  S1_11 
REMARK    4  A    between atoms: S1_11  and  C9_12 
REMARK    5  A    between atoms: C9_12  and  C10_13 
REMARK    6  A    between atoms: C13_16  and  O3_17 
REMARK    7  A    between atoms: O3_17  and  C14_18 
REMARK    8  A    between atoms: C19_23  and  O4_24 
ROOT
HETATM    1  C10 UNL     1      22.089   1.635  51.635  1.00  0.00     0.036 C 
HETATM    2  C11 UNL     1      23.441   1.341  52.054  1.00  0.00    -0.017 C 
HETATM    3  C12 UNL     1      23.875   0.529  52.976  1.00  0.00     0.034 C 
HETATM    4  C13 UNL     1      23.496  -0.457  53.990  1.00  0.00     0.075 C 
HETATM    5  C20 UNL     1      22.364  -1.025  54.402  1.00  0.00     0.038 C 
HETATM    6  C21 UNL     1      20.911  -1.015  54.112  1.00  0.00     0.020 C 
HETATM    7  C22 UNL     1      20.006  -0.441  53.320  1.00  0.00     0.085 C 
HETATM    8  N1  UNL     1      19.980   0.552  52.258  1.00  0.00    -0.394 N 
HETATM    9  C23 UNL     1      18.959   0.618  51.280  1.00  0.00     0.148 C 
HETATM   10  C24 UNL     1      21.055   1.334  52.691  1.00  0.00     0.131 C 
ENDROOT
BRANCH   1  11
HETATM   11  C9  UNL     1      21.793   2.847  50.854  1.00  0.00     0.089 C 
BRANCH  11  12
HETATM   12  S1  UNL     1      22.482   2.755  49.156  1.00  0.00    -0.128 SA
BRANCH  12  13
HETATM   13  C8  UNL     1      23.954   3.782  49.165  1.00  0.00     0.016 A 
HETATM   14  C3  UNL     1      23.828   5.122  48.829  1.00  0.00     0.056 A 
HETATM   15  C4  UNL     1      25.010   5.868  48.856  1.00  0.00     0.019 A 
HETATM   16  C5  UNL     1      26.207   5.275  49.200  1.00  0.00     0.001 A 
HETATM   17  C6  UNL     1      26.300   3.939  49.529  1.00  0.00     0.001 A 
HETATM   18  C7  UNL     1      25.142   3.172  49.511  1.00  0.00     0.019 A 
BRANCH  14  19
HETATM   19  C2  UNL     1      22.539   5.705  48.474  1.00  0.00     0.294 C 
HETATM   20  O2  UNL     1      22.292   5.741  47.246  1.00  0.00    -0.259 OA
BRANCH  19  21
HETATM   21  O1  UNL     1      21.738   6.150  49.527  1.00  0.00    -0.322 OA
HETATM   22  C1  UNL     1      21.747   7.492  49.976  1.00  0.00     0.213 C 
ENDBRANCH  19  21
ENDBRANCH  14  19
ENDBRANCH  12  13
ENDBRANCH  11  12
ENDBRANCH   1  11
BRANCH   4  23
HETATM   23  O3  UNL     1      24.617  -0.929  54.723  1.00  0.00    -0.308 OA
BRANCH  23  24
HETATM   24  C14 UNL     1      25.877  -0.842  54.149  1.00  0.00     0.109 A 
HETATM   25  C15 UNL     1      26.265  -1.680  53.102  1.00  0.00     0.040 A 
HETATM   26  C16 UNL     1      27.542  -1.540  52.570  1.00  0.00     0.003 A 
HETATM   27  C17 UNL     1      28.404  -0.590  53.074  1.00  0.00     0.003 A 
HETATM   28  C18 UNL     1      28.002   0.235  54.117  1.00  0.00     0.039 A 
HETATM   29  C19 UNL     1      26.739   0.108  54.652  1.00  0.00     0.099 A 
BRANCH  29  30
HETATM   30  O4  UNL     1      26.407   0.951  55.676  1.00  0.00    -0.358 OA
HETATM   31  H17 UNL     1      26.070   1.910  55.565  1.00  0.00     0.217 HD
ENDBRANCH  29  30
ENDBRANCH  23  24
ENDBRANCH   4  23
TORSDOF 8
ENDMDL
MODEL 8
REMARK VINA RESULT:      -7.8      2.209      3.600
REMARK  8 active torsions:
REMARK  status: ('A' for Active; 'I' for Inactive)
REMARK    1  A    between atoms: O1_2  and  C2_3 
REMARK    2  A    between atoms: C2_3  and  C3_5 
REMARK    3  A    between atoms: C8_10  and  S1_11 
REMARK    4  A    between atoms: S1_11  and  C9_12 
REMARK    5  A    between atoms: C9_12  and  C10_13 
REMARK    6  A    between atoms: C13_16  and  O3_17 
REMARK    7  A    between atoms: O3_17  and  C14_18 
REMARK    8  A    between atoms: C19_23  and  O4_24 
ROOT
HETATM    1  C10 UNL     1      23.377   4.584  51.946  1.00  0.00     0.036 C 
HETATM    2  C11 UNL     1      23.942   3.341  52.422  1.00  0.00    -0.017 C 
HETATM    3  C12 UNL     1      24.997   2.691  52.020  1.00  0.00     0.034 C 
HETATM    4  C13 UNL     1      26.130   2.688  51.093  1.00  0.00     0.075 C 
HETATM    5  C20 UNL     1      26.620   3.514  50.170  1.00  0.00     0.038 C 
HETATM    6  C21 UNL     1      26.345   4.838  49.564  1.00  0.00     0.020 C 
HETATM    7  C22 UNL     1      25.485   5.855  49.615  1.00  0.00     0.085 C 
HETATM    8  N1  UNL     1      24.279   6.208  50.346  1.00  0.00    -0.394 N 
HETATM    9  C23 UNL     1      23.849   7.542  50.539  1.00  0.00     0.148 C 
HETATM   10  C24 UNL     1      23.772   4.918  50.529  1.00  0.00     0.131 C 
ENDROOT
BRANCH   1  11
HETATM   11  C9  UNL     1      21.988   4.948  52.269  1.00  0.00     0.089 C 
BRANCH  11  12
HETATM   12  S1  UNL     1      20.885   3.483  52.301  1.00  0.00    -0.128 SA
BRANCH  12  13
HETATM   13  C8  UNL     1      20.981   2.758  50.662  1.00  0.00     0.016 A 
HETATM   14  C3  UNL     1      21.177   1.389  50.555  1.00  0.00     0.056 A 
HETATM   15  C4  UNL     1      21.242   0.886  49.252  1.00  0.00     0.019 A 
HETATM   16  C5  UNL     1      21.115   1.728  48.167  1.00  0.00     0.001 A 
HETATM   17  C6  UNL     1      20.920   3.086  48.307  1.00  0.00     0.001 A 
HETATM   18  C7  UNL     1      20.852   3.615  49.589  1.00  0.00     0.019 A 
BRANCH  14  19
HETATM   19  C2  UNL     1      21.305   0.539  51.732  1.00  0.00     0.294 C 
HETATM   20  O2  UNL     1      20.223   0.134  52.217  1.00  0.00    -0.259 OA
BRANCH  19  21
HETATM   21  O1  UNL     1      22.601   0.276  52.181  1.00  0.00    -0.322 OA
HETATM   22  C1  UNL     1      22.866  -0.326  53.433  1.00  0.00     0.213 C 
ENDBRANCH  19  21
ENDBRANCH  14  19
ENDBRANCH  12  13
ENDBRANCH  11  12
ENDBRANCH   1  11
BRANCH   4  23
HETATM   23  O3  UNL     1      26.908   1.503  51.203  1.00  0.00    -0.308 OA
BRANCH  23  24
HETATM   24  C14 UNL     1      27.544   1.229  52.405  1.00  0.00     0.109 A 
HETATM   25  C15 UNL     1      28.347   2.176  53.043  1.00  0.00     0.040 A 
HETATM   26  C16 UNL     1      28.955   1.836  54.246  1.00  0.00     0.003 A 
HETATM   27  C17 UNL     1      28.764   0.586  54.793  1.00  0.00     0.003 A 
HETATM   28  C18 UNL     1      27.962  -0.345  54.144  1.00  0.00     0.039 A 
HETATM   29  C19 UNL     1      27.353  -0.022  52.951  1.00  0.00     0.099 A 
BRANCH  29  30
HETATM   30  O4  UNL     1      26.577  -0.983  52.365  1.00  0.00    -0.358 OA
HETATM   31  H17 UNL     1      25.555  -0.986  52.348  1.00  0.00     0.217 HD
ENDBRANCH  29  30
ENDBRANCH  23  24
ENDBRANCH   4  23
TORSDOF 8
ENDMDL
MODEL 9
REMARK VINA RESULT:      -7.8      2.373      3.922
REMARK  8 active torsions:
REMARK  status: ('A' for Active; 'I' for Inactive)
REMARK    1  A    between atoms: O1_2  and  C2_3 
REMARK    2  A    between atoms: C2_3  and  C3_5 
REMARK    3  A    between atoms: C8_10  and  S1_11 
REMARK    4  A    between atoms: S1_11  and  C9_12 
REMARK    5  A    between atoms: C9_12  and  C10_13 
REMARK    6  A    between atoms: C13_16  and  O3_17 
REMARK    7  A    between atoms: O3_17  and  C14_18 
REMARK    8  A    between atoms: C19_23  and  O4_24 
ROOT
HETATM    1  C10 UNL     1      22.901   2.646  51.434  1.00  0.00     0.036 C 
HETATM    2  C11 UNL     1      23.370   2.263  52.747  1.00  0.00    -0.017 C 
HETATM    3  C12 UNL     1      24.585   2.116  53.194  1.00  0.00     0.034 C 
HETATM    4  C13 UNL     1      26.009   2.214  52.868  1.00  0.00     0.075 C 
HETATM    5  C20 UNL     1      26.731   2.595  51.815  1.00  0.00     0.038 C 
HETATM    6  C21 UNL     1      26.554   3.115  50.439  1.00  0.00     0.020 C 
HETATM    7  C22 UNL     1      25.609   3.450  49.560  1.00  0.00     0.085 C 
HETATM    8  N1  UNL     1      24.157   3.471  49.497  1.00  0.00    -0.394 N 
HETATM    9  C23 UNL     1      23.429   4.314  48.625  1.00  0.00     0.148 C 
HETATM   10  C24 UNL     1      23.905   2.384  50.339  1.00  0.00     0.131 C 
ENDROOT
BRANCH   1  11
HETATM   11  C9  UNL     1      21.510   2.385  51.029  1.00  0.00     0.089 C 
BRANCH  11  12
HETATM   12  S1  UNL     1      20.354   3.643  51.697  1.00  0.00    -0.128 SA
BRANCH  12  13
HETATM   13  C8  UNL     1      20.691   5.153  50.787  1.00  0.00     0.016 A 
HETATM   14  C3  UNL     1      20.021   5.368  49.591  1.00  0.00     0.056 A 
HETATM   15  C4  UNL     1      20.327   6.562  48.931  1.00  0.00     0.019 A 
HETATM   16  C5  UNL     1      21.241   7.446  49.466  1.00  0.00     0.001 A 
HETATM   17  C6  UNL     1      21.890   7.203  50.658  1.00  0.00     0.001 A 
HETATM   18  C7  UNL     1      21.608   6.025  51.337  1.00  0.00     0.019 A 
BRANCH  14  19
HETATM   19  C2  UNL     1      19.062   4.403  49.066  1.00  0.00     0.294 C 
HETATM   20  O2  UNL     1      19.540   3.549  48.284  1.00  0.00    -0.259 OA
BRANCH  19  21
HETATM   21  O1  UNL     1      17.738   4.540  49.487  1.00  0.00    -0.322 OA
HETATM   22  C1  UNL     1      16.669   4.747  48.583  1.00  0.00     0.213 C 
ENDBRANCH  19  21
ENDBRANCH  14  19
ENDBRANCH  12  13
ENDBRANCH  11  12
ENDBRANCH   1  11
BRANCH   4  23
HETATM   23  O3  UNL     1      26.835   1.797  53.947  1.00  0.00    -0.308 OA
BRANCH  23  24
HETATM   24  C14 UNL     1      27.723   0.751  53.744  1.00  0.00     0.109 A 
HETATM   25  C15 UNL     1      27.293  -0.500  53.298  1.00  0.00     0.040 A 
HETATM   26  C16 UNL     1      28.235  -1.506  53.115  1.00  0.00     0.003 A 
HETATM   27  C17 UNL     1      29.567  -1.265  53.372  1.00  0.00     0.003 A 
HETATM   28  C18 UNL     1      29.978  -0.015  53.817  1.00  0.00     0.039 A 
HETATM   29  C19 UNL     1      29.055   0.992  54.002  1.00  0.00     0.099 A 
BRANCH  29  30
HETATM   30  O4  UNL     1      29.525   2.198  54.441  1.00  0.00    -0.358 OA
HETATM   31  H17 UNL     1      30.432   2.601  54.197  1.00  0.00     0.217 HD
ENDBRANCH  29  30
ENDBRANCH  23  24
ENDBRANCH   4  23
TORSDOF 8
ENDMDL
