MODEL 1
REMARK VINA RESULT:      -9.5      0.000      0.000
REMARK  4 active torsions:
REMARK  status: ('A' for Active; 'I' for Inactive)
REMARK    1  A    between atoms: C5_7  and  N2_8 
REMARK       I    between atoms: N2_8  and  C6_9 
REMARK       I    between atoms: C6_9  and  N3_11 
REMARK    2  A    between atoms: N3_11  and  C7_12 
REMARK    3  A    between atoms: C12_19  and  N6_20 
REMARK    4  A    between atoms: N6_20  and  C13_21 
ROOT
HETATM    1  C7  UNL     1      25.315   3.617  50.115  1.00  0.00     0.037 A 
HETATM    2  C8  UNL     1      24.270   3.520  49.224  1.00  0.00     0.032 A 
HETATM    3  C9  UNL     1      23.248   2.663  49.518  1.00  0.00     0.035 A 
HETATM    4  C10 UNL     1      23.285   1.926  50.680  1.00  0.00     0.072 A 
HETATM    5  N4  UNL     1      22.234   1.087  50.920  1.00  0.00    -0.241 NA
HETATM    6  C11 UNL     1      22.215   0.342  52.039  1.00  0.00     0.236 A 
HETATM    7  N5  UNL     1      23.220   0.424  52.912  1.00  0.00    -0.224 NA
HETATM    8  C12 UNL     1      24.276   1.220  52.746  1.00  0.00     0.142 A 
HETATM    9  C19 UNL     1      24.297   1.973  51.614  1.00  0.00     0.041 A 
HETATM   10  C20 UNL     1      25.286   2.848  51.260  1.00  0.00     0.047 A 
ENDROOT
BRANCH   1  11
HETATM   11  N3  UNL     1      26.367   4.515  49.789  1.00  0.00    -0.309 N 
HETATM   12  C6  UNL     1      26.160   5.887  49.437  1.00  0.00     0.322 C 
HETATM   13  N2  UNL     1      27.257   6.736  49.120  1.00  0.00    -0.311 N 
HETATM   14  O2  UNL     1      24.969   6.279  49.428  1.00  0.00    -0.247 OA
HETATM   15  H11 UNL     1      28.228   6.357  49.144  1.00  0.00     0.166 HD
HETATM   16  H12 UNL     1      27.330   4.106  49.820  1.00  0.00     0.170 HD
BRANCH  13  17
HETATM   17  C5  UNL     1      26.967   8.115  48.773  1.00  0.00     0.349 C 
HETATM   18  N1  UNL     1      27.942   8.640  47.854  1.00  0.00     0.111 N 
HETATM   19  C1  UNL     1      28.234   7.614  46.866  1.00  0.00     0.312 C 
HETATM   20  C2  UNL     1      29.144   8.938  48.631  1.00  0.00     0.300 C 
HETATM   21  C3  UNL     1      28.827  10.139  49.498  1.00  0.00     0.198 C 
HETATM   22  O1  UNL     1      27.493  10.173  49.899  1.00  0.00    -0.386 OA
HETATM   23  C4  UNL     1      27.009   8.883  50.100  1.00  0.00     0.225 C 
ENDBRANCH  13  17
ENDBRANCH   1  11
BRANCH   8  24
HETATM   24  N6  UNL     1      25.338   1.315  53.657  1.00  0.00    -0.340 N 
HETATM   25  H16 UNL     1      25.244   1.848  54.541  1.00  0.00     0.167 HD
BRANCH  24  26
HETATM   26  C13 UNL     1      26.634   0.782  53.614  1.00  0.00     0.035 A 
HETATM   27  C14 UNL     1      27.822   1.486  53.846  1.00  0.00     0.032 A 
HETATM   28  C15 UNL     1      29.071   0.921  53.797  1.00  0.00     0.046 A 
HETATM   29  C16 UNL     1      29.232  -0.415  53.505  1.00  0.00     0.138 A 
HETATM   30  F1  UNL     1      30.503  -0.856  53.484  1.00  0.00    -0.204 F 
HETATM   31  C17 UNL     1      28.102  -1.138  53.272  1.00  0.00     0.074 A 
HETATM   32 CL1  UNL     1      28.362  -2.836  52.906  1.00  0.00    -0.081 Cl
HETATM   33  C18 UNL     1      26.854  -0.548  53.329  1.00  0.00     0.056 A 
ENDBRANCH  24  26
ENDBRANCH   8  24
TORSDOF 4
ENDMDL
MODEL 2
REMARK VINA RESULT:      -9.4      3.465      4.362
REMARK  4 active torsions:
REMARK  status: ('A' for Active; 'I' for Inactive)
REMARK    1  A    between atoms: C5_7  and  N2_8 
REMARK       I    between atoms: N2_8  and  C6_9 
REMARK       I    between atoms: C6_9  and  N3_11 
REMARK    2  A    between atoms: N3_11  and  C7_12 
REMARK    3  A    between atoms: C12_19  and  N6_20 
REMARK    4  A    between atoms: N6_20  and  C13_21 
ROOT
HETATM    1  C7  UNL     1      21.501   2.361  52.005  1.00  0.00     0.037 A 
HETATM    2  C8  UNL     1      20.349   1.997  52.666  1.00  0.00     0.032 A 
HETATM    3  C9  UNL     1      20.422   0.988  53.584  1.00  0.00     0.035 A 
HETATM    4  C10 UNL     1      21.626   0.368  53.826  1.00  0.00     0.072 A 
HETATM    5  N4  UNL     1      21.637  -0.633  54.755  1.00  0.00    -0.241 NA
HETATM    6  C11 UNL     1      22.786  -1.275  55.033  1.00  0.00     0.236 A 
HETATM    7  N5  UNL     1      23.910  -0.934  54.402  1.00  0.00    -0.224 NA
HETATM    8  C12 UNL     1      23.976   0.031  53.484  1.00  0.00     0.142 A 
HETATM    9  C19 UNL     1      22.816   0.680  53.203  1.00  0.00     0.041 A 
HETATM   10  C20 UNL     1      22.673   1.696  52.297  1.00  0.00     0.047 A 
ENDROOT
BRANCH   1  11
HETATM   11  N3  UNL     1      21.401   3.412  51.054  1.00  0.00    -0.309 N 
HETATM   12  C6  UNL     1      21.741   4.774  51.337  1.00  0.00     0.322 C 
HETATM   13  N2  UNL     1      21.618   5.782  50.340  1.00  0.00    -0.311 N 
HETATM   14  O2  UNL     1      22.145   5.010  52.500  1.00  0.00    -0.247 OA
HETATM   15  H11 UNL     1      21.277   5.529  49.388  1.00  0.00     0.166 HD
HETATM   16  H12 UNL     1      21.054   3.128  50.109  1.00  0.00     0.170 HD
BRANCH  13  17
HETATM   17  C5  UNL     1      21.982   7.139  50.701  1.00  0.00     0.349 C 
HETATM   18  N1  UNL     1      21.322   8.101  49.859  1.00  0.00     0.111 N 
HETATM   19  C1  UNL     1      19.947   7.668  49.666  1.00  0.00     0.312 C 
HETATM   20  C2  UNL     1      22.027   8.101  48.578  1.00  0.00     0.300 C 
HETATM   21  C3  UNL     1      23.380   8.741  48.815  1.00  0.00     0.198 C 
HETATM   22  O1  UNL     1      23.878   8.485  50.090  1.00  0.00    -0.386 OA
HETATM   23  C4  UNL     1      23.502   7.213  50.515  1.00  0.00     0.225 C 
ENDBRANCH  13  17
ENDBRANCH   1  11
BRANCH   8  24
HETATM   24  N6  UNL     1      25.152   0.397  52.815  1.00  0.00    -0.340 N 
HETATM   25  H16 UNL     1      25.125   0.976  51.955  1.00  0.00     0.167 HD
BRANCH  24  26
HETATM   26  C13 UNL     1      26.495   0.113  53.097  1.00  0.00     0.035 A 
HETATM   27  C14 UNL     1      27.145  -1.107  52.869  1.00  0.00     0.032 A 
HETATM   28  C15 UNL     1      28.466  -1.339  53.159  1.00  0.00     0.046 A 
HETATM   29  C16 UNL     1      29.253  -0.353  53.710  1.00  0.00     0.138 A 
HETATM   30  F1  UNL     1      30.531  -0.697  53.952  1.00  0.00    -0.204 F 
HETATM   31  C17 UNL     1      28.661   0.850  53.950  1.00  0.00     0.074 A 
HETATM   32 CL1  UNL     1      29.708   2.072  54.652  1.00  0.00    -0.081 Cl
HETATM   33  C18 UNL     1      27.329   1.061  53.648  1.00  0.00     0.056 A 
ENDBRANCH  24  26
ENDBRANCH   8  24
TORSDOF 4
ENDMDL
MODEL 3
REMARK VINA RESULT:      -9.4      4.179      5.349
REMARK  4 active torsions:
REMARK  status: ('A' for Active; 'I' for Inactive)
REMARK    1  A    between atoms: C5_7  and  N2_8 
REMARK       I    between atoms: N2_8  and  C6_9 
REMARK       I    between atoms: C6_9  and  N3_11 
REMARK    2  A    between atoms: N3_11  and  C7_12 
REMARK    3  A    between atoms: C12_19  and  N6_20 
REMARK    4  A    between atoms: N6_20  and  C13_21 
ROOT
HETATM    1  C7  UNL     1      28.104   5.776  48.250  1.00  0.00     0.037 A 
HETATM    2  C8  UNL     1      27.573   7.046  48.255  1.00  0.00     0.032 A 
HETATM    3  C9  UNL     1      26.430   7.266  48.971  1.00  0.00     0.035 A 
HETATM    4  C10 UNL     1      25.843   6.229  49.660  1.00  0.00     0.072 A 
HETATM    5  N4  UNL     1      24.703   6.510  50.357  1.00  0.00    -0.241 NA
HETATM    6  C11 UNL     1      24.086   5.536  51.049  1.00  0.00     0.236 A 
HETATM    7  N5  UNL     1      24.587   4.300  51.055  1.00  0.00    -0.224 NA
HETATM    8  C12 UNL     1      25.694   3.953  50.399  1.00  0.00     0.142 A 
HETATM    9  C19 UNL     1      26.319   4.936  49.698  1.00  0.00     0.041 A 
HETATM   10  C20 UNL     1      27.463   4.784  48.964  1.00  0.00     0.047 A 
ENDROOT
BRANCH   1  11
HETATM   11  N3  UNL     1      29.293   5.570  47.499  1.00  0.00    -0.309 N 
HETATM   12  C6  UNL     1      30.581   5.365  48.091  1.00  0.00     0.322 C 
HETATM   13  N2  UNL     1      31.734   5.165  47.283  1.00  0.00    -0.311 N 
HETATM   14  O2  UNL     1      30.618   5.374  49.344  1.00  0.00    -0.247 OA
HETATM   15  H11 UNL     1      31.645   5.166  46.244  1.00  0.00     0.166 HD
HETATM   16  H12 UNL     1      29.172   5.578  46.460  1.00  0.00     0.170 HD
BRANCH  13  17
HETATM   17  C5  UNL     1      33.004   4.964  47.955  1.00  0.00     0.349 C 
HETATM   18  N1  UNL     1      34.080   5.606  47.246  1.00  0.00     0.111 N 
HETATM   19  C1  UNL     1      33.614   6.907  46.795  1.00  0.00     0.312 C 
HETATM   20  C2  UNL     1      34.394   4.762  46.093  1.00  0.00     0.300 C 
HETATM   21  C3  UNL     1      35.051   3.507  46.627  1.00  0.00     0.198 C 
HETATM   22  O1  UNL     1      34.563   3.135  47.877  1.00  0.00    -0.386 OA
HETATM   23  C4  UNL     1      33.209   3.445  47.985  1.00  0.00     0.225 C 
ENDBRANCH  13  17
ENDBRANCH   1  11
BRANCH   8  24
HETATM   24  N6  UNL     1      26.230   2.657  50.398  1.00  0.00    -0.340 N 
HETATM   25  H16 UNL     1      26.326   2.114  49.519  1.00  0.00     0.167 HD
BRANCH  24  26
HETATM   26  C13 UNL     1      26.713   1.863  51.447  1.00  0.00     0.035 A 
HETATM   27  C14 UNL     1      26.311   0.555  51.742  1.00  0.00     0.032 A 
HETATM   28  C15 UNL     1      26.815  -0.188  52.781  1.00  0.00     0.046 A 
HETATM   29  C16 UNL     1      27.777   0.330  53.618  1.00  0.00     0.138 A 
HETATM   30  F1  UNL     1      28.194  -0.489  54.601  1.00  0.00    -0.204 F 
HETATM   31  C17 UNL     1      28.197   1.600  53.367  1.00  0.00     0.074 A 
HETATM   32 CL1  UNL     1      29.425   2.213  54.464  1.00  0.00    -0.081 Cl
HETATM   33  C18 UNL     1      27.676   2.329  52.315  1.00  0.00     0.056 A 
ENDBRANCH  24  26
ENDBRANCH   8  24
TORSDOF 4
ENDMDL
MODEL 4
REMARK VINA RESULT:      -9.3      4.338      8.122
REMARK  4 active torsions:
REMARK  status: ('A' for Active; 'I' for Inactive)
REMARK    1  A    between atoms: C5_7  and  N2_8 
REMARK       I    between atoms: N2_8  and  C6_9 
REMARK       I    between atoms: C6_9  and  N3_11 
REMARK    2  A    between atoms: N3_11  and  C7_12 
REMARK    3  A    between atoms: C12_19  and  N6_20 
REMARK    4  A    between atoms: N6_20  and  C13_21 
ROOT
HETATM    1  C7  UNL     1      23.368   4.950  52.205  1.00  0.00     0.037 A 
HETATM    2  C8  UNL     1      22.060   4.615  51.935  1.00  0.00     0.032 A 
HETATM    3  C9  UNL     1      21.337   5.438  51.119  1.00  0.00     0.035 A 
HETATM    4  C10 UNL     1      21.923   6.566  50.592  1.00  0.00     0.072 A 
HETATM    5  N4  UNL     1      21.151   7.350  49.782  1.00  0.00    -0.241 NA
HETATM    6  C11 UNL     1      21.670   8.464  49.238  1.00  0.00     0.236 A 
HETATM    7  N5  UNL     1      22.936   8.803  49.488  1.00  0.00    -0.224 NA
HETATM    8  C12 UNL     1      23.748   8.088  50.267  1.00  0.00     0.142 A 
HETATM    9  C19 UNL     1      23.225   6.961  50.818  1.00  0.00     0.041 A 
HETATM   10  C20 UNL     1      23.890   6.096  51.642  1.00  0.00     0.047 A 
ENDROOT
BRANCH   1  11
HETATM   11  N3  UNL     1      24.100   4.080  53.057  1.00  0.00    -0.309 N 
HETATM   12  C6  UNL     1      25.060   3.128  52.584  1.00  0.00     0.322 C 
HETATM   13  N2  UNL     1      25.761   2.284  53.490  1.00  0.00    -0.311 N 
HETATM   14  O2  UNL     1      25.235   3.092  51.344  1.00  0.00    -0.247 OA
HETATM   15  H11 UNL     1      25.577   2.356  54.514  1.00  0.00     0.166 HD
HETATM   16  H12 UNL     1      23.893   4.175  54.078  1.00  0.00     0.170 HD
BRANCH  13  17
HETATM   17  C5  UNL     1      26.719   1.345  52.936  1.00  0.00     0.349 C 
HETATM   18  N1  UNL     1      26.607   0.053  53.560  1.00  0.00     0.111 N 
HETATM   19  C1  UNL     1      25.195  -0.252  53.725  1.00  0.00     0.312 C 
HETATM   20  C2  UNL     1      27.250   0.155  54.870  1.00  0.00     0.300 C 
HETATM   21  C3  UNL     1      28.740   0.278  54.626  1.00  0.00     0.198 C 
HETATM   22  O1  UNL     1      29.036   0.960  53.448  1.00  0.00    -0.386 OA
HETATM   23  C4  UNL     1      28.095   1.960  53.213  1.00  0.00     0.225 C 
ENDBRANCH  13  17
ENDBRANCH   1  11
BRANCH   8  24
HETATM   24  N6  UNL     1      25.079   8.434  50.538  1.00  0.00    -0.340 N 
HETATM   25  H16 UNL     1      25.335   8.975  51.385  1.00  0.00     0.167 HD
BRANCH  24  26
HETATM   26  C13 UNL     1      26.258   8.172  49.826  1.00  0.00     0.035 A 
HETATM   27  C14 UNL     1      26.490   7.071  48.992  1.00  0.00     0.032 A 
HETATM   28  C15 UNL     1      27.662   6.858  48.311  1.00  0.00     0.046 A 
HETATM   29  C16 UNL     1      28.711   7.743  48.413  1.00  0.00     0.138 A 
HETATM   30  F1  UNL     1      29.809   7.429  47.702  1.00  0.00    -0.204 F 
HETATM   31  C17 UNL     1      28.529   8.828  49.215  1.00  0.00     0.074 A 
HETATM   32 CL1  UNL     1      29.897   9.926  49.311  1.00  0.00    -0.081 Cl
HETATM   33  C18 UNL     1      27.339   9.024  49.891  1.00  0.00     0.056 A 
ENDBRANCH  24  26
ENDBRANCH   8  24
TORSDOF 4
ENDMDL
MODEL 5
REMARK VINA RESULT:      -9.3      4.019      7.274
REMARK  4 active torsions:
REMARK  status: ('A' for Active; 'I' for Inactive)
REMARK    1  A    between atoms: C5_7  and  N2_8 
REMARK       I    between atoms: N2_8  and  C6_9 
REMARK       I    between atoms: C6_9  and  N3_11 
REMARK    2  A    between atoms: N3_11  and  C7_12 
REMARK    3  A    between atoms: C12_19  and  N6_20 
REMARK    4  A    between atoms: N6_20  and  C13_21 
ROOT
HETATM    1  C7  UNL     1      25.675   3.825  50.141  1.00  0.00     0.037 A 
HETATM    2  C8  UNL     1      25.779   5.130  49.714  1.00  0.00     0.032 A 
HETATM    3  C9  UNL     1      24.722   5.677  49.045  1.00  0.00     0.035 A 
HETATM    4  C10 UNL     1      23.593   4.924  48.815  1.00  0.00     0.072 A 
HETATM    5  N4  UNL     1      22.569   5.525  48.141  1.00  0.00    -0.241 NA
HETATM    6  C11 UNL     1      21.441   4.839  47.888  1.00  0.00     0.236 A 
HETATM    7  N5  UNL     1      21.323   3.574  48.295  1.00  0.00    -0.224 NA
HETATM    8  C12 UNL     1      22.280   2.923  48.957  1.00  0.00     0.142 A 
HETATM    9  C19 UNL     1      23.421   3.615  49.213  1.00  0.00     0.041 A 
HETATM   10  C20 UNL     1      24.513   3.129  49.876  1.00  0.00     0.047 A 
ENDROOT
BRANCH   1  11
HETATM   11  N3  UNL     1      26.787   3.277  50.835  1.00  0.00    -0.309 N 
HETATM   12  C6  UNL     1      26.675   2.265  51.843  1.00  0.00     0.322 C 
HETATM   13  N2  UNL     1      27.828   1.757  52.502  1.00  0.00    -0.311 N 
HETATM   14  O2  UNL     1      25.513   1.869  52.098  1.00  0.00    -0.247 OA
HETATM   15  H11 UNL     1      28.772   2.122  52.251  1.00  0.00     0.166 HD
HETATM   16  H12 UNL     1      27.720   3.664  50.562  1.00  0.00     0.170 HD
BRANCH  13  17
HETATM   17  C5  UNL     1      27.634   0.733  53.512  1.00  0.00     0.349 C 
HETATM   18  N1  UNL     1      28.797   0.595  54.349  1.00  0.00     0.111 N 
HETATM   19  C1  UNL     1      29.303   1.925  54.648  1.00  0.00     0.312 C 
HETATM   20  C2  UNL     1      29.790  -0.152  53.578  1.00  0.00     0.300 C 
HETATM   21  C3  UNL     1      29.289  -1.577  53.470  1.00  0.00     0.198 C 
HETATM   22  O1  UNL     1      27.899  -1.654  53.417  1.00  0.00    -0.386 OA
HETATM   23  C4  UNL     1      27.375  -0.560  52.732  1.00  0.00     0.225 C 
ENDBRANCH  13  17
ENDBRANCH   1  11
BRANCH   8  24
HETATM   24  N6  UNL     1      22.168   1.594  49.389  1.00  0.00    -0.340 N 
HETATM   25  H16 UNL     1      22.634   0.820  48.880  1.00  0.00     0.167 HD
BRANCH  24  26
HETATM   26  C13 UNL     1      21.485   1.039  50.480  1.00  0.00     0.035 A 
HETATM   27  C14 UNL     1      20.106   0.811  50.560  1.00  0.00     0.032 A 
HETATM   28  C15 UNL     1      19.480   0.260  51.651  1.00  0.00     0.046 A 
HETATM   29  C16 UNL     1      20.198  -0.111  52.765  1.00  0.00     0.138 A 
HETATM   30  F1  UNL     1      19.477  -0.638  53.771  1.00  0.00    -0.204 F 
HETATM   31  C17 UNL     1      21.544   0.093  52.730  1.00  0.00     0.074 A 
HETATM   32 CL1  UNL     1      22.412  -0.398  54.176  1.00  0.00    -0.081 Cl
HETATM   33  C18 UNL     1      22.153   0.648  51.621  1.00  0.00     0.056 A 
ENDBRANCH  24  26
ENDBRANCH   8  24
TORSDOF 4
ENDMDL
MODEL 6
REMARK VINA RESULT:      -9.1      2.497      3.407
REMARK  4 active torsions:
REMARK  status: ('A' for Active; 'I' for Inactive)
REMARK    1  A    between atoms: C5_7  and  N2_8 
REMARK       I    between atoms: N2_8  and  C6_9 
REMARK       I    between atoms: C6_9  and  N3_11 
REMARK    2  A    between atoms: N3_11  and  C7_12 
REMARK    3  A    between atoms: C12_19  and  N6_20 
REMARK    4  A    between atoms: N6_20  and  C13_21 
ROOT
HETATM    1  C7  UNL     1      24.730   6.834  50.778  1.00  0.00     0.037 A 
HETATM    2  C8  UNL     1      23.676   7.721  50.784  1.00  0.00     0.032 A 
HETATM    3  C9  UNL     1      22.408   7.217  50.749  1.00  0.00     0.035 A 
HETATM    4  C10 UNL     1      22.213   5.855  50.708  1.00  0.00     0.072 A 
HETATM    5  N4  UNL     1      20.922   5.410  50.674  1.00  0.00    -0.241 NA
HETATM    6  C11 UNL     1      20.670   4.090  50.634  1.00  0.00     0.236 A 
HETATM    7  N5  UNL     1      21.679   3.218  50.628  1.00  0.00    -0.224 NA
HETATM    8  C12 UNL     1      22.962   3.577  50.660  1.00  0.00     0.142 A 
HETATM    9  C19 UNL     1      23.218   4.912  50.700  1.00  0.00     0.041 A 
HETATM   10  C20 UNL     1      24.461   5.482  50.737  1.00  0.00     0.047 A 
ENDROOT
BRANCH   1  11
HETATM   11  N3  UNL     1      26.041   7.381  50.816  1.00  0.00    -0.309 N 
HETATM   12  C6  UNL     1      26.655   8.048  49.707  1.00  0.00     0.322 C 
HETATM   13  N2  UNL     1      27.973   8.575  49.808  1.00  0.00    -0.311 N 
HETATM   14  O2  UNL     1      25.965   8.132  48.664  1.00  0.00    -0.247 OA
HETATM   15  H11 UNL     1      28.503   8.477  50.701  1.00  0.00     0.166 HD
HETATM   16  H12 UNL     1      26.548   7.267  51.724  1.00  0.00     0.170 HD
BRANCH  13  17
HETATM   17  C5  UNL     1      28.528   9.237  48.643  1.00  0.00     0.349 C 
HETATM   18  N1  UNL     1      29.913   8.893  48.454  1.00  0.00     0.111 N 
HETATM   19  C1  UNL     1      30.067   7.470  48.712  1.00  0.00     0.312 C 
HETATM   20  C2  UNL     1      30.680   9.662  49.433  1.00  0.00     0.300 C 
HETATM   21  C3  UNL     1      30.636  11.111  48.994  1.00  0.00     0.198 C 
HETATM   22  O1  UNL     1      29.440  11.443  48.360  1.00  0.00    -0.386 OA
HETATM   23  C4  UNL     1      28.378  10.737  48.920  1.00  0.00     0.225 C 
ENDBRANCH  13  17
ENDBRANCH   1  11
BRANCH   8  24
HETATM   24  N6  UNL     1      24.031   2.670  50.654  1.00  0.00    -0.340 N 
HETATM   25  H16 UNL     1      24.464   2.352  49.767  1.00  0.00     0.167 HD
BRANCH  24  26
HETATM   26  C13 UNL     1      24.705   2.039  51.709  1.00  0.00     0.035 A 
HETATM   27  C14 UNL     1      24.214   0.981  52.484  1.00  0.00     0.032 A 
HETATM   28  C15 UNL     1      24.912   0.391  53.508  1.00  0.00     0.046 A 
HETATM   29  C16 UNL     1      26.177   0.820  53.841  1.00  0.00     0.138 A 
HETATM   30  F1  UNL     1      26.763   0.167  54.861  1.00  0.00    -0.204 F 
HETATM   31  C17 UNL     1      26.693   1.848  53.112  1.00  0.00     0.074 A 
HETATM   32 CL1  UNL     1      28.309   2.357  53.576  1.00  0.00    -0.081 Cl
HETATM   33  C18 UNL     1      25.972   2.427  52.085  1.00  0.00     0.056 A 
ENDBRANCH  24  26
ENDBRANCH   8  24
TORSDOF 4
ENDMDL
MODEL 7
REMARK VINA RESULT:      -9.1      4.913      7.301
REMARK  4 active torsions:
REMARK  status: ('A' for Active; 'I' for Inactive)
REMARK    1  A    between atoms: C5_7  and  N2_8 
REMARK       I    between atoms: N2_8  and  C6_9 
REMARK       I    between atoms: C6_9  and  N3_11 
REMARK    2  A    between atoms: N3_11  and  C7_12 
REMARK    3  A    between atoms: C12_19  and  N6_20 
REMARK    4  A    between atoms: N6_20  and  C13_21 
ROOT
HETATM    1  C7  UNL     1      22.705  -0.620  53.776  1.00  0.00     0.037 A 
HETATM    2  C8  UNL     1      21.843  -1.395  54.520  1.00  0.00     0.032 A 
HETATM    3  C9  UNL     1      20.519  -1.391  54.186  1.00  0.00     0.035 A 
HETATM    4  C10 UNL     1      20.082  -0.625  53.130  1.00  0.00     0.072 A 
HETATM    5  N4  UNL     1      18.747  -0.662  52.843  1.00  0.00    -0.241 NA
HETATM    6  C11 UNL     1      18.262   0.065  51.821  1.00  0.00     0.236 A 
HETATM    7  N5  UNL     1      19.083   0.821  51.090  1.00  0.00    -0.224 NA
HETATM    8  C12 UNL     1      20.395   0.906  51.311  1.00  0.00     0.142 A 
HETATM    9  C19 UNL     1      20.887   0.172  52.343  1.00  0.00     0.041 A 
HETATM   10  C20 UNL     1      22.197   0.122  52.730  1.00  0.00     0.047 A 
ENDROOT
BRANCH   1  11
HETATM   11  N3  UNL     1      24.078  -0.640  54.142  1.00  0.00    -0.309 N 
HETATM   12  C6  UNL     1      25.114  -0.017  53.374  1.00  0.00     0.322 C 
HETATM   13  N2  UNL     1      26.472  -0.073  53.795  1.00  0.00    -0.311 N 
HETATM   14  O2  UNL     1      24.747   0.567  52.327  1.00  0.00    -0.247 OA
HETATM   15  H11 UNL     1      26.721  -0.572  54.675  1.00  0.00     0.166 HD
HETATM   16  H12 UNL     1      24.298  -1.150  55.029  1.00  0.00     0.170 HD
BRANCH  13  17
HETATM   17  C5  UNL     1      27.465   0.583  52.964  1.00  0.00     0.349 C 
HETATM   18  N1  UNL     1      28.785   0.069  53.220  1.00  0.00     0.111 N 
HETATM   19  C1  UNL     1      28.691  -1.375  53.362  1.00  0.00     0.312 C 
HETATM   20  C2  UNL     1      29.237   0.663  54.478  1.00  0.00     0.300 C 
HETATM   21  C3  UNL     1      29.499   2.130  54.207  1.00  0.00     0.198 C 
HETATM   22  O1  UNL     1      28.642   2.660  53.245  1.00  0.00    -0.386 OA
HETATM   23  C4  UNL     1      27.384   2.068  53.332  1.00  0.00     0.225 C 
ENDBRANCH  13  17
ENDBRANCH   1  11
BRANCH   8  24
HETATM   24  N6  UNL     1      21.268   1.696  50.550  1.00  0.00    -0.340 N 
HETATM   25  H16 UNL     1      21.497   1.454  49.567  1.00  0.00     0.167 HD
BRANCH  24  26
HETATM   26  C13 UNL     1      21.967   2.867  50.876  1.00  0.00     0.035 A 
HETATM   27  C14 UNL     1      21.504   3.902  51.697  1.00  0.00     0.032 A 
HETATM   28  C15 UNL     1      22.227   5.031  51.992  1.00  0.00     0.046 A 
HETATM   29  C16 UNL     1      23.491   5.215  51.478  1.00  0.00     0.138 A 
HETATM   30  F1  UNL     1      24.102   6.359  51.835  1.00  0.00    -0.204 F 
HETATM   31  C17 UNL     1      23.981   4.232  50.673  1.00  0.00     0.074 A 
HETATM   32 CL1  UNL     1      25.596   4.515  50.046  1.00  0.00    -0.081 Cl
HETATM   33  C18 UNL     1      23.235   3.103  50.391  1.00  0.00     0.056 A 
ENDBRANCH  24  26
ENDBRANCH   8  24
TORSDOF 4
ENDMDL
MODEL 8
REMARK VINA RESULT:      -9.0      3.596      8.037
REMARK  4 active torsions:
REMARK  status: ('A' for Active; 'I' for Inactive)
REMARK    1  A    between atoms: C5_7  and  N2_8 
REMARK       I    between atoms: N2_8  and  C6_9 
REMARK       I    between atoms: C6_9  and  N3_11 
REMARK    2  A    between atoms: N3_11  and  C7_12 
REMARK    3  A    between atoms: C12_19  and  N6_20 
REMARK    4  A    between atoms: N6_20  and  C13_21 
ROOT
HETATM    1  C7  UNL     1      24.965   4.775  50.280  1.00  0.00     0.037 A 
HETATM    2  C8  UNL     1      23.743   4.804  49.645  1.00  0.00     0.032 A 
HETATM    3  C9  UNL     1      23.587   5.648  48.583  1.00  0.00     0.035 A 
HETATM    4  C10 UNL     1      24.638   6.439  48.177  1.00  0.00     0.072 A 
HETATM    5  N4  UNL     1      24.422   7.263  47.109  1.00  0.00    -0.241 NA
HETATM    6  C11 UNL     1      25.412   8.058  46.667  1.00  0.00     0.236 A 
HETATM    7  N5  UNL     1      26.601   8.042  47.271  1.00  0.00    -0.224 NA
HETATM    8  C12 UNL     1      26.884   7.266  48.317  1.00  0.00     0.142 A 
HETATM    9  C19 UNL     1      25.884   6.461  48.765  1.00  0.00     0.041 A 
HETATM   10  C20 UNL     1      25.973   5.595  49.819  1.00  0.00     0.047 A 
ENDROOT
BRANCH   1  11
HETATM   11  N3  UNL     1      25.104   3.889  51.383  1.00  0.00    -0.309 N 
HETATM   12  C6  UNL     1      26.069   2.833  51.436  1.00  0.00     0.322 C 
HETATM   13  N2  UNL     1      26.158   1.979  52.570  1.00  0.00    -0.311 N 
HETATM   14  O2  UNL     1      26.813   2.717  50.434  1.00  0.00    -0.247 OA
HETATM   15  H11 UNL     1      25.513   2.121  53.377  1.00  0.00     0.166 HD
HETATM   16  H12 UNL     1      24.442   4.056  52.176  1.00  0.00     0.170 HD
BRANCH  13  17
HETATM   17  C5  UNL     1      27.161   0.931  52.551  1.00  0.00     0.349 C 
HETATM   18  N1  UNL     1      26.747  -0.206  53.330  1.00  0.00     0.111 N 
HETATM   19  C1  UNL     1      25.337  -0.447  53.068  1.00  0.00     0.312 C 
HETATM   20  C2  UNL     1      26.938   0.148  54.736  1.00  0.00     0.300 C 
HETATM   21  C3  UNL     1      28.432   0.193  54.984  1.00  0.00     0.198 C 
HETATM   22  O1  UNL     1      29.149   0.618  53.868  1.00  0.00    -0.386 OA
HETATM   23  C4  UNL     1      28.421   1.566  53.152  1.00  0.00     0.225 C 
ENDBRANCH  13  17
ENDBRANCH   1  11
BRANCH   8  24
HETATM   24  N6  UNL     1      28.130   7.240  48.960  1.00  0.00    -0.340 N 
HETATM   25  H16 UNL     1      28.214   7.398  49.982  1.00  0.00     0.167 HD
BRANCH  24  26
HETATM   26  C13 UNL     1      29.419   7.024  48.454  1.00  0.00     0.035 A 
HETATM   27  C14 UNL     1      30.408   7.999  48.272  1.00  0.00     0.032 A 
HETATM   28  C15 UNL     1      31.660   7.739  47.774  1.00  0.00     0.046 A 
HETATM   29  C16 UNL     1      32.027   6.462  47.414  1.00  0.00     0.138 A 
HETATM   30  F1  UNL     1      33.279   6.329  46.939  1.00  0.00    -0.204 F 
HETATM   31  C17 UNL     1      31.096   5.482  47.574  1.00  0.00     0.074 A 
HETATM   32 CL1  UNL     1      31.614   3.872  47.101  1.00  0.00    -0.081 Cl
HETATM   33  C18 UNL     1      29.841   5.767  48.078  1.00  0.00     0.056 A 
ENDBRANCH  24  26
ENDBRANCH   8  24
TORSDOF 4
ENDMDL
MODEL 9
REMARK VINA RESULT:      -9.0      4.084      8.481
REMARK  4 active torsions:
REMARK  status: ('A' for Active; 'I' for Inactive)
REMARK    1  A    between atoms: C5_7  and  N2_8 
REMARK       I    between atoms: N2_8  and  C6_9 
REMARK       I    between atoms: C6_9  and  N3_11 
REMARK    2  A    between atoms: N3_11  and  C7_12 
REMARK    3  A    between atoms: C12_19  and  N6_20 
REMARK    4  A    between atoms: N6_20  and  C13_21 
ROOT
HETATM    1  C7  UNL     1      27.159   6.843  48.519  1.00  0.00     0.037 A 
HETATM    2  C8  UNL     1      26.339   7.537  47.658  1.00  0.00     0.032 A 
HETATM    3  C9  UNL     1      26.905   8.141  46.571  1.00  0.00     0.035 A 
HETATM    4  C10 UNL     1      28.262   8.045  46.365  1.00  0.00     0.072 A 
HETATM    5  N4  UNL     1      28.771   8.669  45.262  1.00  0.00    -0.241 NA
HETATM    6  C11 UNL     1      30.090   8.609  45.008  1.00  0.00     0.236 A 
HETATM    7  N5  UNL     1      30.899   7.941  45.833  1.00  0.00    -0.224 NA
HETATM    8  C12 UNL     1      30.475   7.308  46.927  1.00  0.00     0.142 A 
HETATM    9  C19 UNL     1      29.141   7.368  47.184  1.00  0.00     0.041 A 
HETATM   10  C20 UNL     1      28.511   6.788  48.250  1.00  0.00     0.047 A 
ENDROOT
BRANCH   1  11
HETATM   11  N3  UNL     1      26.548   6.223  49.642  1.00  0.00    -0.309 N 
HETATM   12  C6  UNL     1      26.367   4.808  49.768  1.00  0.00     0.322 C 
HETATM   13  N2  UNL     1      25.747   4.249  50.920  1.00  0.00    -0.311 N 
HETATM   14  O2  UNL     1      26.786   4.113  48.813  1.00  0.00    -0.247 OA
HETATM   15  H11 UNL     1      25.418   4.874  51.686  1.00  0.00     0.166 HD
HETATM   16  H12 UNL     1      26.227   6.877  50.394  1.00  0.00     0.170 HD
BRANCH  13  17
HETATM   17  C5  UNL     1      25.600   2.806  50.975  1.00  0.00     0.349 C 
HETATM   18  N1  UNL     1      24.402   2.428  51.678  1.00  0.00     0.111 N 
HETATM   19  C1  UNL     1      23.333   3.324  51.268  1.00  0.00     0.312 C 
HETATM   20  C2  UNL     1      24.673   2.598  53.105  1.00  0.00     0.300 C 
HETATM   21  C3  UNL     1      25.649   1.512  53.505  1.00  0.00     0.198 C 
HETATM   22  O1  UNL     1      26.531   1.178  52.479  1.00  0.00    -0.386 OA
HETATM   23  C4  UNL     1      26.843   2.301  51.718  1.00  0.00     0.225 C 
ENDBRANCH  13  17
ENDBRANCH   1  11
BRANCH   8  24
HETATM   24  N6  UNL     1      31.315   6.604  47.800  1.00  0.00    -0.340 N 
HETATM   25  H16 UNL     1      31.243   6.719  48.828  1.00  0.00     0.167 HD
BRANCH  24  26
HETATM   26  C13 UNL     1      32.337   5.680  47.544  1.00  0.00     0.035 A 
HETATM   27  C14 UNL     1      33.698   5.976  47.397  1.00  0.00     0.032 A 
HETATM   28  C15 UNL     1      34.666   5.036  47.149  1.00  0.00     0.046 A 
HETATM   29  C16 UNL     1      34.343   3.703  47.027  1.00  0.00     0.138 A 
HETATM   30  F1  UNL     1      35.375   2.875  46.783  1.00  0.00    -0.204 F 
HETATM   31  C17 UNL     1      33.030   3.370  47.162  1.00  0.00     0.074 A 
HETATM   32 CL1  UNL     1      32.671   1.659  46.999  1.00  0.00    -0.081 Cl
HETATM   33  C18 UNL     1      32.072   4.334  47.413  1.00  0.00     0.056 A 
ENDBRANCH  24  26
ENDBRANCH   8  24
TORSDOF 4
ENDMDL
