MODEL 1
REMARK VINA RESULT:      -9.1      0.000      0.000
REMARK  4 active torsions:
REMARK  status: ('A' for Active; 'I' for Inactive)
REMARK       I    between atoms: C1_2  and  N1_3 
REMARK    1  A    between atoms: C1_2  and  C16_22 
REMARK    2  A    between atoms: N1_3  and  C2_4 
REMARK    3  A    between atoms: C6_8  and  N2_9 
REMARK    4  A    between atoms: N2_9  and  C7_10 
ROOT
HETATM    1  C2  UNL     1      26.644   2.013  52.134  1.00  0.00     0.037 A 
HETATM    2  C3  UNL     1      27.744   1.405  52.681  1.00  0.00     0.029 A 
HETATM    3  C4  UNL     1      27.788   0.214  53.363  1.00  0.00     0.004 A 
HETATM    4  C5  UNL     1      26.596  -0.456  53.519  1.00  0.00     0.030 A 
HETATM    5  C6  UNL     1      25.423   0.105  52.981  1.00  0.00     0.051 A 
HETATM    6  C15 UNL     1      25.469   1.329  52.300  1.00  0.00     0.059 A 
ENDROOT
BRANCH   5   7
HETATM    7  N2  UNL     1      24.182  -0.527  53.145  1.00  0.00    -0.188 N 
HETATM    8  H5  UNL     1      24.454  -1.572  53.218  1.00  0.00     0.184 HD
BRANCH   7   9
HETATM    9  C7  UNL     1      22.798  -0.633  53.293  1.00  0.00     0.727 A 
HETATM   10  N3  UNL     1      22.313  -1.355  54.351  1.00  0.00    -0.073 NA
HETATM   11  C8  UNL     1      20.964  -1.473  54.516  1.00  0.00     0.168 A 
HETATM   12  C9  UNL     1      20.185  -0.824  53.556  1.00  0.00     0.080 A 
HETATM   13  C10 UNL     1      20.647  -0.094  52.486  1.00  0.00     0.104 A 
HETATM   14  N5  UNL     1      18.782  -1.024  53.812  1.00  0.00    -0.363 N 
HETATM   15  N4  UNL     1      21.976  -0.020  52.388  1.00  0.00    -0.061 NA
HETATM   16  C11 UNL     1      19.991   0.628  51.423  1.00  0.00     0.034 C 
HETATM   17  C12 UNL     1      18.732   0.414  51.087  1.00  0.00     0.004 C 
HETATM   18  C13 UNL     1      17.714  -0.502  51.614  1.00  0.00     0.017 C 
HETATM   19  C14 UNL     1      17.742  -1.126  52.804  1.00  0.00     0.088 C 
HETATM   20  H11 UNL     1      18.521  -1.097  54.835  1.00  0.00     0.165 HD
ENDBRANCH   7   9
ENDBRANCH   5   7
BRANCH   1  21
HETATM   21  N1  UNL     1      26.645   3.252  51.456  1.00  0.00    -0.323 N 
HETATM   22  C1  UNL     1      26.635   3.509  50.069  1.00  0.00     0.257 C 
HETATM   23  O1  UNL     1      26.619   2.562  49.243  1.00  0.00    -0.267 OA
HETATM   24  H1  UNL     1      26.651   4.148  51.988  1.00  0.00     0.169 HD
BRANCH  22  25
HETATM   25  C16 UNL     1      26.641   4.782  49.407  1.00  0.00     0.049 A 
HETATM   26  C17 UNL     1      27.634   5.219  48.584  1.00  0.00     0.020 A 
HETATM   27  C18 UNL     1      27.546   6.495  48.013  1.00  0.00     0.020 A 
HETATM   28  C19 UNL     1      26.453   7.305  48.290  1.00  0.00     0.116 A 
HETATM   29  N6  UNL     1      25.461   6.852  49.121  1.00  0.00    -0.272 NA
HETATM   30  C20 UNL     1      25.578   5.602  49.659  1.00  0.00     0.133 A 
ENDBRANCH  22  25
ENDBRANCH   1  21
TORSDOF 4
ENDMDL
MODEL 2
REMARK VINA RESULT:      -9.0      4.033     10.802
REMARK  4 active torsions:
REMARK  status: ('A' for Active; 'I' for Inactive)
REMARK       I    between atoms: C1_2  and  N1_3 
REMARK    1  A    between atoms: C1_2  and  C16_22 
REMARK    2  A    between atoms: N1_3  and  C2_4 
REMARK    3  A    between atoms: C6_8  and  N2_9 
REMARK    4  A    between atoms: N2_9  and  C7_10 
ROOT
HETATM    1  C2  UNL     1      25.779   4.367  49.566  1.00  0.00     0.037 A 
HETATM    2  C3  UNL     1      24.920   5.359  49.172  1.00  0.00     0.029 A 
HETATM    3  C4  UNL     1      25.226   6.503  48.476  1.00  0.00     0.004 A 
HETATM    4  C5  UNL     1      26.545   6.683  48.128  1.00  0.00     0.030 A 
HETATM    5  C6  UNL     1      27.487   5.703  48.495  1.00  0.00     0.051 A 
HETATM    6  C15 UNL     1      27.087   4.565  49.208  1.00  0.00     0.059 A 
ENDROOT
BRANCH   5   7
HETATM    7  N2  UNL     1      28.847   5.861  48.189  1.00  0.00    -0.188 N 
HETATM    8  H5  UNL     1      28.835   6.651  47.449  1.00  0.00     0.184 HD
BRANCH   7   9
HETATM    9  C7  UNL     1      30.221   5.634  48.270  1.00  0.00     0.727 A 
HETATM   10  N3  UNL     1      30.983   6.522  48.982  1.00  0.00    -0.073 NA
HETATM   11  C8  UNL     1      32.330   6.323  49.075  1.00  0.00     0.168 A 
HETATM   12  C9  UNL     1      32.814   5.194  48.411  1.00  0.00     0.080 A 
HETATM   13  C10 UNL     1      32.070   4.288  47.690  1.00  0.00     0.104 A 
HETATM   14  N5  UNL     1      34.242   5.085  48.558  1.00  0.00    -0.363 N 
HETATM   15  N4  UNL     1      30.762   4.547  47.643  1.00  0.00    -0.061 NA
HETATM   16  C11 UNL     1      32.407   3.092  46.958  1.00  0.00     0.034 C 
HETATM   17  C12 UNL     1      33.635   2.826  46.552  1.00  0.00     0.004 C 
HETATM   18  C13 UNL     1      34.899   3.558  46.692  1.00  0.00     0.017 C 
HETATM   19  C14 UNL     1      35.157   4.543  47.570  1.00  0.00     0.088 C 
HETATM   20  H11 UNL     1      34.624   5.439  49.479  1.00  0.00     0.165 HD
ENDBRANCH   7   9
ENDBRANCH   5   7
BRANCH   1  21
HETATM   21  N1  UNL     1      25.419   3.214  50.299  1.00  0.00    -0.323 N 
HETATM   22  C1  UNL     1      26.181   2.473  51.226  1.00  0.00     0.257 C 
HETATM   23  O1  UNL     1      27.358   2.815  51.504  1.00  0.00    -0.267 OA
HETATM   24  H1  UNL     1      24.470   2.795  50.196  1.00  0.00     0.169 HD
BRANCH  22  25
HETATM   25  C16 UNL     1      25.790   1.301  51.953  1.00  0.00     0.049 A 
HETATM   26  C17 UNL     1      26.568   0.195  52.113  1.00  0.00     0.020 A 
HETATM   27  C18 UNL     1      26.069  -0.905  52.822  1.00  0.00     0.020 A 
HETATM   28  C19 UNL     1      24.788  -0.863  53.355  1.00  0.00     0.116 A 
HETATM   29  N6  UNL     1      24.015   0.257  53.186  1.00  0.00    -0.272 NA
HETATM   30  C20 UNL     1      24.534   1.312  52.491  1.00  0.00     0.133 A 
ENDBRANCH  22  25
ENDBRANCH   1  21
TORSDOF 4
ENDMDL
MODEL 3
REMARK VINA RESULT:      -8.7      3.712      6.673
REMARK  4 active torsions:
REMARK  status: ('A' for Active; 'I' for Inactive)
REMARK       I    between atoms: C1_2  and  N1_3 
REMARK    1  A    between atoms: C1_2  and  C16_22 
REMARK    2  A    between atoms: N1_3  and  C2_4 
REMARK    3  A    between atoms: C6_8  and  N2_9 
REMARK    4  A    between atoms: N2_9  and  C7_10 
ROOT
HETATM    1  C2  UNL     1      28.518   5.672  48.146  1.00  0.00     0.037 A 
HETATM    2  C3  UNL     1      28.081   6.885  47.683  1.00  0.00     0.029 A 
HETATM    3  C4  UNL     1      26.838   7.446  47.851  1.00  0.00     0.004 A 
HETATM    4  C5  UNL     1      25.919   6.714  48.567  1.00  0.00     0.030 A 
HETATM    5  C6  UNL     1      26.296   5.458  49.078  1.00  0.00     0.051 A 
HETATM    6  C15 UNL     1      27.588   4.960  48.856  1.00  0.00     0.059 A 
ENDROOT
BRANCH   5   7
HETATM    7  N2  UNL     1      25.382   4.664  49.785  1.00  0.00    -0.188 N 
HETATM    8  H5  UNL     1      24.470   5.244  49.731  1.00  0.00     0.184 HD
BRANCH   7   9
HETATM    9  C7  UNL     1      24.919   3.563  50.507  1.00  0.00     0.727 A 
HETATM   10  N3  UNL     1      23.582   3.494  50.796  1.00  0.00    -0.073 NA
HETATM   11  C8  UNL     1      23.105   2.428  51.502  1.00  0.00     0.168 A 
HETATM   12  C9  UNL     1      24.062   1.481  51.872  1.00  0.00     0.080 A 
HETATM   13  C10 UNL     1      25.409   1.527  51.594  1.00  0.00     0.104 A 
HETATM   14  N5  UNL     1      23.460   0.409  52.623  1.00  0.00    -0.363 N 
HETATM   15  N4  UNL     1      25.802   2.598  50.901  1.00  0.00    -0.061 NA
HETATM   16  C11 UNL     1      26.512   0.648  51.897  1.00  0.00     0.034 C 
HETATM   17  C12 UNL     1      26.460  -0.259  52.854  1.00  0.00     0.004 C 
HETATM   18  C13 UNL     1      25.403  -0.632  53.802  1.00  0.00     0.017 C 
HETATM   19  C14 UNL     1      24.096  -0.336  53.694  1.00  0.00     0.088 C 
HETATM   20  H11 UNL     1      22.469   0.170  52.342  1.00  0.00     0.165 HD
ENDBRANCH   7   9
ENDBRANCH   5   7
BRANCH   1  21
HETATM   21  N1  UNL     1      29.804   5.128  47.930  1.00  0.00    -0.323 N 
HETATM   22  C1  UNL     1      31.051   5.567  48.420  1.00  0.00     0.257 C 
HETATM   23  O1  UNL     1      31.126   6.577  49.164  1.00  0.00    -0.267 OA
HETATM   24  H1  UNL     1      29.928   4.278  47.339  1.00  0.00     0.169 HD
BRANCH  22  25
HETATM   25  C16 UNL     1      32.344   4.995  48.180  1.00  0.00     0.049 A 
HETATM   26  C17 UNL     1      32.558   3.804  47.557  1.00  0.00     0.020 A 
HETATM   27  C18 UNL     1      33.868   3.330  47.402  1.00  0.00     0.020 A 
HETATM   28  C19 UNL     1      34.936   4.074  47.884  1.00  0.00     0.116 A 
HETATM   29  N6  UNL     1      34.705   5.272  48.510  1.00  0.00    -0.272 NA
HETATM   30  C20 UNL     1      33.416   5.705  48.642  1.00  0.00     0.133 A 
ENDBRANCH  22  25
ENDBRANCH   1  21
TORSDOF 4
ENDMDL
MODEL 4
REMARK VINA RESULT:      -8.5      2.538      4.608
REMARK  4 active torsions:
REMARK  status: ('A' for Active; 'I' for Inactive)
REMARK       I    between atoms: C1_2  and  N1_3 
REMARK    1  A    between atoms: C1_2  and  C16_22 
REMARK    2  A    between atoms: N1_3  and  C2_4 
REMARK    3  A    between atoms: C6_8  and  N2_9 
REMARK    4  A    between atoms: N2_9  and  C7_10 
ROOT
HETATM    1  C2  UNL     1      23.037   0.285  52.912  1.00  0.00     0.037 A 
HETATM    2  C3  UNL     1      23.648  -0.356  53.957  1.00  0.00     0.029 A 
HETATM    3  C4  UNL     1      23.056  -1.133  54.923  1.00  0.00     0.004 A 
HETATM    4  C5  UNL     1      21.693  -1.294  54.840  1.00  0.00     0.030 A 
HETATM    5  C6  UNL     1      20.995  -0.668  53.790  1.00  0.00     0.051 A 
HETATM    6  C15 UNL     1      21.680   0.111  52.847  1.00  0.00     0.059 A 
ENDROOT
BRANCH   5   7
HETATM    7  N2  UNL     1      19.601  -0.779  53.685  1.00  0.00    -0.188 N 
HETATM    8  H5  UNL     1      19.250   0.102  54.207  1.00  0.00     0.184 HD
BRANCH   7   9
HETATM    9  C7  UNL     1      18.376  -1.326  53.298  1.00  0.00     0.727 A 
HETATM   10  N3  UNL     1      17.538  -0.561  52.531  1.00  0.00    -0.073 NA
HETATM   11  C8  UNL     1      16.335  -1.073  52.141  1.00  0.00     0.168 A 
HETATM   12  C9  UNL     1      16.069  -2.372  52.579  1.00  0.00     0.080 A 
HETATM   13  C10 UNL     1      16.893  -3.160  53.348  1.00  0.00     0.104 A 
HETATM   14  N5  UNL     1      14.773  -2.810  52.128  1.00  0.00    -0.363 N 
HETATM   15  N4  UNL     1      18.052  -2.594  53.691  1.00  0.00    -0.061 NA
HETATM   16  C11 UNL     1      16.773  -4.498  53.876  1.00  0.00     0.034 C 
HETATM   17  C12 UNL     1      15.613  -5.117  53.991  1.00  0.00     0.004 C 
HETATM   18  C13 UNL     1      14.242  -4.711  53.661  1.00  0.00     0.017 C 
HETATM   19  C14 UNL     1      13.883  -3.703  52.848  1.00  0.00     0.088 C 
HETATM   20  H11 UNL     1      14.477  -2.431  51.186  1.00  0.00     0.165 HD
ENDBRANCH   7   9
ENDBRANCH   5   7
BRANCH   1  21
HETATM   21  N1  UNL     1      23.688   1.092  51.952  1.00  0.00    -0.323 N 
HETATM   22  C1  UNL     1      24.290   2.357  52.111  1.00  0.00     0.257 C 
HETATM   23  O1  UNL     1      24.300   2.924  53.233  1.00  0.00    -0.267 OA
HETATM   24  H1  UNL     1      23.778   0.772  50.964  1.00  0.00     0.169 HD
BRANCH  22  25
HETATM   25  C16 UNL     1      24.941   3.156  51.114  1.00  0.00     0.049 A 
HETATM   26  C17 UNL     1      24.324   4.115  50.370  1.00  0.00     0.020 A 
HETATM   27  C18 UNL     1      25.056   4.816  49.402  1.00  0.00     0.020 A 
HETATM   28  C19 UNL     1      26.400   4.530  49.207  1.00  0.00     0.116 A 
HETATM   29  N6  UNL     1      27.008   3.561  49.964  1.00  0.00    -0.272 NA
HETATM   30  C20 UNL     1      26.266   2.898  50.899  1.00  0.00     0.133 A 
ENDBRANCH  22  25
ENDBRANCH   1  21
TORSDOF 4
ENDMDL
MODEL 5
REMARK VINA RESULT:      -8.4      4.089     10.855
REMARK  4 active torsions:
REMARK  status: ('A' for Active; 'I' for Inactive)
REMARK       I    between atoms: C1_2  and  N1_3 
REMARK    1  A    between atoms: C1_2  and  C16_22 
REMARK    2  A    between atoms: N1_3  and  C2_4 
REMARK    3  A    between atoms: C6_8  and  N2_9 
REMARK    4  A    between atoms: N2_9  and  C7_10 
ROOT
HETATM    1  C2  UNL     1      25.667   4.246  49.670  1.00  0.00     0.037 A 
HETATM    2  C3  UNL     1      24.830   5.273  49.323  1.00  0.00     0.029 A 
HETATM    3  C4  UNL     1      25.148   6.411  48.623  1.00  0.00     0.004 A 
HETATM    4  C5  UNL     1      26.456   6.544  48.216  1.00  0.00     0.030 A 
HETATM    5  C6  UNL     1      27.375   5.526  48.533  1.00  0.00     0.051 A 
HETATM    6  C15 UNL     1      26.964   4.397  49.255  1.00  0.00     0.059 A 
ENDROOT
BRANCH   5   7
HETATM    7  N2  UNL     1      28.724   5.635  48.166  1.00  0.00    -0.188 N 
HETATM    8  H5  UNL     1      28.673   6.160  47.221  1.00  0.00     0.184 HD
BRANCH   7   9
HETATM    9  C7  UNL     1      30.108   5.497  48.285  1.00  0.00     0.727 A 
HETATM   10  N3  UNL     1      30.785   6.400  49.061  1.00  0.00    -0.073 NA
HETATM   11  C8  UNL     1      32.138   6.286  49.192  1.00  0.00     0.168 A 
HETATM   12  C9  UNL     1      32.718   5.224  48.497  1.00  0.00     0.080 A 
HETATM   13  C10 UNL     1      32.062   4.305  47.712  1.00  0.00     0.104 A 
HETATM   14  N5  UNL     1      34.146   5.204  48.688  1.00  0.00    -0.363 N 
HETATM   15  N4  UNL     1      30.741   4.477  47.631  1.00  0.00    -0.061 NA
HETATM   16  C11 UNL     1      32.503   3.168  46.941  1.00  0.00     0.034 C 
HETATM   17  C12 UNL     1      33.757   3.004  46.566  1.00  0.00     0.004 C 
HETATM   18  C13 UNL     1      34.964   3.811  46.782  1.00  0.00     0.017 C 
HETATM   19  C14 UNL     1      35.126   4.770  47.710  1.00  0.00     0.088 C 
HETATM   20  H11 UNL     1      34.473   5.540  49.636  1.00  0.00     0.165 HD
ENDBRANCH   7   9
ENDBRANCH   5   7
BRANCH   1  21
HETATM   21  N1  UNL     1      25.297   3.101  50.410  1.00  0.00    -0.323 N 
HETATM   22  C1  UNL     1      24.056   2.785  51.002  1.00  0.00     0.257 C 
HETATM   23  O1  UNL     1      23.082   3.574  50.906  1.00  0.00    -0.267 OA
HETATM   24  H1  UNL     1      25.983   2.335  50.582  1.00  0.00     0.169 HD
BRANCH  22  25
HETATM   25  C16 UNL     1      23.710   1.613  51.753  1.00  0.00     0.049 A 
HETATM   26  C17 UNL     1      22.440   1.154  51.925  1.00  0.00     0.020 A 
HETATM   27  C18 UNL     1      22.218   0.011  52.705  1.00  0.00     0.020 A 
HETATM   28  C19 UNL     1      23.289  -0.643  53.298  1.00  0.00     0.116 A 
HETATM   29  N6  UNL     1      24.563  -0.169  53.116  1.00  0.00    -0.272 NA
HETATM   30  C20 UNL     1      24.744   0.946  52.348  1.00  0.00     0.133 A 
ENDBRANCH  22  25
ENDBRANCH   1  21
TORSDOF 4
ENDMDL
MODEL 6
REMARK VINA RESULT:      -8.4      2.792      8.601
REMARK  4 active torsions:
REMARK  status: ('A' for Active; 'I' for Inactive)
REMARK       I    between atoms: C1_2  and  N1_3 
REMARK    1  A    between atoms: C1_2  and  C16_22 
REMARK    2  A    between atoms: N1_3  and  C2_4 
REMARK    3  A    between atoms: C6_8  and  N2_9 
REMARK    4  A    between atoms: N2_9  and  C7_10 
ROOT
HETATM    1  C2  UNL     1      24.002   1.542  52.778  1.00  0.00     0.037 A 
HETATM    2  C3  UNL     1      22.674   1.217  52.872  1.00  0.00     0.029 A 
HETATM    3  C4  UNL     1      21.595   2.010  52.568  1.00  0.00     0.004 A 
HETATM    4  C5  UNL     1      21.868   3.279  52.112  1.00  0.00     0.030 A 
HETATM    5  C6  UNL     1      23.210   3.685  51.985  1.00  0.00     0.051 A 
HETATM    6  C15 UNL     1      24.251   2.809  52.321  1.00  0.00     0.059 A 
ENDROOT
BRANCH   5   7
HETATM    7  N2  UNL     1      23.533   4.980  51.555  1.00  0.00    -0.188 N 
HETATM    8  H5  UNL     1      22.774   5.586  52.032  1.00  0.00     0.184 HD
BRANCH   7   9
HETATM    9  C7  UNL     1      24.253   5.978  50.897  1.00  0.00     0.727 A 
HETATM   10  N3  UNL     1      23.826   7.273  51.020  1.00  0.00    -0.073 NA
HETATM   11  C8  UNL     1      24.514   8.266  50.385  1.00  0.00     0.168 A 
HETATM   12  C9  UNL     1      25.623   7.848  49.647  1.00  0.00     0.080 A 
HETATM   13  C10 UNL     1      26.071   6.555  49.508  1.00  0.00     0.104 A 
HETATM   14  N5  UNL     1      26.265   8.966  49.006  1.00  0.00    -0.363 N 
HETATM   15  N4  UNL     1      25.351   5.637  50.156  1.00  0.00    -0.061 NA
HETATM   16  C11 UNL     1      27.178   5.963  48.797  1.00  0.00     0.034 C 
HETATM   17  C12 UNL     1      27.805   6.579  47.812  1.00  0.00     0.004 C 
HETATM   18  C13 UNL     1      27.615   7.897  47.195  1.00  0.00     0.017 C 
HETATM   19  C14 UNL     1      26.941   8.934  47.722  1.00  0.00     0.088 C 
HETATM   20  H11 UNL     1      26.223   9.874  49.548  1.00  0.00     0.165 HD
ENDBRANCH   7   9
ENDBRANCH   5   7
BRANCH   1  21
HETATM   21  N1  UNL     1      25.080   0.695  53.122  1.00  0.00    -0.323 N 
HETATM   22  C1  UNL     1      26.288   0.465  52.432  1.00  0.00     0.257 C 
HETATM   23  O1  UNL     1      26.528   1.055  51.349  1.00  0.00    -0.267 OA
HETATM   24  H1  UNL     1      25.052   0.131  53.999  1.00  0.00     0.169 HD
BRANCH  22  25
HETATM   25  C16 UNL     1      27.364  -0.406  52.805  1.00  0.00     0.049 A 
HETATM   26  C17 UNL     1      28.591   0.016  53.217  1.00  0.00     0.020 A 
HETATM   27  C18 UNL     1      29.578  -0.929  53.530  1.00  0.00     0.020 A 
HETATM   28  C19 UNL     1      29.301  -2.285  53.417  1.00  0.00     0.116 A 
HETATM   29  N6  UNL     1      28.060  -2.695  53.000  1.00  0.00    -0.272 NA
HETATM   30  C20 UNL     1      27.122  -1.747  52.705  1.00  0.00     0.133 A 
ENDBRANCH  22  25
ENDBRANCH   1  21
TORSDOF 4
ENDMDL
MODEL 7
REMARK VINA RESULT:      -8.3      4.029     11.110
REMARK  4 active torsions:
REMARK  status: ('A' for Active; 'I' for Inactive)
REMARK       I    between atoms: C1_2  and  N1_3 
REMARK    1  A    between atoms: C1_2  and  C16_22 
REMARK    2  A    between atoms: N1_3  and  C2_4 
REMARK    3  A    between atoms: C6_8  and  N2_9 
REMARK    4  A    between atoms: N2_9  and  C7_10 
ROOT
HETATM    1  C2  UNL     1      25.643   4.120  49.735  1.00  0.00     0.037 A 
HETATM    2  C3  UNL     1      24.688   4.969  49.240  1.00  0.00     0.029 A 
HETATM    3  C4  UNL     1      24.886   6.131  48.536  1.00  0.00     0.004 A 
HETATM    4  C5  UNL     1      26.190   6.494  48.291  1.00  0.00     0.030 A 
HETATM    5  C6  UNL     1      27.228   5.669  48.766  1.00  0.00     0.051 A 
HETATM    6  C15 UNL     1      26.934   4.499  49.480  1.00  0.00     0.059 A 
ENDROOT
BRANCH   5   7
HETATM    7  N2  UNL     1      28.572   6.016  48.567  1.00  0.00    -0.188 N 
HETATM    8  H5  UNL     1      28.589   7.066  48.829  1.00  0.00     0.184 HD
BRANCH   7   9
HETATM    9  C7  UNL     1      29.919   5.829  48.255  1.00  0.00     0.727 A 
HETATM   10  N3  UNL     1      30.304   4.617  47.747  1.00  0.00    -0.073 NA
HETATM   11  C8  UNL     1      31.616   4.410  47.435  1.00  0.00     0.168 A 
HETATM   12  C9  UNL     1      32.465   5.492  47.673  1.00  0.00     0.080 A 
HETATM   13  C10 UNL     1      32.104   6.718  48.181  1.00  0.00     0.104 A 
HETATM   14  N5  UNL     1      33.824   5.164  47.326  1.00  0.00    -0.363 N 
HETATM   15  N4  UNL     1      30.805   6.849  48.463  1.00  0.00    -0.061 NA
HETATM   16  C11 UNL     1      32.841   7.921  48.482  1.00  0.00     0.034 C 
HETATM   17  C12 UNL     1      34.152   7.933  48.639  1.00  0.00     0.004 C 
HETATM   18  C13 UNL     1      35.163   6.872  48.566  1.00  0.00     0.017 C 
HETATM   19  C14 UNL     1      35.013   5.666  47.991  1.00  0.00     0.088 C 
HETATM   20  H11 UNL     1      33.928   4.499  46.511  1.00  0.00     0.165 HD
ENDBRANCH   7   9
ENDBRANCH   5   7
BRANCH   1  21
HETATM   21  N1  UNL     1      25.390   2.942  50.472  1.00  0.00    -0.323 N 
HETATM   22  C1  UNL     1      24.711   2.786  51.698  1.00  0.00     0.257 C 
HETATM   23  O1  UNL     1      24.226   3.783  52.292  1.00  0.00    -0.267 OA
HETATM   24  H1  UNL     1      25.717   2.016  50.122  1.00  0.00     0.169 HD
BRANCH  22  25
HETATM   25  C16 UNL     1      24.473   1.574  52.428  1.00  0.00     0.049 A 
HETATM   26  C17 UNL     1      23.288   0.905  52.446  1.00  0.00     0.020 A 
HETATM   27  C18 UNL     1      23.163  -0.258  53.218  1.00  0.00     0.020 A 
HETATM   28  C19 UNL     1      24.242  -0.717  53.960  1.00  0.00     0.116 A 
HETATM   29  N6  UNL     1      25.430  -0.032  53.932  1.00  0.00    -0.272 NA
HETATM   30  C20 UNL     1      25.518   1.096  53.167  1.00  0.00     0.133 A 
ENDBRANCH  22  25
ENDBRANCH   1  21
TORSDOF 4
ENDMDL
MODEL 8
REMARK VINA RESULT:      -8.2      4.239     10.340
REMARK  4 active torsions:
REMARK  status: ('A' for Active; 'I' for Inactive)
REMARK       I    between atoms: C1_2  and  N1_3 
REMARK    1  A    between atoms: C1_2  and  C16_22 
REMARK    2  A    between atoms: N1_3  and  C2_4 
REMARK    3  A    between atoms: C6_8  and  N2_9 
REMARK    4  A    between atoms: N2_9  and  C7_10 
ROOT
HETATM    1  C2  UNL     1      25.779   2.599  50.939  1.00  0.00     0.037 A 
HETATM    2  C3  UNL     1      24.450   2.802  51.204  1.00  0.00     0.029 A 
HETATM    3  C4  UNL     1      23.696   3.907  50.895  1.00  0.00     0.004 A 
HETATM    4  C5  UNL     1      24.337   4.934  50.243  1.00  0.00     0.030 A 
HETATM    5  C6  UNL     1      25.704   4.797  49.933  1.00  0.00     0.051 A 
HETATM    6  C15 UNL     1      26.399   3.633  50.288  1.00  0.00     0.059 A 
ENDROOT
BRANCH   5   7
HETATM    7  N2  UNL     1      26.405   5.832  49.297  1.00  0.00    -0.188 N 
HETATM    8  H5  UNL     1      25.617   6.521  49.021  1.00  0.00     0.184 HD
BRANCH   7   9
HETATM    9  C7  UNL     1      27.511   6.534  48.816  1.00  0.00     0.727 A 
HETATM   10  N3  UNL     1      28.508   5.826  48.198  1.00  0.00    -0.073 NA
HETATM   11  C8  UNL     1      29.601   6.490  47.720  1.00  0.00     0.168 A 
HETATM   12  C9  UNL     1      29.593   7.872  47.916  1.00  0.00     0.080 A 
HETATM   13  C10 UNL     1      28.605   8.605  48.532  1.00  0.00     0.104 A 
HETATM   14  N5  UNL     1      30.793   8.471  47.391  1.00  0.00    -0.363 N 
HETATM   15  N4  UNL     1      27.568   7.890  48.974  1.00  0.00    -0.061 NA
HETATM   16  C11 UNL     1      28.444  10.012  48.810  1.00  0.00     0.034 C 
HETATM   17  C12 UNL     1      29.456  10.859  48.809  1.00  0.00     0.004 C 
HETATM   18  C13 UNL     1      30.891  10.681  48.556  1.00  0.00     0.017 C 
HETATM   19  C14 UNL     1      31.467   9.636  47.937  1.00  0.00     0.088 C 
HETATM   20  H11 UNL     1      31.189   7.998  46.533  1.00  0.00     0.165 HD
ENDBRANCH   7   9
ENDBRANCH   5   7
BRANCH   1  21
HETATM   21  N1  UNL     1      26.520   1.449  51.294  1.00  0.00    -0.323 N 
HETATM   22  C1  UNL     1      27.038   1.076  52.551  1.00  0.00     0.257 C 
HETATM   23  O1  UNL     1      26.863   1.809  53.558  1.00  0.00    -0.267 OA
HETATM   24  H1  UNL     1      26.752   0.727  50.580  1.00  0.00     0.169 HD
BRANCH  22  25
HETATM   25  C16 UNL     1      27.792  -0.098  52.882  1.00  0.00     0.049 A 
HETATM   26  C17 UNL     1      29.077  -0.089  53.330  1.00  0.00     0.020 A 
HETATM   27  C18 UNL     1      29.725  -1.303  53.596  1.00  0.00     0.020 A 
HETATM   28  C19 UNL     1      29.056  -2.503  53.400  1.00  0.00     0.116 A 
HETATM   29  N6  UNL     1      27.761  -2.497  52.948  1.00  0.00    -0.272 NA
HETATM   30  C20 UNL     1      27.160  -1.296  52.700  1.00  0.00     0.133 A 
ENDBRANCH  22  25
ENDBRANCH   1  21
TORSDOF 4
ENDMDL
MODEL 9
REMARK VINA RESULT:      -8.2      4.169     10.152
REMARK  4 active torsions:
REMARK  status: ('A' for Active; 'I' for Inactive)
REMARK       I    between atoms: C1_2  and  N1_3 
REMARK    1  A    between atoms: C1_2  and  C16_22 
REMARK    2  A    between atoms: N1_3  and  C2_4 
REMARK    3  A    between atoms: C6_8  and  N2_9 
REMARK    4  A    between atoms: N2_9  and  C7_10 
ROOT
HETATM    1  C2  UNL     1      25.649   2.529  51.025  1.00  0.00     0.037 A 
HETATM    2  C3  UNL     1      24.370   2.802  51.434  1.00  0.00     0.029 A 
HETATM    3  C4  UNL     1      23.619   3.914  51.143  1.00  0.00     0.004 A 
HETATM    4  C5  UNL     1      24.207   4.870  50.348  1.00  0.00     0.030 A 
HETATM    5  C6  UNL     1      25.520   4.658  49.886  1.00  0.00     0.051 A 
HETATM    6  C15 UNL     1      26.216   3.492  50.234  1.00  0.00     0.059 A 
ENDROOT
BRANCH   5   7
HETATM    7  N2  UNL     1      26.170   5.621  49.100  1.00  0.00    -0.188 N 
HETATM    8  H5  UNL     1      25.401   6.366  48.949  1.00  0.00     0.184 HD
BRANCH   7   9
HETATM    9  C7  UNL     1      27.220   6.221  48.402  1.00  0.00     0.727 A 
HETATM   10  N3  UNL     1      26.947   7.334  47.653  1.00  0.00    -0.073 NA
HETATM   11  C8  UNL     1      27.957   7.938  46.962  1.00  0.00     0.168 A 
HETATM   12  C9  UNL     1      29.211   7.339  47.091  1.00  0.00     0.080 A 
HETATM   13  C10 UNL     1      29.511   6.222  47.836  1.00  0.00     0.104 A 
HETATM   14  N5  UNL     1      30.198   8.041  46.312  1.00  0.00    -0.363 N 
HETATM   15  N4  UNL     1      28.475   5.685  48.485  1.00  0.00    -0.061 NA
HETATM   16  C11 UNL     1      30.730   5.488  48.073  1.00  0.00     0.034 C 
HETATM   17  C12 UNL     1      31.785   5.585  47.285  1.00  0.00     0.004 C 
HETATM   18  C13 UNL     1      32.039   6.368  46.070  1.00  0.00     0.017 C 
HETATM   19  C14 UNL     1      31.342   7.439  45.652  1.00  0.00     0.088 C 
HETATM   20  H11 UNL     1      30.046   9.085  46.237  1.00  0.00     0.165 HD
ENDBRANCH   7   9
ENDBRANCH   5   7
BRANCH   1  21
HETATM   21  N1  UNL     1      26.390   1.375  51.367  1.00  0.00    -0.323 N 
HETATM   22  C1  UNL     1      27.089   1.085  52.557  1.00  0.00     0.257 C 
HETATM   23  O1  UNL     1      27.107   1.911  53.505  1.00  0.00    -0.267 OA
HETATM   24  H1  UNL     1      26.475   0.582  50.696  1.00  0.00     0.169 HD
BRANCH  22  25
HETATM   25  C16 UNL     1      27.839  -0.095  52.874  1.00  0.00     0.049 A 
HETATM   26  C17 UNL     1      29.111  -0.095  53.357  1.00  0.00     0.020 A 
HETATM   27  C18 UNL     1      29.757  -1.313  53.606  1.00  0.00     0.020 A 
HETATM   28  C19 UNL     1      29.098  -2.510  53.359  1.00  0.00     0.116 A 
HETATM   29  N6  UNL     1      27.816  -2.495  52.872  1.00  0.00    -0.272 NA
HETATM   30  C20 UNL     1      27.217  -1.290  52.643  1.00  0.00     0.133 A 
ENDBRANCH  22  25
ENDBRANCH   1  21
TORSDOF 4
ENDMDL
