MODEL 1
REMARK VINA RESULT:      -6.7      0.000      0.000
REMARK  6 active torsions:
REMARK  status: ('A' for Active; 'I' for Inactive)
REMARK    1  A    between atoms: C3_3  and  C4_4 
REMARK    2  A    between atoms: C5_6  and  C6_7 
REMARK    3  A    between atoms: C6_7  and  S1_8 
REMARK    4  A    between atoms: S1_8  and  N1_11 
REMARK       I    between atoms: N1_11  and  C7_12 
REMARK    5  A    between atoms: C7_12  and  C8_14 
REMARK    6  A    between atoms: C8_14  and  C9_15 
ROOT
HETATM    1  N1  UNL     1      26.792   0.547  52.123  1.00  0.00    -0.254 N 
HETATM    2  C7  UNL     1      26.604   1.955  52.234  1.00  0.00     0.231 C 
HETATM    3  O3  UNL     1      26.649   2.320  53.440  1.00  0.00    -0.273 OA
HETATM    4  H9  UNL     1      26.793   0.018  51.214  1.00  0.00     0.181 HD
ENDROOT
BRANCH   1   5
HETATM    5  S1  UNL     1      27.038  -0.406  53.549  1.00  0.00     0.236 S 
HETATM    6  O1  UNL     1      27.283  -1.818  53.103  1.00  0.00    -0.205 OA
HETATM    7  O2  UNL     1      28.198   0.142  54.334  1.00  0.00    -0.205 OA
BRANCH   5   8
HETATM    8  C6  UNL     1      25.635  -0.378  54.632  1.00  0.00     0.192 C 
BRANCH   8   9
HETATM    9  C5  UNL     1      24.439  -0.468  53.769  1.00  0.00     0.013 C 
HETATM   10  C4  UNL     1      23.241  -0.953  54.050  1.00  0.00     0.030 C 
HETATM   11 CL1  UNL     1      23.157  -1.543  55.686  1.00  0.00    -0.085 Cl
BRANCH  10  12
HETATM   12  C3  UNL     1      22.172  -0.967  53.082  1.00  0.00     0.019 C 
HETATM   13  C2  UNL     1      21.037  -0.316  53.266  1.00  0.00    -0.029 C 
HETATM   14  C1  UNL     1      20.750   0.481  54.466  1.00  0.00     0.036 C 
ENDBRANCH  10  12
ENDBRANCH   8   9
ENDBRANCH   5   8
ENDBRANCH   1   5
BRANCH   2  15
HETATM   15  C8  UNL     1      26.406   2.642  50.956  1.00  0.00     0.116 C 
BRANCH  15  16
HETATM   16  C9  UNL     1      25.142   3.460  50.880  1.00  0.00     0.041 A 
HETATM   17  C10 UNL     1      24.896   3.755  49.438  1.00  0.00    -0.016 A 
HETATM   18  C11 UNL     1      23.808   3.137  48.992  1.00  0.00     0.015 A 
HETATM   19  C12 UNL     1      23.234   2.372  50.104  1.00  0.00     0.007 A 
HETATM   20 BR1  UNL     1      21.654   1.319  49.931  1.00  0.00    -0.051 Br
HETATM   21  C13 UNL     1      23.989   2.553  51.178  1.00  0.00     0.001 A 
ENDBRANCH  15  16
ENDBRANCH   2  15
TORSDOF 6
ENDMDL
MODEL 2
REMARK VINA RESULT:      -6.7      4.716      6.959
REMARK  6 active torsions:
REMARK  status: ('A' for Active; 'I' for Inactive)
REMARK    1  A    between atoms: C3_3  and  C4_4 
REMARK    2  A    between atoms: C5_6  and  C6_7 
REMARK    3  A    between atoms: C6_7  and  S1_8 
REMARK    4  A    between atoms: S1_8  and  N1_11 
REMARK       I    between atoms: N1_11  and  C7_12 
REMARK    5  A    between atoms: C7_12  and  C8_14 
REMARK    6  A    between atoms: C8_14  and  C9_15 
ROOT
HETATM    1  N1  UNL     1      24.588   3.896  52.509  1.00  0.00    -0.254 N 
HETATM    2  C7  UNL     1      24.509   2.597  53.089  1.00  0.00     0.231 C 
HETATM    3  O3  UNL     1      23.355   2.110  52.940  1.00  0.00    -0.273 OA
HETATM    4  H9  UNL     1      25.453   4.496  52.512  1.00  0.00     0.181 HD
ENDROOT
BRANCH   1   5
HETATM    5  S1  UNL     1      23.198   4.584  51.738  1.00  0.00     0.236 S 
HETATM    6  O1  UNL     1      22.799   3.653  50.629  1.00  0.00    -0.205 OA
HETATM    7  O2  UNL     1      22.094   4.761  52.744  1.00  0.00    -0.205 OA
BRANCH   5   8
HETATM    8  C6  UNL     1      23.524   6.186  51.057  1.00  0.00     0.192 C 
BRANCH   8   9
HETATM    9  C5  UNL     1      24.864   6.112  50.437  1.00  0.00     0.013 C 
HETATM   10  C4  UNL     1      25.188   5.957  49.165  1.00  0.00     0.030 C 
HETATM   11 CL1  UNL     1      23.776   5.830  48.155  1.00  0.00    -0.085 Cl
BRANCH  10  12
HETATM   12  C3  UNL     1      26.560   5.904  48.723  1.00  0.00     0.019 C 
HETATM   13  C2  UNL     1      27.296   4.811  48.818  1.00  0.00    -0.029 C 
HETATM   14  C1  UNL     1      26.798   3.549  49.380  1.00  0.00     0.036 C 
ENDBRANCH  10  12
ENDBRANCH   8   9
ENDBRANCH   5   8
ENDBRANCH   1   5
BRANCH   2  15
HETATM   15  C8  UNL     1      25.752   2.133  53.709  1.00  0.00     0.116 C 
BRANCH  15  16
HETATM   16  C9  UNL     1      26.886   1.920  52.739  1.00  0.00     0.041 A 
HETATM   17  C10 UNL     1      28.128   2.415  53.401  1.00  0.00    -0.016 A 
HETATM   18  C11 UNL     1      28.968   1.421  53.670  1.00  0.00     0.015 A 
HETATM   19  C12 UNL     1      28.353   0.172  53.209  1.00  0.00     0.007 A 
HETATM   20 BR1  UNL     1      29.199  -1.527  53.388  1.00  0.00    -0.051 Br
HETATM   21  C13 UNL     1      27.171   0.452  52.680  1.00  0.00     0.001 A 
ENDBRANCH  15  16
ENDBRANCH   2  15
TORSDOF 6
ENDMDL
MODEL 3
REMARK VINA RESULT:      -6.5      3.798      5.163
REMARK  6 active torsions:
REMARK  status: ('A' for Active; 'I' for Inactive)
REMARK    1  A    between atoms: C3_3  and  C4_4 
REMARK    2  A    between atoms: C5_6  and  C6_7 
REMARK    3  A    between atoms: C6_7  and  S1_8 
REMARK    4  A    between atoms: S1_8  and  N1_11 
REMARK       I    between atoms: N1_11  and  C7_12 
REMARK    5  A    between atoms: C7_12  and  C8_14 
REMARK    6  A    between atoms: C8_14  and  C9_15 
ROOT
HETATM    1  N1  UNL     1      24.643   3.624  52.045  1.00  0.00    -0.254 N 
HETATM    2  C7  UNL     1      25.453   2.933  51.098  1.00  0.00     0.231 C 
HETATM    3  O3  UNL     1      24.893   2.900  49.969  1.00  0.00    -0.273 OA
HETATM    4  H9  UNL     1      24.905   3.776  53.052  1.00  0.00     0.181 HD
ENDROOT
BRANCH   1   5
HETATM    5  S1  UNL     1      23.113   4.275  51.560  1.00  0.00     0.236 S 
HETATM    6  O1  UNL     1      22.552   5.019  52.738  1.00  0.00    -0.205 OA
HETATM    7  O2  UNL     1      23.296   5.173  50.368  1.00  0.00    -0.205 OA
BRANCH   5   8
HETATM    8  C6  UNL     1      21.965   3.016  51.073  1.00  0.00     0.192 C 
BRANCH   8   9
HETATM    9  C5  UNL     1      21.522   2.351  52.316  1.00  0.00     0.013 C 
HETATM   10  C4  UNL     1      21.158   1.094  52.506  1.00  0.00     0.030 C 
HETATM   11 CL1  UNL     1      21.244   0.172  51.032  1.00  0.00    -0.085 Cl
BRANCH  10  12
HETATM   12  C3  UNL     1      20.748   0.600  53.798  1.00  0.00     0.019 C 
HETATM   13  C2  UNL     1      21.499  -0.212  54.521  1.00  0.00    -0.029 C 
HETATM   14  C1  UNL     1      22.817  -0.691  54.087  1.00  0.00     0.036 C 
ENDBRANCH  10  12
ENDBRANCH   8   9
ENDBRANCH   5   8
ENDBRANCH   1   5
BRANCH   2  15
HETATM   15  C8  UNL     1      26.719   2.433  51.636  1.00  0.00     0.116 C 
BRANCH  15  16
HETATM   16  C9  UNL     1      26.574   1.555  52.853  1.00  0.00     0.041 A 
HETATM   17  C10 UNL     1      26.066   0.234  52.383  1.00  0.00    -0.016 A 
HETATM   18  C11 UNL     1      26.974  -0.723  52.545  1.00  0.00     0.015 A 
HETATM   19  C12 UNL     1      28.170  -0.117  53.138  1.00  0.00     0.007 A 
HETATM   20 BR1  UNL     1      29.741  -1.114  53.552  1.00  0.00    -0.051 Br
HETATM   21  C13 UNL     1      27.946   1.177  53.315  1.00  0.00     0.001 A 
ENDBRANCH  15  16
ENDBRANCH   2  15
TORSDOF 6
ENDMDL
MODEL 4
REMARK VINA RESULT:      -6.3      4.011      6.142
REMARK  6 active torsions:
REMARK  status: ('A' for Active; 'I' for Inactive)
REMARK    1  A    between atoms: C3_3  and  C4_4 
REMARK    2  A    between atoms: C5_6  and  C6_7 
REMARK    3  A    between atoms: C6_7  and  S1_8 
REMARK    4  A    between atoms: S1_8  and  N1_11 
REMARK       I    between atoms: N1_11  and  C7_12 
REMARK    5  A    between atoms: C7_12  and  C8_14 
REMARK    6  A    between atoms: C8_14  and  C9_15 
ROOT
HETATM    1  N1  UNL     1      23.085   0.863  52.979  1.00  0.00    -0.254 N 
HETATM    2  C7  UNL     1      23.412  -0.458  53.402  1.00  0.00     0.231 C 
HETATM    3  O3  UNL     1      22.431  -1.234  53.242  1.00  0.00    -0.273 OA
HETATM    4  H9  UNL     1      23.747   1.680  53.018  1.00  0.00     0.181 HD
ENDROOT
BRANCH   1   5
HETATM    5  S1  UNL     1      21.506   1.204  52.352  1.00  0.00     0.236 S 
HETATM    6  O1  UNL     1      21.317   0.346  51.135  1.00  0.00    -0.205 OA
HETATM    7  O2  UNL     1      20.469   0.919  53.404  1.00  0.00    -0.205 OA
BRANCH   5   8
HETATM    8  C6  UNL     1      21.311   2.904  51.895  1.00  0.00     0.192 C 
BRANCH   8   9
HETATM    9  C5  UNL     1      22.276   3.158  50.805  1.00  0.00     0.013 C 
HETATM   10  C4  UNL     1      23.383   3.882  50.821  1.00  0.00     0.030 C 
HETATM   11 CL1  UNL     1      23.659   4.595  52.385  1.00  0.00    -0.085 Cl
BRANCH  10  12
HETATM   12  C3  UNL     1      24.221   4.029  49.656  1.00  0.00     0.019 C 
HETATM   13  C2  UNL     1      25.450   3.547  49.599  1.00  0.00    -0.029 C 
HETATM   14  C1  UNL     1      26.084   2.819  50.705  1.00  0.00     0.036 C 
ENDBRANCH  10  12
ENDBRANCH   8   9
ENDBRANCH   5   8
ENDBRANCH   1   5
BRANCH   2  15
HETATM   15  C8  UNL     1      24.776  -0.611  53.910  1.00  0.00     0.116 C 
BRANCH  15  16
HETATM   16  C9  UNL     1      25.816   0.159  53.138  1.00  0.00     0.041 A 
HETATM   17  C10 UNL     1      26.477   1.090  54.099  1.00  0.00    -0.016 A 
HETATM   18  C11 UNL     1      27.747   0.756  54.307  1.00  0.00     0.015 A 
HETATM   19  C12 UNL     1      28.041  -0.432  53.499  1.00  0.00     0.007 A 
HETATM   20 BR1  UNL     1      29.752  -1.272  53.477  1.00  0.00    -0.051 Br
HETATM   21  C13 UNL     1      26.947  -0.773  52.834  1.00  0.00     0.001 A 
ENDBRANCH  15  16
ENDBRANCH   2  15
TORSDOF 6
ENDMDL
MODEL 5
REMARK VINA RESULT:      -6.3      2.274      2.703
REMARK  6 active torsions:
REMARK  status: ('A' for Active; 'I' for Inactive)
REMARK    1  A    between atoms: C3_3  and  C4_4 
REMARK    2  A    between atoms: C5_6  and  C6_7 
REMARK    3  A    between atoms: C6_7  and  S1_8 
REMARK    4  A    between atoms: S1_8  and  N1_11 
REMARK       I    between atoms: N1_11  and  C7_12 
REMARK    5  A    between atoms: C7_12  and  C8_14 
REMARK    6  A    between atoms: C8_14  and  C9_15 
ROOT
HETATM    1  N1  UNL     1      26.050   1.130  53.407  1.00  0.00    -0.254 N 
HETATM    2  C7  UNL     1      26.529   1.137  52.065  1.00  0.00     0.231 C 
HETATM    3  O3  UNL     1      26.683  -0.040  51.638  1.00  0.00    -0.273 OA
HETATM    4  H9  UNL     1      25.848   1.995  53.970  1.00  0.00     0.181 HD
ENDROOT
BRANCH   1   5
HETATM    5  S1  UNL     1      25.767  -0.377  54.214  1.00  0.00     0.236 S 
HETATM    6  O1  UNL     1      26.419  -1.451  53.392  1.00  0.00    -0.205 OA
HETATM    7  O2  UNL     1      26.329  -0.321  55.608  1.00  0.00    -0.205 OA
BRANCH   5   8
HETATM    8  C6  UNL     1      24.042  -0.744  54.378  1.00  0.00     0.192 C 
BRANCH   8   9
HETATM    9  C5  UNL     1      23.402  -0.317  53.117  1.00  0.00     0.013 C 
HETATM   10  C4  UNL     1      22.149   0.046  52.897  1.00  0.00     0.030 C 
HETATM   11 CL1  UNL     1      21.198  -0.020  54.353  1.00  0.00    -0.085 Cl
BRANCH  10  12
HETATM   12  C3  UNL     1      21.682   0.438  51.589  1.00  0.00     0.019 C 
HETATM   13  C2  UNL     1      21.473   1.700  51.258  1.00  0.00    -0.029 C 
HETATM   14  C1  UNL     1      21.692   2.823  52.178  1.00  0.00     0.036 C 
ENDBRANCH  10  12
ENDBRANCH   8   9
ENDBRANCH   5   8
ENDBRANCH   1   5
BRANCH   2  15
HETATM   15  C8  UNL     1      26.726   2.473  51.500  1.00  0.00     0.116 C 
BRANCH  15  16
HETATM   16  C9  UNL     1      26.158   2.651  50.115  1.00  0.00     0.041 A 
HETATM   17  C10 UNL     1      24.781   3.204  50.273  1.00  0.00    -0.016 A 
HETATM   18  C11 UNL     1      24.700   4.449  49.814  1.00  0.00     0.015 A 
HETATM   19  C12 UNL     1      26.022   4.833  49.310  1.00  0.00     0.007 A 
HETATM   20 BR1  UNL     1      26.385   6.544  48.552  1.00  0.00    -0.051 Br
HETATM   21  C13 UNL     1      26.853   3.814  49.479  1.00  0.00     0.001 A 
ENDBRANCH  15  16
ENDBRANCH   2  15
TORSDOF 6
ENDMDL
MODEL 6
REMARK VINA RESULT:      -6.2      4.547      6.963
REMARK  6 active torsions:
REMARK  status: ('A' for Active; 'I' for Inactive)
REMARK    1  A    between atoms: C3_3  and  C4_4 
REMARK    2  A    between atoms: C5_6  and  C6_7 
REMARK    3  A    between atoms: C6_7  and  S1_8 
REMARK    4  A    between atoms: S1_8  and  N1_11 
REMARK       I    between atoms: N1_11  and  C7_12 
REMARK    5  A    between atoms: C7_12  and  C8_14 
REMARK    6  A    between atoms: C8_14  and  C9_15 
ROOT
HETATM    1  N1  UNL     1      22.766   3.419  50.617  1.00  0.00    -0.254 N 
HETATM    2  C7  UNL     1      23.059   3.785  51.963  1.00  0.00     0.231 C 
HETATM    3  O3  UNL     1      22.566   4.913  52.238  1.00  0.00    -0.273 OA
HETATM    4  H9  UNL     1      23.075   2.521  50.166  1.00  0.00     0.181 HD
ENDROOT
BRANCH   1   5
HETATM    5  S1  UNL     1      21.846   4.489  49.613  1.00  0.00     0.236 S 
HETATM    6  O1  UNL     1      21.578   3.767  48.323  1.00  0.00    -0.205 OA
HETATM    7  O2  UNL     1      20.572   4.874  50.312  1.00  0.00    -0.205 OA
BRANCH   5   8
HETATM    8  C6  UNL     1      22.707   5.997  49.262  1.00  0.00     0.192 C 
BRANCH   8   9
HETATM    9  C5  UNL     1      24.058   5.610  48.804  1.00  0.00     0.013 C 
HETATM   10  C4  UNL     1      25.234   5.889  49.341  1.00  0.00     0.030 C 
HETATM   11 CL1  UNL     1      25.067   6.848  50.784  1.00  0.00    -0.085 Cl
BRANCH  10  12
HETATM   12  C3  UNL     1      26.472   5.430  48.760  1.00  0.00     0.019 C 
HETATM   13  C2  UNL     1      27.052   4.299  49.122  1.00  0.00    -0.029 C 
HETATM   14  C1  UNL     1      26.501   3.402  50.146  1.00  0.00     0.036 C 
ENDBRANCH  10  12
ENDBRANCH   8   9
ENDBRANCH   5   8
ENDBRANCH   1   5
BRANCH   2  15
HETATM   15  C8  UNL     1      23.843   2.794  52.703  1.00  0.00     0.116 C 
BRANCH  15  16
HETATM   16  C9  UNL     1      23.752   1.394  52.154  1.00  0.00     0.041 A 
HETATM   17  C10 UNL     1      24.867   0.610  52.760  1.00  0.00    -0.016 A 
HETATM   18  C11 UNL     1      24.413  -0.329  53.584  1.00  0.00     0.015 A 
HETATM   19  C12 UNL     1      22.948  -0.249  53.598  1.00  0.00     0.007 A 
HETATM   20 BR1  UNL     1      21.857  -1.409  54.645  1.00  0.00    -0.051 Br
HETATM   21  C13 UNL     1      22.570   0.728  52.786  1.00  0.00     0.001 A 
ENDBRANCH  15  16
ENDBRANCH   2  15
TORSDOF 6
ENDMDL
MODEL 7
REMARK VINA RESULT:      -6.1      2.523      5.090
REMARK  6 active torsions:
REMARK  status: ('A' for Active; 'I' for Inactive)
REMARK    1  A    between atoms: C3_3  and  C4_4 
REMARK    2  A    between atoms: C5_6  and  C6_7 
REMARK    3  A    between atoms: C6_7  and  S1_8 
REMARK    4  A    between atoms: S1_8  and  N1_11 
REMARK       I    between atoms: N1_11  and  C7_12 
REMARK    5  A    between atoms: C7_12  and  C8_14 
REMARK    6  A    between atoms: C8_14  and  C9_15 
ROOT
HETATM    1  N1  UNL     1      24.776   0.763  52.632  1.00  0.00    -0.254 N 
HETATM    2  C7  UNL     1      24.426  -0.335  53.471  1.00  0.00     0.231 C 
HETATM    3  O3  UNL     1      25.361  -0.600  54.275  1.00  0.00    -0.273 OA
HETATM    4  H9  UNL     1      24.153   1.161  51.884  1.00  0.00     0.181 HD
ENDROOT
BRANCH   1   5
HETATM    5  S1  UNL     1      26.321   1.527  52.811  1.00  0.00     0.236 S 
HETATM    6  O1  UNL     1      26.363   2.126  54.187  1.00  0.00    -0.205 OA
HETATM    7  O2  UNL     1      27.416   0.517  52.606  1.00  0.00    -0.205 OA
BRANCH   5   8
HETATM    8  C6  UNL     1      26.584   2.809  51.616  1.00  0.00     0.192 C 
BRANCH   8   9
HETATM    9  C5  UNL     1      25.612   2.574  50.528  1.00  0.00     0.013 C 
HETATM   10  C4  UNL     1      24.524   3.258  50.218  1.00  0.00     0.030 C 
HETATM   11 CL1  UNL     1      24.286   4.605  51.295  1.00  0.00    -0.085 Cl
BRANCH  10  12
HETATM   12  C3  UNL     1      23.673   2.889  49.113  1.00  0.00     0.019 C 
HETATM   13  C2  UNL     1      22.562   2.193  49.272  1.00  0.00    -0.029 C 
HETATM   14  C1  UNL     1      22.082   1.727  50.579  1.00  0.00     0.036 C 
ENDBRANCH  10  12
ENDBRANCH   8   9
ENDBRANCH   5   8
ENDBRANCH   1   5
BRANCH   2  15
HETATM   15  C8  UNL     1      23.095  -0.890  53.217  1.00  0.00     0.116 C 
BRANCH  15  16
HETATM   16  C9  UNL     1      22.081  -0.586  54.290  1.00  0.00     0.041 A 
HETATM   17  C10 UNL     1      21.376   0.665  53.886  1.00  0.00    -0.016 A 
HETATM   18  C11 UNL     1      20.101   0.432  53.590  1.00  0.00     0.015 A 
HETATM   19  C12 UNL     1      19.849  -1.001  53.771  1.00  0.00     0.007 A 
HETATM   20 BR1  UNL     1      18.146  -1.800  53.460  1.00  0.00    -0.051 Br
HETATM   21  C13 UNL     1      20.971  -1.582  54.169  1.00  0.00     0.001 A 
ENDBRANCH  15  16
ENDBRANCH   2  15
TORSDOF 6
ENDMDL
MODEL 8
REMARK VINA RESULT:      -6.1      4.337      5.997
REMARK  6 active torsions:
REMARK  status: ('A' for Active; 'I' for Inactive)
REMARK    1  A    between atoms: C3_3  and  C4_4 
REMARK    2  A    between atoms: C5_6  and  C6_7 
REMARK    3  A    between atoms: C6_7  and  S1_8 
REMARK    4  A    between atoms: S1_8  and  N1_11 
REMARK       I    between atoms: N1_11  and  C7_12 
REMARK    5  A    between atoms: C7_12  and  C8_14 
REMARK    6  A    between atoms: C8_14  and  C9_15 
ROOT
HETATM    1  N1  UNL     1      25.060   3.990  51.134  1.00  0.00    -0.254 N 
HETATM    2  C7  UNL     1      24.083   3.888  52.166  1.00  0.00     0.231 C 
HETATM    3  O3  UNL     1      23.262   4.844  52.102  1.00  0.00    -0.273 OA
HETATM    4  H9  UNL     1      25.846   3.305  50.990  1.00  0.00     0.181 HD
ENDROOT
BRANCH   1   5
HETATM    5  S1  UNL     1      25.000   5.312  50.016  1.00  0.00     0.236 S 
HETATM    6  O1  UNL     1      24.889   6.573  50.824  1.00  0.00    -0.205 OA
HETATM    7  O2  UNL     1      26.233   5.307  49.155  1.00  0.00    -0.205 OA
BRANCH   5   8
HETATM    8  C6  UNL     1      23.614   5.207  48.917  1.00  0.00     0.192 C 
BRANCH   8   9
HETATM    9  C5  UNL     1      23.330   3.768  48.739  1.00  0.00     0.013 C 
HETATM   10  C4  UNL     1      22.383   3.187  48.023  1.00  0.00     0.030 C 
HETATM   11 CL1  UNL     1      21.381   4.358  47.214  1.00  0.00    -0.085 Cl
BRANCH  10  12
HETATM   12  C3  UNL     1      22.241   1.752  47.956  1.00  0.00     0.019 C 
HETATM   13  C2  UNL     1      21.435   1.079  48.758  1.00  0.00    -0.029 C 
HETATM   14  C1  UNL     1      20.609   1.716  49.791  1.00  0.00     0.036 C 
ENDBRANCH  10  12
ENDBRANCH   8   9
ENDBRANCH   5   8
ENDBRANCH   1   5
BRANCH   2  15
HETATM   15  C8  UNL     1      24.246   2.726  53.042  1.00  0.00     0.116 C 
BRANCH  15  16
HETATM   16  C9  UNL     1      23.995   1.401  52.369  1.00  0.00     0.041 A 
HETATM   17  C10 UNL     1      24.934   0.414  52.978  1.00  0.00    -0.016 A 
HETATM   18  C11 UNL     1      24.285  -0.504  53.686  1.00  0.00     0.015 A 
HETATM   19  C12 UNL     1      22.852  -0.205  53.610  1.00  0.00     0.007 A 
HETATM   20 BR1  UNL     1      21.525  -1.263  54.479  1.00  0.00    -0.051 Br
HETATM   21  C13 UNL     1      22.684   0.876  52.862  1.00  0.00     0.001 A 
ENDBRANCH  15  16
ENDBRANCH   2  15
TORSDOF 6
ENDMDL
MODEL 9
REMARK VINA RESULT:      -6.0      4.048      5.293
REMARK  6 active torsions:
REMARK  status: ('A' for Active; 'I' for Inactive)
REMARK    1  A    between atoms: C3_3  and  C4_4 
REMARK    2  A    between atoms: C5_6  and  C6_7 
REMARK    3  A    between atoms: C6_7  and  S1_8 
REMARK    4  A    between atoms: S1_8  and  N1_11 
REMARK       I    between atoms: N1_11  and  C7_12 
REMARK    5  A    between atoms: C7_12  and  C8_14 
REMARK    6  A    between atoms: C8_14  and  C9_15 
ROOT
HETATM    1  N1  UNL     1      23.078   1.673  50.329  1.00  0.00    -0.254 N 
HETATM    2  C7  UNL     1      23.444   2.740  51.200  1.00  0.00     0.231 C 
HETATM    3  O3  UNL     1      22.522   3.598  51.270  1.00  0.00    -0.273 OA
HETATM    4  H9  UNL     1      23.689   0.843  50.117  1.00  0.00     0.181 HD
ENDROOT
BRANCH   1   5
HETATM    5  S1  UNL     1      21.535   1.693  49.541  1.00  0.00     0.236 S 
HETATM    6  O1  UNL     1      21.134   3.132  49.385  1.00  0.00    -0.205 OA
HETATM    7  O2  UNL     1      21.633   0.993  48.214  1.00  0.00    -0.205 OA
BRANCH   5   8
HETATM    8  C6  UNL     1      20.288   0.844  50.471  1.00  0.00     0.192 C 
BRANCH   8   9
HETATM    9  C5  UNL     1      20.731   0.864  51.880  1.00  0.00     0.013 C 
HETATM   10  C4  UNL     1      20.162   0.321  52.943  1.00  0.00     0.030 C 
HETATM   11 CL1  UNL     1      18.691  -0.512  52.525  1.00  0.00    -0.085 Cl
BRANCH  10  12
HETATM   12  C3  UNL     1      20.731   0.436  54.263  1.00  0.00     0.019 C 
HETATM   13  C2  UNL     1      21.432  -0.534  54.823  1.00  0.00    -0.029 C 
HETATM   14  C1  UNL     1      21.699  -1.819  54.164  1.00  0.00     0.036 C 
ENDBRANCH  10  12
ENDBRANCH   8   9
ENDBRANCH   5   8
ENDBRANCH   1   5
BRANCH   2  15
HETATM   15  C8  UNL     1      24.772   2.602  51.801  1.00  0.00     0.116 C 
BRANCH  15  16
HETATM   16  C9  UNL     1      24.758   2.150  53.239  1.00  0.00     0.041 A 
HETATM   17  C10 UNL     1      24.402   0.702  53.241  1.00  0.00    -0.016 A 
HETATM   18  C11 UNL     1      25.421  -0.051  53.643  1.00  0.00     0.015 A 
HETATM   19  C12 UNL     1      26.549   0.837  53.943  1.00  0.00     0.007 A 
HETATM   20 BR1  UNL     1      28.236   0.196  54.558  1.00  0.00    -0.051 Br
HETATM   21  C13 UNL     1      26.176   2.088  53.715  1.00  0.00     0.001 A 
ENDBRANCH  15  16
ENDBRANCH   2  15
TORSDOF 6
ENDMDL
