MODEL 1
REMARK VINA RESULT:      -7.5      0.000      0.000
REMARK  8 active torsions:
REMARK  status: ('A' for Active; 'I' for Inactive)
REMARK    1  A    between atoms: C2_2  and  N1_3 
REMARK    2  A    between atoms: N1_3  and  C4_5 
REMARK    3  A    between atoms: C4_5  and  C5_6 
REMARK    4  A    between atoms: C5_6  and  C6_7 
REMARK    5  A    between atoms: C7_8  and  N2_9 
REMARK    6  A    between atoms: N2_9  and  C8_10 
REMARK    7  A    between atoms: C10_12  and  N3_13 
REMARK    8  A    between atoms: N3_13  and  C11_14 
ROOT
HETATM    1  C8  UNL     1      23.362   4.389  51.503  1.00  0.00     0.153 C 
HETATM    2  C9  UNL     1      24.049   3.190  52.006  1.00  0.00     0.033 C 
HETATM    3  C10 UNL     1      25.103   2.489  51.604  1.00  0.00     0.032 C 
HETATM    4  C17 UNL     1      25.940   2.746  50.452  1.00  0.00     0.046 C 
HETATM    5  C18 UNL     1      26.290   3.862  49.832  1.00  0.00     0.089 C 
HETATM    6  N4  UNL     1      25.926   5.202  50.134  1.00  0.00    -0.374 N 
HETATM    7  P1  UNL     1      24.362   5.722  50.811  1.00  0.00    -0.003 P 
HETATM    8  H23 UNL     1      26.640   5.914  49.936  1.00  0.00     0.163 HD
HETATM    9  H24 UNL     1      23.638   6.428  49.748  1.00  0.00     0.082 HD
ENDROOT
BRANCH   1  10
HETATM   10  N2  UNL     1      22.241   4.100  50.620  1.00  0.00    -0.376 N 
HETATM   11  H13 UNL     1      21.422   4.732  50.759  1.00  0.00     0.160 HD
BRANCH  10  12
HETATM   12  C7  UNL     1      22.228   3.046  49.632  1.00  0.00     0.035 A 
HETATM   13  C6  UNL     1      21.811   1.795  49.400  1.00  0.00    -0.030 A 
HETATM   14  C20 UNL     1      22.400   1.918  48.073  1.00  0.00     0.012 A 
HETATM   15  C19 UNL     1      22.807   3.144  48.308  1.00  0.00     0.030 A 
BRANCH  13  16
HETATM   16  C5  UNL     1      21.072   0.898  50.259  1.00  0.00     0.060 C 
BRANCH  16  17
HETATM   17  C4  UNL     1      21.705   0.362  51.478  1.00  0.00     0.121 C 
BRANCH  17  18
HETATM   18  N1  UNL     1      21.489   0.903  52.742  1.00  0.00    -0.417 N 
HETATM   19  C3  UNL     1      20.363   1.827  52.811  1.00  0.00     0.143 C 
BRANCH  18  20
HETATM   20  C2  UNL     1      21.659   0.149  53.924  1.00  0.00     0.112 C 
HETATM   21  C1  UNL     1      22.937  -0.659  54.007  1.00  0.00     0.026 C 
ENDBRANCH  18  20
ENDBRANCH  17  18
ENDBRANCH  16  17
ENDBRANCH  13  16
ENDBRANCH  10  12
ENDBRANCH   1  10
BRANCH   3  22
HETATM   22  N3  UNL     1      25.524   1.328  52.349  1.00  0.00    -0.355 N 
HETATM   23  H16 UNL     1      25.033   0.435  52.644  1.00  0.00     0.166 HD
BRANCH  22  24
HETATM   24  C11 UNL     1      26.823   1.160  52.879  1.00  0.00     0.054 A 
HETATM   25  C12 UNL     1      27.568   2.225  53.366  1.00  0.00     0.031 A 
HETATM   26  C13 UNL     1      28.848   2.125  53.899  1.00  0.00     0.002 A 
HETATM   27  C14 UNL     1      29.429   0.877  53.951  1.00  0.00     0.002 A 
HETATM   28  C15 UNL     1      28.739  -0.221  53.483  1.00  0.00     0.026 A 
HETATM   29  C16 UNL     1      27.451  -0.068  52.956  1.00  0.00     0.060 A 
HETATM   30 CL1  UNL     1      26.609  -1.508  52.369  1.00  0.00    -0.082 Cl
ENDBRANCH  22  24
ENDBRANCH   3  22
TORSDOF 8
ENDMDL
MODEL 2
REMARK VINA RESULT:      -7.2      2.247      5.596
REMARK  8 active torsions:
REMARK  status: ('A' for Active; 'I' for Inactive)
REMARK    1  A    between atoms: C2_2  and  N1_3 
REMARK    2  A    between atoms: N1_3  and  C4_5 
REMARK    3  A    between atoms: C4_5  and  C5_6 
REMARK    4  A    between atoms: C5_6  and  C6_7 
REMARK    5  A    between atoms: C7_8  and  N2_9 
REMARK    6  A    between atoms: N2_9  and  C8_10 
REMARK    7  A    between atoms: C10_12  and  N3_13 
REMARK    8  A    between atoms: N3_13  and  C11_14 
ROOT
HETATM    1  C8  UNL     1      23.461   2.957  49.288  1.00  0.00     0.153 C 
HETATM    2  C9  UNL     1      22.659   1.889  49.903  1.00  0.00     0.033 C 
HETATM    3  C10 UNL     1      21.612   1.870  50.719  1.00  0.00     0.032 C 
HETATM    4  C17 UNL     1      20.909   3.008  51.270  1.00  0.00     0.046 C 
HETATM    5  C18 UNL     1      20.686   4.230  50.812  1.00  0.00     0.089 C 
HETATM    6  N4  UNL     1      21.096   4.809  49.581  1.00  0.00    -0.374 N 
HETATM    7  P1  UNL     1      22.614   4.445  48.719  1.00  0.00    -0.003 P 
HETATM    8  H23 UNL     1      20.449   5.493  49.171  1.00  0.00     0.163 HD
HETATM    9  H24 UNL     1      23.479   5.624  48.840  1.00  0.00     0.082 HD
ENDROOT
BRANCH   1  10
HETATM   10  N2  UNL     1      24.645   3.321  50.052  1.00  0.00    -0.376 N 
HETATM   11  H13 UNL     1      25.330   3.900  49.519  1.00  0.00     0.160 HD
BRANCH  10  12
HETATM   12  C7  UNL     1      24.884   2.936  51.424  1.00  0.00     0.035 A 
HETATM   13  C6  UNL     1      25.589   2.103  52.200  1.00  0.00    -0.030 A 
HETATM   14  C20 UNL     1      24.942   2.731  53.344  1.00  0.00     0.012 A 
HETATM   15  C19 UNL     1      24.253   3.544  52.578  1.00  0.00     0.030 A 
BRANCH  13  16
HETATM   16  C5  UNL     1      26.555   1.095  51.826  1.00  0.00     0.060 C 
BRANCH  16  17
HETATM   17  C4  UNL     1      26.906   0.025  52.777  1.00  0.00     0.121 C 
BRANCH  17  18
HETATM   18  N1  UNL     1      27.422   0.280  54.044  1.00  0.00    -0.417 N 
HETATM   19  C3  UNL     1      26.470   0.068  55.129  1.00  0.00     0.143 C 
BRANCH  18  20
HETATM   20  C2  UNL     1      28.748  -0.051  54.399  1.00  0.00     0.112 C 
HETATM   21  C1  UNL     1      29.512  -0.876  53.384  1.00  0.00     0.026 C 
ENDBRANCH  18  20
ENDBRANCH  17  18
ENDBRANCH  16  17
ENDBRANCH  13  16
ENDBRANCH  10  12
ENDBRANCH   1  10
BRANCH   3  22
HETATM   22  N3  UNL     1      21.052   0.611  51.146  1.00  0.00    -0.355 N 
HETATM   23  H16 UNL     1      20.350  -0.056  50.713  1.00  0.00     0.166 HD
BRANCH  22  24
HETATM   24  C11 UNL     1      21.382  -0.027  52.362  1.00  0.00     0.054 A 
HETATM   25  C12 UNL     1      22.688  -0.111  52.824  1.00  0.00     0.031 A 
HETATM   26  C13 UNL     1      23.077  -0.725  54.009  1.00  0.00     0.002 A 
HETATM   27  C14 UNL     1      22.097  -1.297  54.790  1.00  0.00     0.002 A 
HETATM   28  C15 UNL     1      20.780  -1.247  54.385  1.00  0.00     0.026 A 
HETATM   29  C16 UNL     1      20.440  -0.616  53.183  1.00  0.00     0.060 A 
HETATM   30 CL1  UNL     1      18.736  -0.579  52.708  1.00  0.00    -0.082 Cl
ENDBRANCH  22  24
ENDBRANCH   3  22
TORSDOF 8
ENDMDL
MODEL 3
REMARK VINA RESULT:      -7.2      1.458      1.894
REMARK  8 active torsions:
REMARK  status: ('A' for Active; 'I' for Inactive)
REMARK    1  A    between atoms: C2_2  and  N1_3 
REMARK    2  A    between atoms: N1_3  and  C4_5 
REMARK    3  A    between atoms: C4_5  and  C5_6 
REMARK    4  A    between atoms: C5_6  and  C6_7 
REMARK    5  A    between atoms: C7_8  and  N2_9 
REMARK    6  A    between atoms: N2_9  and  C8_10 
REMARK    7  A    between atoms: C10_12  and  N3_13 
REMARK    8  A    between atoms: N3_13  and  C11_14 
ROOT
HETATM    1  C8  UNL     1      23.652   4.321  51.604  1.00  0.00     0.153 C 
HETATM    2  C9  UNL     1      24.626   3.222  51.670  1.00  0.00     0.033 C 
HETATM    3  C10 UNL     1      25.691   2.883  50.952  1.00  0.00     0.032 C 
HETATM    4  C17 UNL     1      26.230   3.576  49.803  1.00  0.00     0.046 C 
HETATM    5  C18 UNL     1      26.248   4.854  49.455  1.00  0.00     0.089 C 
HETATM    6  N4  UNL     1      25.716   5.974  50.148  1.00  0.00    -0.374 N 
HETATM    7  P1  UNL     1      24.244   5.965  51.153  1.00  0.00    -0.003 P 
HETATM    8  H23 UNL     1      26.237   6.853  50.045  1.00  0.00     0.163 HD
HETATM    9  H24 UNL     1      23.214   6.717  50.428  1.00  0.00     0.082 HD
ENDROOT
BRANCH   1  10
HETATM   10  N2  UNL     1      22.452   4.000  50.845  1.00  0.00    -0.376 N 
HETATM   11  H13 UNL     1      21.612   4.551  51.131  1.00  0.00     0.160 HD
BRANCH  10  12
HETATM   12  C7  UNL     1      22.391   3.019  49.786  1.00  0.00     0.035 A 
HETATM   13  C6  UNL     1      22.046   1.754  49.511  1.00  0.00    -0.030 A 
HETATM   14  C20 UNL     1      22.443   2.018  48.134  1.00  0.00     0.012 A 
HETATM   15  C19 UNL     1      22.779   3.257  48.411  1.00  0.00     0.030 A 
BRANCH  13  16
HETATM   16  C5  UNL     1      21.503   0.739  50.385  1.00  0.00     0.060 C 
BRANCH  16  17
HETATM   17  C4  UNL     1      20.464   1.095  51.368  1.00  0.00     0.121 C 
BRANCH  17  18
HETATM   18  N1  UNL     1      20.455   0.602  52.669  1.00  0.00    -0.417 N 
HETATM   19  C3  UNL     1      19.386  -0.354  52.937  1.00  0.00     0.143 C 
BRANCH  18  20
HETATM   20  C2  UNL     1      21.643   0.317  53.377  1.00  0.00     0.112 C 
HETATM   21  C1  UNL     1      21.457  -0.332  54.734  1.00  0.00     0.026 C 
ENDBRANCH  18  20
ENDBRANCH  17  18
ENDBRANCH  16  17
ENDBRANCH  13  16
ENDBRANCH  10  12
ENDBRANCH   1  10
BRANCH   3  22
HETATM   22  N3  UNL     1      26.449   1.706  51.297  1.00  0.00    -0.355 N 
HETATM   23  H16 UNL     1      27.190   1.143  50.788  1.00  0.00     0.166 HD
BRANCH  22  24
HETATM   24  C11 UNL     1      26.321   1.016  52.523  1.00  0.00     0.054 A 
HETATM   25  C12 UNL     1      25.349   0.048  52.730  1.00  0.00     0.031 A 
HETATM   26  C13 UNL     1      25.171  -0.665  53.911  1.00  0.00     0.002 A 
HETATM   27  C14 UNL     1      26.020  -0.394  54.961  1.00  0.00     0.002 A 
HETATM   28  C15 UNL     1      27.008   0.557  54.817  1.00  0.00     0.026 A 
HETATM   29  C16 UNL     1      27.146   1.247  53.607  1.00  0.00     0.060 A 
HETATM   30 CL1  UNL     1      28.428   2.458  53.474  1.00  0.00    -0.082 Cl
ENDBRANCH  22  24
ENDBRANCH   3  22
TORSDOF 8
ENDMDL
MODEL 4
REMARK VINA RESULT:      -7.2      2.000      2.830
REMARK  8 active torsions:
REMARK  status: ('A' for Active; 'I' for Inactive)
REMARK    1  A    between atoms: C2_2  and  N1_3 
REMARK    2  A    between atoms: N1_3  and  C4_5 
REMARK    3  A    between atoms: C4_5  and  C5_6 
REMARK    4  A    between atoms: C5_6  and  C6_7 
REMARK    5  A    between atoms: C7_8  and  N2_9 
REMARK    6  A    between atoms: N2_9  and  C8_10 
REMARK    7  A    between atoms: C10_12  and  N3_13 
REMARK    8  A    between atoms: N3_13  and  C11_14 
ROOT
HETATM    1  C8  UNL     1      23.501   2.947  52.211  1.00  0.00     0.153 C 
HETATM    2  C9  UNL     1      24.494   2.198  52.996  1.00  0.00     0.033 C 
HETATM    3  C10 UNL     1      25.747   1.817  52.781  1.00  0.00     0.032 C 
HETATM    4  C17 UNL     1      26.550   2.064  51.603  1.00  0.00     0.046 C 
HETATM    5  C18 UNL     1      26.571   3.057  50.727  1.00  0.00     0.089 C 
HETATM    6  N4  UNL     1      25.769   4.229  50.688  1.00  0.00    -0.374 N 
HETATM    7  P1  UNL     1      24.069   4.339  51.214  1.00  0.00    -0.003 P 
HETATM    8  H23 UNL     1      26.227   5.072  50.322  1.00  0.00     0.163 HD
HETATM    9  H24 UNL     1      23.248   4.495  50.008  1.00  0.00     0.082 HD
ENDROOT
BRANCH   1  10
HETATM   10  N2  UNL     1      22.612   2.103  51.426  1.00  0.00    -0.376 N 
HETATM   11  H13 UNL     1      23.073   1.653  50.605  1.00  0.00     0.160 HD
BRANCH  10  12
HETATM   12  C7  UNL     1      21.216   1.883  51.726  1.00  0.00     0.035 A 
HETATM   13  C6  UNL     1      20.380   1.370  52.638  1.00  0.00    -0.030 A 
HETATM   14  C20 UNL     1      19.286   1.797  51.775  1.00  0.00     0.012 A 
HETATM   15  C19 UNL     1      20.111   2.297  50.885  1.00  0.00     0.030 A 
BRANCH  13  16
HETATM   16  C5  UNL     1      20.677   0.727  53.898  1.00  0.00     0.060 C 
BRANCH  16  17
HETATM   17  C4  UNL     1      20.813  -0.739  53.961  1.00  0.00     0.121 C 
BRANCH  17  18
HETATM   18  N1  UNL     1      22.036  -1.378  54.143  1.00  0.00    -0.417 N 
HETATM   19  C3  UNL     1      23.011  -1.108  53.092  1.00  0.00     0.143 C 
BRANCH  18  20
HETATM   20  C2  UNL     1      22.624  -1.534  55.417  1.00  0.00     0.112 C 
HETATM   21  C1  UNL     1      24.095  -1.186  55.505  1.00  0.00     0.026 C 
ENDBRANCH  18  20
ENDBRANCH  17  18
ENDBRANCH  16  17
ENDBRANCH  13  16
ENDBRANCH  10  12
ENDBRANCH   1  10
BRANCH   3  22
HETATM   22  N3  UNL     1      26.458   1.070  53.790  1.00  0.00    -0.355 N 
HETATM   23  H16 UNL     1      26.550   1.175  54.842  1.00  0.00     0.166 HD
BRANCH  22  24
HETATM   24  C11 UNL     1      27.250  -0.067  53.519  1.00  0.00     0.054 A 
HETATM   25  C12 UNL     1      26.717  -1.231  52.983  1.00  0.00     0.031 A 
HETATM   26  C13 UNL     1      27.442  -2.382  52.694  1.00  0.00     0.002 A 
HETATM   27  C14 UNL     1      28.794  -2.375  52.958  1.00  0.00     0.002 A 
HETATM   28  C15 UNL     1      29.383  -1.248  53.491  1.00  0.00     0.026 A 
HETATM   29  C16 UNL     1      28.609  -0.114  53.763  1.00  0.00     0.060 A 
HETATM   30 CL1  UNL     1      29.413   1.306  54.446  1.00  0.00    -0.082 Cl
ENDBRANCH  22  24
ENDBRANCH   3  22
TORSDOF 8
ENDMDL
MODEL 5
REMARK VINA RESULT:      -7.1      2.423      5.306
REMARK  8 active torsions:
REMARK  status: ('A' for Active; 'I' for Inactive)
REMARK    1  A    between atoms: C2_2  and  N1_3 
REMARK    2  A    between atoms: N1_3  and  C4_5 
REMARK    3  A    between atoms: C4_5  and  C5_6 
REMARK    4  A    between atoms: C5_6  and  C6_7 
REMARK    5  A    between atoms: C7_8  and  N2_9 
REMARK    6  A    between atoms: N2_9  and  C8_10 
REMARK    7  A    between atoms: C10_12  and  N3_13 
REMARK    8  A    between atoms: N3_13  and  C11_14 
ROOT
HETATM    1  C8  UNL     1      26.977   2.134  53.214  1.00  0.00     0.153 C 
HETATM    2  C9  UNL     1      25.956   1.077  53.229  1.00  0.00     0.033 C 
HETATM    3  C10 UNL     1      25.985  -0.241  53.074  1.00  0.00     0.032 C 
HETATM    4  C17 UNL     1      27.145  -1.070  52.830  1.00  0.00     0.046 C 
HETATM    5  C18 UNL     1      28.415  -0.960  53.187  1.00  0.00     0.089 C 
HETATM    6  N4  UNL     1      29.040   0.059  53.955  1.00  0.00    -0.374 N 
HETATM    7  P1  UNL     1      28.585   1.783  53.953  1.00  0.00    -0.003 P 
HETATM    8  H23 UNL     1      29.818  -0.246  54.553  1.00  0.00     0.163 HD
HETATM    9  H24 UNL     1      29.654   2.516  53.267  1.00  0.00     0.082 HD
ENDROOT
BRANCH   1  10
HETATM   10  N2  UNL     1      27.156   2.764  51.913  1.00  0.00    -0.376 N 
HETATM   11  H13 UNL     1      28.155   2.933  51.660  1.00  0.00     0.160 HD
BRANCH  10  12
HETATM   12  C7  UNL     1      26.076   3.132  51.028  1.00  0.00     0.035 A 
HETATM   13  C6  UNL     1      24.806   3.555  50.999  1.00  0.00    -0.030 A 
HETATM   14  C20 UNL     1      24.912   3.559  49.546  1.00  0.00     0.012 A 
HETATM   15  C19 UNL     1      26.156   3.144  49.581  1.00  0.00     0.030 A 
BRANCH  13  16
HETATM   16  C5  UNL     1      23.908   3.843  52.095  1.00  0.00     0.060 C 
BRANCH  16  17
HETATM   17  C4  UNL     1      23.242   5.155  52.173  1.00  0.00     0.121 C 
BRANCH  17  18
HETATM   18  N1  UNL     1      22.308   5.586  51.235  1.00  0.00    -0.417 N 
HETATM   19  C3  UNL     1      22.793   6.644  50.356  1.00  0.00     0.143 C 
BRANCH  18  20
HETATM   20  C2  UNL     1      21.417   4.698  50.594  1.00  0.00     0.112 C 
HETATM   21  C1  UNL     1      20.273   4.189  51.447  1.00  0.00     0.026 C 
ENDBRANCH  18  20
ENDBRANCH  17  18
ENDBRANCH  16  17
ENDBRANCH  13  16
ENDBRANCH  10  12
ENDBRANCH   1  10
BRANCH   3  22
HETATM   22  N3  UNL     1      24.763  -1.004  53.149  1.00  0.00    -0.355 N 
HETATM   23  H16 UNL     1      24.554  -2.044  53.150  1.00  0.00     0.166 HD
BRANCH  22  24
HETATM   24  C11 UNL     1      23.477  -0.427  53.244  1.00  0.00     0.054 A 
HETATM   25  C12 UNL     1      22.923   0.322  52.216  1.00  0.00     0.031 A 
HETATM   26  C13 UNL     1      21.666   0.915  52.248  1.00  0.00     0.002 A 
HETATM   27  C14 UNL     1      20.906   0.753  53.386  1.00  0.00     0.002 A 
HETATM   28  C15 UNL     1      21.401   0.019  54.443  1.00  0.00     0.026 A 
HETATM   29  C16 UNL     1      22.674  -0.559  54.360  1.00  0.00     0.060 A 
HETATM   30 CL1  UNL     1      23.263  -1.490  55.744  1.00  0.00    -0.082 Cl
ENDBRANCH  22  24
ENDBRANCH   3  22
TORSDOF 8
ENDMDL
MODEL 6
REMARK VINA RESULT:      -7.1      2.531      5.565
REMARK  8 active torsions:
REMARK  status: ('A' for Active; 'I' for Inactive)
REMARK    1  A    between atoms: C2_2  and  N1_3 
REMARK    2  A    between atoms: N1_3  and  C4_5 
REMARK    3  A    between atoms: C4_5  and  C5_6 
REMARK    4  A    between atoms: C5_6  and  C6_7 
REMARK    5  A    between atoms: C7_8  and  N2_9 
REMARK    6  A    between atoms: N2_9  and  C8_10 
REMARK    7  A    between atoms: C10_12  and  N3_13 
REMARK    8  A    between atoms: N3_13  and  C11_14 
ROOT
HETATM    1  C8  UNL     1      21.653   1.856  51.706  1.00  0.00     0.153 C 
HETATM    2  C9  UNL     1      22.929   2.587  51.719  1.00  0.00     0.033 C 
HETATM    3  C10 UNL     1      23.760   3.015  50.776  1.00  0.00     0.032 C 
HETATM    4  C17 UNL     1      23.615   2.865  49.344  1.00  0.00     0.046 C 
HETATM    5  C18 UNL     1      22.555   2.802  48.554  1.00  0.00     0.089 C 
HETATM    6  N4  UNL     1      21.179   2.867  48.902  1.00  0.00    -0.374 N 
HETATM    7  P1  UNL     1      20.460   2.237  50.407  1.00  0.00    -0.003 P 
HETATM    8  H23 UNL     1      20.564   3.317  48.213  1.00  0.00     0.163 HD
HETATM    9  H24 UNL     1      19.669   1.054  50.053  1.00  0.00     0.082 HD
ENDROOT
BRANCH   1  10
HETATM   10  N2  UNL     1      21.798   0.414  51.840  1.00  0.00    -0.376 N 
HETATM   11  H13 UNL     1      21.553  -0.117  50.975  1.00  0.00     0.160 HD
BRANCH  10  12
HETATM   12  C7  UNL     1      22.239  -0.256  53.042  1.00  0.00     0.035 A 
HETATM   13  C6  UNL     1      23.297  -0.446  53.839  1.00  0.00    -0.030 A 
HETATM   14  C20 UNL     1      22.433  -1.271  54.674  1.00  0.00     0.012 A 
HETATM   15  C19 UNL     1      21.400  -1.081  53.887  1.00  0.00     0.030 A 
BRANCH  13  16
HETATM   16  C5  UNL     1      24.640   0.077  53.726  1.00  0.00     0.060 C 
BRANCH  16  17
HETATM   17  C4  UNL     1      25.785  -0.848  53.655  1.00  0.00     0.121 C 
BRANCH  17  18
HETATM   18  N1  UNL     1      26.854  -0.662  52.783  1.00  0.00    -0.417 N 
HETATM   19  C3  UNL     1      26.771   0.560  51.990  1.00  0.00     0.143 C 
BRANCH  18  20
HETATM   20  C2  UNL     1      28.179  -1.008  53.128  1.00  0.00     0.112 C 
HETATM   21  C1  UNL     1      28.852  -0.098  54.135  1.00  0.00     0.026 C 
ENDBRANCH  18  20
ENDBRANCH  17  18
ENDBRANCH  16  17
ENDBRANCH  13  16
ENDBRANCH  10  12
ENDBRANCH   1  10
BRANCH   3  22
HETATM   22  N3  UNL     1      24.964   3.721  51.141  1.00  0.00    -0.355 N 
HETATM   23  H16 UNL     1      25.513   3.803  52.046  1.00  0.00     0.166 HD
BRANCH  22  24
HETATM   24  C11 UNL     1      25.711   4.521  50.249  1.00  0.00     0.054 A 
HETATM   25  C12 UNL     1      26.784   4.021  49.524  1.00  0.00     0.031 A 
HETATM   26  C13 UNL     1      27.557   4.756  48.633  1.00  0.00     0.002 A 
HETATM   27  C14 UNL     1      27.242   6.084  48.450  1.00  0.00     0.002 A 
HETATM   28  C15 UNL     1      26.186   6.641  49.141  1.00  0.00     0.026 A 
HETATM   29  C16 UNL     1      25.437   5.857  50.027  1.00  0.00     0.060 A 
HETATM   30 CL1  UNL     1      24.094   6.619  50.889  1.00  0.00    -0.082 Cl
ENDBRANCH  22  24
ENDBRANCH   3  22
TORSDOF 8
ENDMDL
MODEL 7
REMARK VINA RESULT:      -6.8      3.443      6.834
REMARK  8 active torsions:
REMARK  status: ('A' for Active; 'I' for Inactive)
REMARK    1  A    between atoms: C2_2  and  N1_3 
REMARK    2  A    between atoms: N1_3  and  C4_5 
REMARK    3  A    between atoms: C4_5  and  C5_6 
REMARK    4  A    between atoms: C5_6  and  C6_7 
REMARK    5  A    between atoms: C7_8  and  N2_9 
REMARK    6  A    between atoms: N2_9  and  C8_10 
REMARK    7  A    between atoms: C10_12  and  N3_13 
REMARK    8  A    between atoms: N3_13  and  C11_14 
ROOT
HETATM    1  C8  UNL     1      24.663   5.260  49.787  1.00  0.00     0.153 C 
HETATM    2  C9  UNL     1      24.566   3.838  50.147  1.00  0.00     0.033 C 
HETATM    3  C10 UNL     1      24.208   3.184  51.245  1.00  0.00     0.032 C 
HETATM    4  C17 UNL     1      23.772   3.753  52.502  1.00  0.00     0.046 C 
HETATM    5  C18 UNL     1      23.119   4.864  52.804  1.00  0.00     0.089 C 
HETATM    6  N4  UNL     1      22.632   5.875  51.933  1.00  0.00    -0.374 N 
HETATM    7  P1  UNL     1      23.403   6.391  50.410  1.00  0.00    -0.003 P 
HETATM    8  H23 UNL     1      21.761   6.336  52.225  1.00  0.00     0.163 HD
HETATM    9  H24 UNL     1      23.959   7.730  50.634  1.00  0.00     0.082 HD
ENDROOT
BRANCH   1  10
HETATM   10  N2  UNL     1      25.987   5.831  49.990  1.00  0.00    -0.376 N 
HETATM   11  H13 UNL     1      26.327   5.769  50.975  1.00  0.00     0.160 HD
BRANCH  10  12
HETATM   12  C7  UNL     1      26.787   6.433  48.949  1.00  0.00     0.035 A 
HETATM   13  C6  UNL     1      27.917   6.293  48.245  1.00  0.00    -0.030 A 
HETATM   14  C20 UNL     1      27.546   7.510  47.535  1.00  0.00     0.012 A 
HETATM   15  C19 UNL     1      26.440   7.642  48.229  1.00  0.00     0.030 A 
BRANCH  13  16
HETATM   16  C5  UNL     1      28.925   5.259  48.320  1.00  0.00     0.060 C 
BRANCH  16  17
HETATM   17  C4  UNL     1      30.320   5.566  47.957  1.00  0.00     0.121 C 
BRANCH  17  18
HETATM   18  N1  UNL     1      31.041   6.608  48.535  1.00  0.00    -0.417 N 
HETATM   19  C3  UNL     1      31.915   6.194  49.627  1.00  0.00     0.143 C 
BRANCH  18  20
HETATM   20  C2  UNL     1      31.572   7.671  47.773  1.00  0.00     0.112 C 
HETATM   21  C1  UNL     1      31.227   7.656  46.298  1.00  0.00     0.026 C 
ENDBRANCH  18  20
ENDBRANCH  17  18
ENDBRANCH  16  17
ENDBRANCH  13  16
ENDBRANCH  10  12
ENDBRANCH   1  10
BRANCH   3  22
HETATM   22  N3  UNL     1      24.226   1.742  51.265  1.00  0.00    -0.355 N 
HETATM   23  H16 UNL     1      23.674   1.001  50.744  1.00  0.00     0.166 HD
BRANCH  22  24
HETATM   24  C11 UNL     1      25.087   0.975  52.080  1.00  0.00     0.054 A 
HETATM   25  C12 UNL     1      26.460   0.943  51.885  1.00  0.00     0.031 A 
HETATM   26  C13 UNL     1      27.359   0.210  52.651  1.00  0.00     0.002 A 
HETATM   27  C14 UNL     1      26.856  -0.548  53.685  1.00  0.00     0.002 A 
HETATM   28  C15 UNL     1      25.499  -0.559  53.930  1.00  0.00     0.026 A 
HETATM   29  C16 UNL     1      24.635   0.198  53.130  1.00  0.00     0.060 A 
HETATM   30 CL1  UNL     1      22.903   0.150  53.486  1.00  0.00    -0.082 Cl
ENDBRANCH  22  24
ENDBRANCH   3  22
TORSDOF 8
ENDMDL
MODEL 8
REMARK VINA RESULT:      -6.6      3.052      6.116
REMARK  8 active torsions:
REMARK  status: ('A' for Active; 'I' for Inactive)
REMARK    1  A    between atoms: C2_2  and  N1_3 
REMARK    2  A    between atoms: N1_3  and  C4_5 
REMARK    3  A    between atoms: C4_5  and  C5_6 
REMARK    4  A    between atoms: C5_6  and  C6_7 
REMARK    5  A    between atoms: C7_8  and  N2_9 
REMARK    6  A    between atoms: N2_9  and  C8_10 
REMARK    7  A    between atoms: C10_12  and  N3_13 
REMARK    8  A    between atoms: N3_13  and  C11_14 
ROOT
HETATM    1  C8  UNL     1      25.517   3.740  49.761  1.00  0.00     0.153 C 
HETATM    2  C9  UNL     1      25.739   2.561  50.612  1.00  0.00     0.033 C 
HETATM    3  C10 UNL     1      25.241   2.148  51.771  1.00  0.00     0.032 C 
HETATM    4  C17 UNL     1      24.245   2.812  52.584  1.00  0.00     0.046 C 
HETATM    5  C18 UNL     1      23.222   3.598  52.283  1.00  0.00     0.089 C 
HETATM    6  N4  UNL     1      22.784   4.039  51.006  1.00  0.00    -0.374 N 
HETATM    7  P1  UNL     1      23.839   4.383  49.610  1.00  0.00    -0.003 P 
HETATM    8  H23 UNL     1      21.770   4.166  50.900  1.00  0.00     0.163 HD
HETATM    9  H24 UNL     1      23.846   5.837  49.415  1.00  0.00     0.082 HD
ENDROOT
BRANCH   1  10
HETATM   10  N2  UNL     1      26.447   4.831  50.012  1.00  0.00    -0.376 N 
HETATM   11  H13 UNL     1      26.670   4.972  51.022  1.00  0.00     0.160 HD
BRANCH  10  12
HETATM   12  C7  UNL     1      27.030   5.662  48.984  1.00  0.00     0.035 A 
HETATM   13  C6  UNL     1      26.800   6.726  48.203  1.00  0.00    -0.030 A 
HETATM   14  C20 UNL     1      28.140   6.533  47.664  1.00  0.00     0.012 A 
HETATM   15  C19 UNL     1      28.358   5.490  48.431  1.00  0.00     0.030 A 
BRANCH  13  16
HETATM   16  C5  UNL     1      25.632   7.573  48.124  1.00  0.00     0.060 C 
BRANCH  16  17
HETATM   17  C4  UNL     1      25.358   8.548  49.195  1.00  0.00     0.121 C 
BRANCH  17  18
HETATM   18  N1  UNL     1      26.192   9.628  49.466  1.00  0.00    -0.417 N 
HETATM   19  C3  UNL     1      27.289   9.320  50.377  1.00  0.00     0.143 C 
BRANCH  18  20
HETATM   20  C2  UNL     1      26.540  10.579  48.481  1.00  0.00     0.112 C 
HETATM   21  C1  UNL     1      28.008  10.946  48.417  1.00  0.00     0.026 C 
ENDBRANCH  18  20
ENDBRANCH  17  18
ENDBRANCH  16  17
ENDBRANCH  13  16
ENDBRANCH  10  12
ENDBRANCH   1  10
BRANCH   3  22
HETATM   22  N3  UNL     1      25.690   0.905  52.349  1.00  0.00    -0.355 N 
HETATM   23  H16 UNL     1      25.228  -0.039  52.492  1.00  0.00     0.166 HD
BRANCH  22  24
HETATM   24  C11 UNL     1      26.980   0.707  52.889  1.00  0.00     0.054 A 
HETATM   25  C12 UNL     1      27.729   1.748  53.419  1.00  0.00     0.031 A 
HETATM   26  C13 UNL     1      29.002   1.618  53.963  1.00  0.00     0.002 A 
HETATM   27  C14 UNL     1      29.570   0.363  53.982  1.00  0.00     0.002 A 
HETATM   28  C15 UNL     1      28.875  -0.712  53.471  1.00  0.00     0.026 A 
HETATM   29  C16 UNL     1      27.595  -0.529  52.934  1.00  0.00     0.060 A 
HETATM   30 CL1  UNL     1      26.746  -1.941  52.290  1.00  0.00    -0.082 Cl
ENDBRANCH  22  24
ENDBRANCH   3  22
TORSDOF 8
ENDMDL
MODEL 9
REMARK VINA RESULT:      -6.6      2.542      5.844
REMARK  8 active torsions:
REMARK  status: ('A' for Active; 'I' for Inactive)
REMARK    1  A    between atoms: C2_2  and  N1_3 
REMARK    2  A    between atoms: N1_3  and  C4_5 
REMARK    3  A    between atoms: C4_5  and  C5_6 
REMARK    4  A    between atoms: C5_6  and  C6_7 
REMARK    5  A    between atoms: C7_8  and  N2_9 
REMARK    6  A    between atoms: N2_9  and  C8_10 
REMARK    7  A    between atoms: C10_12  and  N3_13 
REMARK    8  A    between atoms: N3_13  and  C11_14 
ROOT
HETATM    1  C8  UNL     1      26.664   2.268  53.132  1.00  0.00     0.153 C 
HETATM    2  C9  UNL     1      25.632   1.233  52.969  1.00  0.00     0.033 C 
HETATM    3  C10 UNL     1      25.660  -0.074  52.739  1.00  0.00     0.032 C 
HETATM    4  C17 UNL     1      26.829  -0.912  52.577  1.00  0.00     0.046 C 
HETATM    5  C18 UNL     1      28.052  -0.849  53.080  1.00  0.00     0.089 C 
HETATM    6  N4  UNL     1      28.600   0.110  53.973  1.00  0.00    -0.374 N 
HETATM    7  P1  UNL     1      28.173   1.840  54.024  1.00  0.00    -0.003 P 
HETATM    8  H23 UNL     1      29.301  -0.244  54.635  1.00  0.00     0.163 HD
HETATM    9  H24 UNL     1      29.323   2.590  53.507  1.00  0.00     0.082 HD
ENDROOT
BRANCH   1  10
HETATM   10  N2  UNL     1      26.998   2.968  51.900  1.00  0.00    -0.376 N 
HETATM   11  H13 UNL     1      28.009   3.212  51.814  1.00  0.00     0.160 HD
BRANCH  10  12
HETATM   12  C7  UNL     1      26.045   3.309  50.869  1.00  0.00     0.035 A 
HETATM   13  C6  UNL     1      24.887   3.941  50.642  1.00  0.00    -0.030 A 
HETATM   14  C20 UNL     1      25.042   3.579  49.240  1.00  0.00     0.012 A 
HETATM   15  C19 UNL     1      26.176   2.959  49.469  1.00  0.00     0.030 A 
BRANCH  13  16
HETATM   16  C5  UNL     1      24.026   4.645  51.567  1.00  0.00     0.060 C 
BRANCH  16  17
HETATM   17  C4  UNL     1      23.485   5.967  51.206  1.00  0.00     0.121 C 
BRANCH  17  18
HETATM   18  N1  UNL     1      24.132   6.836  50.333  1.00  0.00    -0.417 N 
HETATM   19  C3  UNL     1      23.283   7.904  49.817  1.00  0.00     0.143 C 
BRANCH  18  20
HETATM   20  C2  UNL     1      25.472   7.238  50.523  1.00  0.00     0.112 C 
HETATM   21  C1  UNL     1      26.404   6.985  49.355  1.00  0.00     0.026 C 
ENDBRANCH  18  20
ENDBRANCH  17  18
ENDBRANCH  16  17
ENDBRANCH  13  16
ENDBRANCH  10  12
ENDBRANCH   1  10
BRANCH   3  22
HETATM   22  N3  UNL     1      24.427  -0.814  52.630  1.00  0.00    -0.355 N 
HETATM   23  H16 UNL     1      24.168  -1.730  52.163  1.00  0.00     0.166 HD
BRANCH  22  24
HETATM   24  C11 UNL     1      23.203  -0.395  53.196  1.00  0.00     0.054 A 
HETATM   25  C12 UNL     1      22.766  -0.846  54.434  1.00  0.00     0.031 A 
HETATM   26  C13 UNL     1      21.573  -0.473  55.044  1.00  0.00     0.002 A 
HETATM   27  C14 UNL     1      20.757   0.412  54.375  1.00  0.00     0.002 A 
HETATM   28  C15 UNL     1      21.135   0.896  53.140  1.00  0.00     0.026 A 
HETATM   29  C16 UNL     1      22.347   0.489  52.569  1.00  0.00     0.060 A 
HETATM   30 CL1  UNL     1      22.786   1.140  50.984  1.00  0.00    -0.082 Cl
ENDBRANCH  22  24
ENDBRANCH   3  22
TORSDOF 8
ENDMDL
