MODEL 1
REMARK VINA RESULT:      -8.7      0.000      0.000
REMARK  5 active torsions:
REMARK  status: ('A' for Active; 'I' for Inactive)
REMARK    1  A    between atoms: C4_4  and  C5_5 
REMARK    2  A    between atoms: C5_5  and  N1_6 
REMARK    3  A    between atoms: C9_11  and  N3_12 
REMARK    4  A    between atoms: N3_12  and  C10_13 
REMARK    5  A    between atoms: C13_19  and  N7_20 
ROOT
HETATM    1  N3  UNL     1      25.851   1.434  53.239  1.00  0.00    -0.339 N 
HETATM    2  H8  UNL     1      25.266   0.729  53.751  1.00  0.00     0.167 HD
ENDROOT
BRANCH   1   3
HETATM    3  C9  UNL     1      25.318   2.368  52.380  1.00  0.00     0.034 A 
HETATM    4  C8  UNL     1      24.316   3.227  52.783  1.00  0.00     0.044 A 
HETATM    5  C7  UNL     1      23.802   4.160  51.884  1.00  0.00     0.014 A 
HETATM    6  C6  UNL     1      22.830   5.148  51.930  1.00  0.00     0.152 A 
HETATM    7  C19 UNL     1      24.318   4.201  50.593  1.00  0.00     0.065 A 
HETATM    8  N2  UNL     1      22.792   5.728  50.718  1.00  0.00    -0.183 NA
HETATM    9  N1  UNL     1      23.681   5.166  49.905  1.00  0.00    -0.265 N 
HETATM   10  C18 UNL     1      25.319   3.365  50.140  1.00  0.00     0.034 A 
HETATM   11  C17 UNL     1      25.809   2.442  51.069  1.00  0.00     0.032 A 
BRANCH   9  12
HETATM   12  C5  UNL     1      23.800   5.652  48.540  1.00  0.00     0.191 C 
BRANCH  12  13
HETATM   13  C4  UNL     1      25.066   6.416  48.425  1.00  0.00    -0.028 A 
HETATM   14  C2  UNL     1      26.538   6.480  48.391  1.00  0.00    -0.037 A 
HETATM   15  C1  UNL     1      27.661   5.774  48.458  1.00  0.00     0.024 C 
HETATM   16  C3  UNL     1      25.704   7.632  48.266  1.00  0.00     0.021 A 
ENDBRANCH  12  13
ENDBRANCH   9  12
ENDBRANCH   1   3
BRANCH   1  17
HETATM   17  C10 UNL     1      27.210   1.308  53.534  1.00  0.00     0.159 A 
HETATM   18  N4  UNL     1      27.885   2.443  53.897  1.00  0.00    -0.220 NA
HETATM   19  C11 UNL     1      29.216   2.311  54.184  1.00  0.00     0.258 A 
HETATM   20  N5  UNL     1      29.861   1.130  54.120  1.00  0.00    -0.161 NA
HETATM   21  N6  UNL     1      29.194   0.044  53.767  1.00  0.00    -0.237 N 
HETATM   22  C12 UNL     1      29.679  -1.224  53.649  1.00  0.00     0.148 A 
HETATM   23  C16 UNL     1      27.886   0.106  53.473  1.00  0.00     0.112 A 
HETATM   24  C13 UNL     1      28.561  -1.959  53.256  1.00  0.00     0.051 A 
HETATM   25  C14 UNL     1      27.440  -1.158  53.140  1.00  0.00    -0.002 A 
HETATM   26  C15 UNL     1      26.063  -1.498  52.755  1.00  0.00     0.053 C 
BRANCH  24  27
HETATM   27  N7  UNL     1      28.594  -3.342  53.011  1.00  0.00    -0.397 N 
HETATM   28  H11 UNL     1      29.063  -3.789  52.167  1.00  0.00     0.156 HD
HETATM   29  H12 UNL     1      28.293  -4.263  53.388  1.00  0.00     0.156 HD
ENDBRANCH  24  27
ENDBRANCH   1  17
TORSDOF 5
ENDMDL
MODEL 2
REMARK VINA RESULT:      -8.6      1.440      2.347
REMARK  5 active torsions:
REMARK  status: ('A' for Active; 'I' for Inactive)
REMARK    1  A    between atoms: C4_4  and  C5_5 
REMARK    2  A    between atoms: C5_5  and  N1_6 
REMARK    3  A    between atoms: C9_11  and  N3_12 
REMARK    4  A    between atoms: N3_12  and  C10_13 
REMARK    5  A    between atoms: C13_19  and  N7_20 
ROOT
HETATM    1  N3  UNL     1      25.851   1.625  53.710  1.00  0.00    -0.339 N 
HETATM    2  H8  UNL     1      25.332   1.120  54.471  1.00  0.00     0.167 HD
ENDROOT
BRANCH   1   3
HETATM    3  C9  UNL     1      25.219   2.377  52.744  1.00  0.00     0.034 A 
HETATM    4  C8  UNL     1      24.179   3.227  53.061  1.00  0.00     0.044 A 
HETATM    5  C7  UNL     1      23.565   3.973  52.057  1.00  0.00     0.014 A 
HETATM    6  C6  UNL     1      22.532   4.895  51.999  1.00  0.00     0.152 A 
HETATM    7  C19 UNL     1      24.022   3.838  50.749  1.00  0.00     0.065 A 
HETATM    8  N2  UNL     1      22.403   5.272  50.715  1.00  0.00    -0.183 NA
HETATM    9  N1  UNL     1      23.293   4.642  49.954  1.00  0.00    -0.265 N 
HETATM   10  C18 UNL     1      25.057   3.003  50.380  1.00  0.00     0.034 A 
HETATM   11  C17 UNL     1      25.648   2.271  51.415  1.00  0.00     0.032 A 
BRANCH   9  12
HETATM   12  C5  UNL     1      23.320   4.911  48.526  1.00  0.00     0.191 C 
BRANCH  12  13
HETATM   13  C4  UNL     1      22.545   3.849  47.836  1.00  0.00    -0.028 A 
HETATM   14  C2  UNL     1      21.948   2.502  47.801  1.00  0.00    -0.037 A 
HETATM   15  C1  UNL     1      21.770   1.371  48.474  1.00  0.00     0.024 C 
HETATM   16  C3  UNL     1      21.849   3.428  46.719  1.00  0.00     0.021 A 
ENDBRANCH  12  13
ENDBRANCH   9  12
ENDBRANCH   1   3
BRANCH   1  17
HETATM   17  C10 UNL     1      27.231   1.443  53.799  1.00  0.00     0.159 A 
HETATM   18  N4  UNL     1      27.996   2.540  54.096  1.00  0.00    -0.220 NA
HETATM   19  C11 UNL     1      29.348   2.352  54.181  1.00  0.00     0.258 A 
HETATM   20  N5  UNL     1      29.931   1.153  53.987  1.00  0.00    -0.161 NA
HETATM   21  N6  UNL     1      29.178   0.104  53.701  1.00  0.00    -0.237 N 
HETATM   22  C12 UNL     1      29.591  -1.174  53.474  1.00  0.00     0.148 A 
HETATM   23  C16 UNL     1      27.845   0.221  53.603  1.00  0.00     0.112 A 
HETATM   24  C13 UNL     1      28.401  -1.856  53.225  1.00  0.00     0.051 A 
HETATM   25  C14 UNL     1      27.306  -1.014  53.299  1.00  0.00    -0.002 A 
HETATM   26  C15 UNL     1      25.876  -1.293  53.109  1.00  0.00     0.053 C 
BRANCH  24  27
HETATM   27  N7  UNL     1      28.344  -3.230  52.935  1.00  0.00    -0.397 N 
HETATM   28  H11 UNL     1      27.575  -3.881  53.274  1.00  0.00     0.156 HD
HETATM   29  H12 UNL     1      28.837  -3.997  52.435  1.00  0.00     0.156 HD
ENDBRANCH  24  27
ENDBRANCH   1  17
TORSDOF 5
ENDMDL
MODEL 3
REMARK VINA RESULT:      -8.2      2.677      7.964
REMARK  5 active torsions:
REMARK  status: ('A' for Active; 'I' for Inactive)
REMARK    1  A    between atoms: C4_4  and  C5_5 
REMARK    2  A    between atoms: C5_5  and  N1_6 
REMARK    3  A    between atoms: C9_11  and  N3_12 
REMARK    4  A    between atoms: N3_12  and  C10_13 
REMARK    5  A    between atoms: C13_19  and  N7_20 
ROOT
HETATM    1  N3  UNL     1      23.745   2.563  50.340  1.00  0.00    -0.339 N 
HETATM    2  H8  UNL     1      23.863   2.307  49.329  1.00  0.00     0.167 HD
ENDROOT
BRANCH   1   3
HETATM    3  C9  UNL     1      24.505   2.010  51.347  1.00  0.00     0.034 A 
HETATM    4  C8  UNL     1      24.001   1.023  52.169  1.00  0.00     0.044 A 
HETATM    5  C7  UNL     1      24.801   0.487  53.176  1.00  0.00     0.014 A 
HETATM    6  C6  UNL     1      24.643  -0.481  54.157  1.00  0.00     0.152 A 
HETATM    7  C19 UNL     1      26.098   0.966  53.326  1.00  0.00     0.065 A 
HETATM    8  N2  UNL     1      25.800  -0.552  54.838  1.00  0.00    -0.183 NA
HETATM    9  N1  UNL     1      26.682   0.314  54.349  1.00  0.00    -0.265 N 
HETATM   10  C18 UNL     1      26.650   1.951  52.532  1.00  0.00     0.034 A 
HETATM   11  C17 UNL     1      25.817   2.465  51.533  1.00  0.00     0.032 A 
BRANCH   9  12
HETATM   12  C5  UNL     1      28.003   0.395  54.949  1.00  0.00     0.191 C 
BRANCH  12  13
HETATM   13  C4  UNL     1      28.940  -0.410  54.126  1.00  0.00    -0.028 A 
HETATM   14  C2  UNL     1      29.280  -1.635  53.381  1.00  0.00    -0.037 A 
HETATM   15  C1  UNL     1      28.853  -2.836  53.007  1.00  0.00     0.024 C 
HETATM   16  C3  UNL     1      30.167  -0.523  53.500  1.00  0.00     0.021 A 
ENDBRANCH  12  13
ENDBRANCH   9  12
ENDBRANCH   1   3
BRANCH   1  17
HETATM   17  C10 UNL     1      22.743   3.515  50.532  1.00  0.00     0.159 A 
HETATM   18  N4  UNL     1      23.104   4.707  51.101  1.00  0.00    -0.220 NA
HETATM   19  C11 UNL     1      22.116   5.634  51.286  1.00  0.00     0.258 A 
HETATM   20  N5  UNL     1      20.834   5.414  50.934  1.00  0.00    -0.161 NA
HETATM   21  N6  UNL     1      20.502   4.256  50.386  1.00  0.00    -0.237 N 
HETATM   22  C12 UNL     1      19.266   3.861  49.972  1.00  0.00     0.148 A 
HETATM   23  C16 UNL     1      21.425   3.304  50.178  1.00  0.00     0.112 A 
HETATM   24  C13 UNL     1      19.489   2.575  49.482  1.00  0.00     0.051 A 
HETATM   25  C14 UNL     1      20.817   2.208  49.598  1.00  0.00    -0.002 A 
HETATM   26  C15 UNL     1      21.496   0.961  49.219  1.00  0.00     0.053 C 
BRANCH  24  27
HETATM   27  N7  UNL     1      18.472   1.768  48.942  1.00  0.00    -0.397 N 
HETATM   28  H11 UNL     1      18.625   1.045  48.178  1.00  0.00     0.156 HD
HETATM   29  H12 UNL     1      17.455   1.557  49.001  1.00  0.00     0.156 HD
ENDBRANCH  24  27
ENDBRANCH   1  17
TORSDOF 5
ENDMDL
MODEL 4
REMARK VINA RESULT:      -8.1      2.411      7.614
REMARK  5 active torsions:
REMARK  status: ('A' for Active; 'I' for Inactive)
REMARK    1  A    between atoms: C4_4  and  C5_5 
REMARK    2  A    between atoms: C5_5  and  N1_6 
REMARK    3  A    between atoms: C9_11  and  N3_12 
REMARK    4  A    between atoms: N3_12  and  C10_13 
REMARK    5  A    between atoms: C13_19  and  N7_20 
ROOT
HETATM    1  N3  UNL     1      24.263   4.119  49.644  1.00  0.00    -0.339 N 
HETATM    2  H8  UNL     1      24.335   3.956  48.610  1.00  0.00     0.167 HD
ENDROOT
BRANCH   1   3
HETATM    3  C9  UNL     1      24.323   3.101  50.569  1.00  0.00     0.034 A 
HETATM    4  C8  UNL     1      23.217   2.328  50.861  1.00  0.00     0.044 A 
HETATM    5  C7  UNL     1      23.317   1.306  51.802  1.00  0.00     0.014 A 
HETATM    6  C6  UNL     1      22.453   0.360  52.332  1.00  0.00     0.152 A 
HETATM    7  C19 UNL     1      24.540   1.090  52.428  1.00  0.00     0.065 A 
HETATM    8  N2  UNL     1      23.151  -0.366  53.223  1.00  0.00    -0.183 NA
HETATM    9  N1  UNL     1      24.407   0.064  53.290  1.00  0.00    -0.265 N 
HETATM   10  C18 UNL     1      25.675   1.833  52.174  1.00  0.00     0.034 A 
HETATM   11  C17 UNL     1      25.536   2.850  51.224  1.00  0.00     0.032 A 
BRANCH   9  12
HETATM   12  C5  UNL     1      25.333  -0.591  54.200  1.00  0.00     0.191 C 
BRANCH  12  13
HETATM   13  C4  UNL     1      26.464  -1.131  53.405  1.00  0.00    -0.028 A 
HETATM   14  C2  UNL     1      27.904  -1.235  53.114  1.00  0.00    -0.037 A 
HETATM   15  C1  UNL     1      29.119  -0.833  53.470  1.00  0.00     0.024 C 
HETATM   16  C3  UNL     1      26.906  -1.932  52.369  1.00  0.00     0.021 A 
ENDBRANCH  12  13
ENDBRANCH   9  12
ENDBRANCH   1   3
BRANCH   1  17
HETATM   17  C10 UNL     1      24.104   5.470  49.957  1.00  0.00     0.159 A 
HETATM   18  N4  UNL     1      22.896   5.861  50.471  1.00  0.00    -0.220 NA
HETATM   19  C11 UNL     1      22.747   7.186  50.774  1.00  0.00     0.258 A 
HETATM   20  N5  UNL     1      23.728   8.091  50.588  1.00  0.00    -0.161 NA
HETATM   21  N6  UNL     1      24.889   7.696  50.090  1.00  0.00    -0.237 N 
HETATM   22  C12 UNL     1      25.984   8.465  49.836  1.00  0.00     0.148 A 
HETATM   23  C16 UNL     1      25.098   6.410  49.772  1.00  0.00     0.112 A 
HETATM   24  C13 UNL     1      26.906   7.550  49.328  1.00  0.00     0.051 A 
HETATM   25  C14 UNL     1      26.381   6.271  49.279  1.00  0.00    -0.002 A 
HETATM   26  C15 UNL     1      26.984   5.012  48.821  1.00  0.00     0.053 C 
BRANCH  24  27
HETATM   27  N7  UNL     1      28.203   7.906  48.921  1.00  0.00    -0.397 N 
HETATM   28  H11 UNL     1      28.501   8.896  48.675  1.00  0.00     0.156 HD
HETATM   29  H12 UNL     1      29.152   7.525  48.733  1.00  0.00     0.156 HD
ENDBRANCH  24  27
ENDBRANCH   1  17
TORSDOF 5
ENDMDL
MODEL 5
REMARK VINA RESULT:      -7.8      2.829      4.314
REMARK  5 active torsions:
REMARK  status: ('A' for Active; 'I' for Inactive)
REMARK    1  A    between atoms: C4_4  and  C5_5 
REMARK    2  A    between atoms: C5_5  and  N1_6 
REMARK    3  A    between atoms: C9_11  and  N3_12 
REMARK    4  A    between atoms: N3_12  and  C10_13 
REMARK    5  A    between atoms: C13_19  and  N7_20 
ROOT
HETATM    1  N3  UNL     1      24.428   1.116  51.505  1.00  0.00    -0.339 N 
HETATM    2  H8  UNL     1      24.133   0.427  50.770  1.00  0.00     0.167 HD
ENDROOT
BRANCH   1   3
HETATM    3  C9  UNL     1      24.496   2.472  51.276  1.00  0.00     0.034 A 
HETATM    4  C8  UNL     1      25.393   3.005  50.372  1.00  0.00     0.044 A 
HETATM    5  C7  UNL     1      25.432   4.382  50.166  1.00  0.00     0.014 A 
HETATM    6  C6  UNL     1      26.169   5.244  49.370  1.00  0.00     0.152 A 
HETATM    7  C19 UNL     1      24.557   5.191  50.885  1.00  0.00     0.065 A 
HETATM    8  N2  UNL     1      25.736   6.492  49.621  1.00  0.00    -0.183 NA
HETATM    9  N1  UNL     1      24.767   6.473  50.531  1.00  0.00    -0.265 N 
HETATM   10  C18 UNL     1      23.642   4.710  51.800  1.00  0.00     0.034 A 
HETATM   11  C17 UNL     1      23.633   3.323  51.980  1.00  0.00     0.032 A 
BRANCH   9  12
HETATM   12  C5  UNL     1      24.159   7.726  50.945  1.00  0.00     0.191 C 
BRANCH  12  13
HETATM   13  C4  UNL     1      22.864   7.874  50.235  1.00  0.00    -0.028 A 
HETATM   14  C2  UNL     1      21.526   7.377  49.872  1.00  0.00    -0.037 A 
HETATM   15  C1  UNL     1      20.656   6.383  50.018  1.00  0.00     0.024 C 
HETATM   16  C3  UNL     1      22.046   8.624  49.411  1.00  0.00     0.021 A 
ENDBRANCH  12  13
ENDBRANCH   9  12
ENDBRANCH   1   3
BRANCH   1  17
HETATM   17  C10 UNL     1      24.735   0.498  52.718  1.00  0.00     0.159 A 
HETATM   18  N4  UNL     1      26.031   0.573  53.155  1.00  0.00    -0.220 NA
HETATM   19  C11 UNL     1      26.324  -0.036  54.344  1.00  0.00     0.258 A 
HETATM   20  N5  UNL     1      25.400  -0.688  55.076  1.00  0.00    -0.161 NA
HETATM   21  N6  UNL     1      24.152  -0.752  54.639  1.00  0.00    -0.237 N 
HETATM   22  C12 UNL     1      23.095  -1.364  55.240  1.00  0.00     0.148 A 
HETATM   23  C16 UNL     1      23.800  -0.175  53.479  1.00  0.00     0.112 A 
HETATM   24  C13 UNL     1      22.042  -1.123  54.359  1.00  0.00     0.051 A 
HETATM   25  C14 UNL     1      22.453  -0.389  53.262  1.00  0.00    -0.002 A 
HETATM   26  C15 UNL     1      21.695   0.087  52.096  1.00  0.00     0.053 C 
BRANCH  24  27
HETATM   27  N7  UNL     1      20.731  -1.581  54.579  1.00  0.00    -0.397 N 
HETATM   28  H11 UNL     1      19.863  -0.973  54.491  1.00  0.00     0.156 HD
HETATM   29  H12 UNL     1      20.173  -2.420  54.836  1.00  0.00     0.156 HD
ENDBRANCH  24  27
ENDBRANCH   1  17
TORSDOF 5
ENDMDL
MODEL 6
REMARK VINA RESULT:      -7.8      3.853      7.534
REMARK  5 active torsions:
REMARK  status: ('A' for Active; 'I' for Inactive)
REMARK    1  A    between atoms: C4_4  and  C5_5 
REMARK    2  A    between atoms: C5_5  and  N1_6 
REMARK    3  A    between atoms: C9_11  and  N3_12 
REMARK    4  A    between atoms: N3_12  and  C10_13 
REMARK    5  A    between atoms: C13_19  and  N7_20 
ROOT
HETATM    1  N3  UNL     1      27.877   6.284  47.969  1.00  0.00    -0.339 N 
HETATM    2  H8  UNL     1      27.586   6.807  47.106  1.00  0.00     0.167 HD
ENDROOT
BRANCH   1   3
HETATM    3  C9  UNL     1      26.985   5.610  48.772  1.00  0.00     0.034 A 
HETATM    4  C8  UNL     1      25.969   6.271  49.432  1.00  0.00     0.044 A 
HETATM    5  C7  UNL     1      25.085   5.553  50.235  1.00  0.00     0.014 A 
HETATM    6  C6  UNL     1      23.985   5.864  51.020  1.00  0.00     0.152 A 
HETATM    7  C19 UNL     1      25.252   4.177  50.352  1.00  0.00     0.065 A 
HETATM    8  N2  UNL     1      23.543   4.716  51.562  1.00  0.00    -0.183 NA
HETATM    9  N1  UNL     1      24.297   3.695  51.168  1.00  0.00    -0.265 N 
HETATM   10  C18 UNL     1      26.251   3.469  49.714  1.00  0.00     0.034 A 
HETATM   11  C17 UNL     1      27.119   4.222  48.917  1.00  0.00     0.032 A 
BRANCH   9  12
HETATM   12  C5  UNL     1      23.985   2.357  51.644  1.00  0.00     0.191 C 
BRANCH  12  13
HETATM   13  C4  UNL     1      25.173   1.827  52.359  1.00  0.00    -0.028 A 
HETATM   14  C2  UNL     1      26.186   0.781  52.582  1.00  0.00    -0.037 A 
HETATM   15  C1  UNL     1      26.621  -0.413  52.197  1.00  0.00     0.024 C 
HETATM   16  C3  UNL     1      26.141   1.995  53.332  1.00  0.00     0.021 A 
ENDBRANCH  12  13
ENDBRANCH   9  12
ENDBRANCH   1   3
BRANCH   1  17
HETATM   17  C10 UNL     1      29.252   6.358  48.194  1.00  0.00     0.159 A 
HETATM   18  N4  UNL     1      29.990   5.225  47.973  1.00  0.00    -0.220 NA
HETATM   19  C11 UNL     1      31.337   5.305  48.197  1.00  0.00     0.258 A 
HETATM   20  N5  UNL     1      31.940   6.434  48.615  1.00  0.00    -0.161 NA
HETATM   21  N6  UNL     1      31.213   7.520  48.824  1.00  0.00    -0.237 N 
HETATM   22  C12 UNL     1      31.649   8.740  49.244  1.00  0.00     0.148 A 
HETATM   23  C16 UNL     1      29.886   7.507  48.623  1.00  0.00     0.112 A 
HETATM   24  C13 UNL     1      30.480   9.498  49.291  1.00  0.00     0.051 A 
HETATM   25  C14 UNL     1      29.376   8.758  48.911  1.00  0.00    -0.002 A 
HETATM   26  C15 UNL     1      27.960   9.141  48.814  1.00  0.00     0.053 C 
BRANCH  24  27
HETATM   27  N7  UNL     1      30.451  10.848  49.681  1.00  0.00    -0.397 N 
HETATM   28  H11 UNL     1      30.658  11.663  49.031  1.00  0.00     0.156 HD
HETATM   29  H12 UNL     1      30.278  11.479  50.490  1.00  0.00     0.156 HD
ENDBRANCH  24  27
ENDBRANCH   1  17
TORSDOF 5
ENDMDL
MODEL 7
REMARK VINA RESULT:      -7.7      2.984      7.523
REMARK  5 active torsions:
REMARK  status: ('A' for Active; 'I' for Inactive)
REMARK    1  A    between atoms: C4_4  and  C5_5 
REMARK    2  A    between atoms: C5_5  and  N1_6 
REMARK    3  A    between atoms: C9_11  and  N3_12 
REMARK    4  A    between atoms: N3_12  and  C10_13 
REMARK    5  A    between atoms: C13_19  and  N7_20 
ROOT
HETATM    1  N3  UNL     1      26.261   6.024  48.642  1.00  0.00    -0.339 N 
HETATM    2  H8  UNL     1      26.279   5.924  47.598  1.00  0.00     0.167 HD
ENDROOT
BRANCH   1   3
HETATM    3  C9  UNL     1      25.932   4.988  49.488  1.00  0.00     0.034 A 
HETATM    4  C8  UNL     1      24.846   5.070  50.336  1.00  0.00     0.044 A 
HETATM    5  C7  UNL     1      24.543   4.001  51.177  1.00  0.00     0.014 A 
HETATM    6  C6  UNL     1      23.569   3.732  52.126  1.00  0.00     0.152 A 
HETATM    7  C19 UNL     1      25.352   2.869  51.138  1.00  0.00     0.065 A 
HETATM    8  N2  UNL     1      23.810   2.501  52.610  1.00  0.00    -0.183 NA
HETATM    9  N1  UNL     1      24.880   1.972  52.024  1.00  0.00    -0.265 N 
HETATM   10  C18 UNL     1      26.448   2.737  50.310  1.00  0.00     0.034 A 
HETATM   11  C17 UNL     1      26.721   3.830  49.481  1.00  0.00     0.032 A 
BRANCH   9  12
HETATM   12  C5  UNL     1      25.311   0.639  52.407  1.00  0.00     0.191 C 
BRANCH  12  13
HETATM   13  C4  UNL     1      26.442   0.770  53.360  1.00  0.00    -0.028 A 
HETATM   14  C2  UNL     1      27.679   1.428  53.813  1.00  0.00    -0.037 A 
HETATM   15  C1  UNL     1      28.555   2.393  53.559  1.00  0.00     0.024 C 
HETATM   16  C3  UNL     1      27.086   0.325  54.499  1.00  0.00     0.021 A 
ENDBRANCH  12  13
ENDBRANCH   9  12
ENDBRANCH   1   3
BRANCH   1  17
HETATM   17  C10 UNL     1      26.607   7.311  49.058  1.00  0.00     0.159 A 
HETATM   18  N4  UNL     1      25.608   8.102  49.561  1.00  0.00    -0.220 NA
HETATM   19  C11 UNL     1      25.955   9.361  49.965  1.00  0.00     0.258 A 
HETATM   20  N5  UNL     1      27.214   9.832  49.884  1.00  0.00    -0.161 NA
HETATM   21  N6  UNL     1      28.167   9.055  49.395  1.00  0.00    -0.237 N 
HETATM   22  C12 UNL     1      29.485   9.360  49.239  1.00  0.00     0.148 A 
HETATM   23  C16 UNL     1      27.892   7.808  48.981  1.00  0.00     0.112 A 
HETATM   24  C13 UNL     1      30.021   8.195  48.690  1.00  0.00     0.051 A 
HETATM   25  C14 UNL     1      29.055   7.221  48.521  1.00  0.00    -0.002 A 
HETATM   26  C15 UNL     1      29.162   5.857  47.983  1.00  0.00     0.053 C 
BRANCH  24  27
HETATM   27  N7  UNL     1      31.379   8.053  48.356  1.00  0.00    -0.397 N 
HETATM   28  H11 UNL     1      31.793   8.315  47.413  1.00  0.00     0.156 HD
HETATM   29  H12 UNL     1      32.300   7.741  48.725  1.00  0.00     0.156 HD
ENDBRANCH  24  27
ENDBRANCH   1  17
TORSDOF 5
ENDMDL
MODEL 8
REMARK VINA RESULT:      -7.7      3.921      7.253
REMARK  5 active torsions:
REMARK  status: ('A' for Active; 'I' for Inactive)
REMARK    1  A    between atoms: C4_4  and  C5_5 
REMARK    2  A    between atoms: C5_5  and  N1_6 
REMARK    3  A    between atoms: C9_11  and  N3_12 
REMARK    4  A    between atoms: N3_12  and  C10_13 
REMARK    5  A    between atoms: C13_19  and  N7_20 
ROOT
HETATM    1  N3  UNL     1      28.164   6.606  47.961  1.00  0.00    -0.339 N 
HETATM    2  H8  UNL     1      28.304   6.476  46.928  1.00  0.00     0.167 HD
ENDROOT
BRANCH   1   3
HETATM    3  C9  UNL     1      27.238   5.892  48.687  1.00  0.00     0.034 A 
HETATM    4  C8  UNL     1      26.198   6.519  49.342  1.00  0.00     0.044 A 
HETATM    5  C7  UNL     1      25.280   5.762  50.067  1.00  0.00     0.014 A 
HETATM    6  C6  UNL     1      24.150   6.033  50.823  1.00  0.00     0.152 A 
HETATM    7  C19 UNL     1      25.438   4.381  50.111  1.00  0.00     0.065 A 
HETATM    8  N2  UNL     1      23.682   4.858  51.280  1.00  0.00    -0.183 NA
HETATM    9  N1  UNL     1      24.450   3.857  50.859  1.00  0.00    -0.265 N 
HETATM   10  C18 UNL     1      26.460   3.704  49.475  1.00  0.00     0.034 A 
HETATM   11  C17 UNL     1      27.362   4.498  48.758  1.00  0.00     0.032 A 
BRANCH   9  12
HETATM   12  C5  UNL     1      24.114   2.497  51.245  1.00  0.00     0.191 C 
BRANCH  12  13
HETATM   13  C4  UNL     1      25.144   2.016  52.200  1.00  0.00    -0.028 A 
HETATM   14  C2  UNL     1      26.186   1.054  52.600  1.00  0.00    -0.037 A 
HETATM   15  C1  UNL     1      26.840  -0.049  52.255  1.00  0.00     0.024 C 
HETATM   16  C3  UNL     1      25.816   2.179  53.397  1.00  0.00     0.021 A 
ENDBRANCH  12  13
ENDBRANCH   9  12
ENDBRANCH   1   3
BRANCH   1  17
HETATM   17  C10 UNL     1      29.017   7.575  48.492  1.00  0.00     0.159 A 
HETATM   18  N4  UNL     1      28.457   8.759  48.892  1.00  0.00    -0.220 NA
HETATM   19  C11 UNL     1      29.300   9.702  49.411  1.00  0.00     0.258 A 
HETATM   20  N5  UNL     1      30.626   9.505  49.537  1.00  0.00    -0.161 NA
HETATM   21  N6  UNL     1      31.151   8.355  49.145  1.00  0.00    -0.237 N 
HETATM   22  C12 UNL     1      32.460   7.983  49.196  1.00  0.00     0.148 A 
HETATM   23  C16 UNL     1      30.378   7.388  48.627  1.00  0.00     0.112 A 
HETATM   24  C13 UNL     1      32.447   6.695  48.664  1.00  0.00     0.051 A 
HETATM   25  C14 UNL     1      31.171   6.304  48.305  1.00  0.00    -0.002 A 
HETATM   26  C15 UNL     1      30.691   5.047  47.712  1.00  0.00     0.053 C 
BRANCH  24  27
HETATM   27  N7  UNL     1      33.603   5.908  48.519  1.00  0.00    -0.397 N 
HETATM   28  H11 UNL     1      34.390   6.122  47.837  1.00  0.00     0.156 HD
HETATM   29  H12 UNL     1      34.081   5.054  48.872  1.00  0.00     0.156 HD
ENDBRANCH  24  27
ENDBRANCH   1  17
TORSDOF 5
ENDMDL
MODEL 9
REMARK VINA RESULT:      -7.6      1.230      2.340
REMARK  5 active torsions:
REMARK  status: ('A' for Active; 'I' for Inactive)
REMARK    1  A    between atoms: C4_4  and  C5_5 
REMARK    2  A    between atoms: C5_5  and  N1_6 
REMARK    3  A    between atoms: C9_11  and  N3_12 
REMARK    4  A    between atoms: N3_12  and  C10_13 
REMARK    5  A    between atoms: C13_19  and  N7_20 
ROOT
HETATM    1  N3  UNL     1      25.589   2.521  53.457  1.00  0.00    -0.339 N 
HETATM    2  H8  UNL     1      25.984   2.991  54.308  1.00  0.00     0.167 HD
ENDROOT
BRANCH   1   3
HETATM    3  C9  UNL     1      24.924   3.206  52.464  1.00  0.00     0.034 A 
HETATM    4  C8  UNL     1      23.784   3.936  52.734  1.00  0.00     0.044 A 
HETATM    5  C7  UNL     1      23.139   4.617  51.704  1.00  0.00     0.014 A 
HETATM    6  C6  UNL     1      22.015   5.421  51.600  1.00  0.00     0.152 A 
HETATM    7  C19 UNL     1      23.667   4.542  50.419  1.00  0.00     0.065 A 
HETATM    8  N2  UNL     1      21.904   5.791  50.312  1.00  0.00    -0.183 NA
HETATM    9  N1  UNL     1      22.892   5.267  49.592  1.00  0.00    -0.265 N 
HETATM   10  C18 UNL     1      24.803   3.827  50.096  1.00  0.00     0.034 A 
HETATM   11  C17 UNL     1      25.423   3.157  51.156  1.00  0.00     0.032 A 
BRANCH   9  12
HETATM   12  C5  UNL     1      22.955   5.547  48.167  1.00  0.00     0.191 C 
BRANCH  12  13
HETATM   13  C4  UNL     1      24.043   6.529  47.931  1.00  0.00    -0.028 A 
HETATM   14  C2  UNL     1      25.452   6.945  48.038  1.00  0.00    -0.037 A 
HETATM   15  C1  UNL     1      26.660   6.601  48.470  1.00  0.00     0.024 C 
HETATM   16  C3  UNL     1      24.444   7.752  47.429  1.00  0.00     0.021 A 
ENDBRANCH  12  13
ENDBRANCH   9  12
ENDBRANCH   1   3
BRANCH   1  17
HETATM   17  C10 UNL     1      25.819   1.145  53.456  1.00  0.00     0.159 A 
HETATM   18  N4  UNL     1      24.725   0.321  53.448  1.00  0.00    -0.220 NA
HETATM   19  C11 UNL     1      24.958  -1.026  53.448  1.00  0.00     0.258 A 
HETATM   20  N5  UNL     1      26.199  -1.550  53.456  1.00  0.00    -0.161 NA
HETATM   21  N6  UNL     1      27.246  -0.741  53.464  1.00  0.00    -0.237 N 
HETATM   22  C12 UNL     1      28.562  -1.091  53.473  1.00  0.00     0.148 A 
HETATM   23  C16 UNL     1      27.084   0.591  53.465  1.00  0.00     0.112 A 
HETATM   24  C13 UNL     1      29.220   0.139  53.479  1.00  0.00     0.051 A 
HETATM   25  C14 UNL     1      28.327   1.195  53.473  1.00  0.00    -0.002 A 
HETATM   26  C15 UNL     1      28.567   2.645  53.478  1.00  0.00     0.053 C 
BRANCH  24  27
HETATM   27  N7  UNL     1      30.619   0.266  53.490  1.00  0.00    -0.397 N 
HETATM   28  H11 UNL     1      31.167   0.783  54.240  1.00  0.00     0.156 HD
HETATM   29  H12 UNL     1      31.484   0.012  52.970  1.00  0.00     0.156 HD
ENDBRANCH  24  27
ENDBRANCH   1  17
TORSDOF 5
ENDMDL
