MODEL 1
REMARK VINA RESULT:      -6.7      0.000      0.000
REMARK  5 active torsions:
REMARK  status: ('A' for Active; 'I' for Inactive)
REMARK    1  A    between atoms: C3_4  and  C4_5 
REMARK    2  A    between atoms: N2_11  and  C8_12 
REMARK    3  A    between atoms: C8_12  and  C9_13 
REMARK    4  A    between atoms: C9_13  and  C10_14 
REMARK    5  A    between atoms: C10_14  and  N3_15 
ROOT
HETATM    1  N1  UNL     1      23.770   4.030  52.668  1.00  0.00    -0.192 NA
HETATM    2  C1  UNL     1      24.441   3.402  51.930  1.00  0.00     0.088 C 
HETATM    3  C2  UNL     1      25.264   2.653  51.042  1.00  0.00     0.096 C 
HETATM    4  C3  UNL     1      26.342   1.936  51.287  1.00  0.00     0.042 C 
ENDROOT
BRANCH   4   5
HETATM    5  C4  UNL     1      27.042   1.663  52.507  1.00  0.00     0.059 C 
HETATM    6  C5  UNL     1      28.041   2.359  53.016  1.00  0.00     0.164 C 
HETATM    7  O1  UNL     1      28.770   2.167  54.183  1.00  0.00    -0.352 OA
HETATM    8  C6  UNL     1      28.722   0.880  54.810  1.00  0.00     0.277 C 
HETATM    9  C7  UNL     1      27.402   0.280  54.498  1.00  0.00     0.248 C 
HETATM   10  O2  UNL     1      26.894  -0.509  55.359  1.00  0.00    -0.271 OA
HETATM   11  N2  UNL     1      26.687   0.536  53.300  1.00  0.00    -0.314 N 
BRANCH  11  12
HETATM   12  C8  UNL     1      25.622  -0.417  52.960  1.00  0.00     0.134 C 
BRANCH  12  13
HETATM   13  C9  UNL     1      24.346  -0.078  53.611  1.00  0.00     0.050 C 
BRANCH  13  14
HETATM   14  C10 UNL     1      23.114   0.121  52.828  1.00  0.00     0.274 C 
BRANCH  14  15
HETATM   15  N3  UNL     1      21.924   0.533  53.518  1.00  0.00     0.088 N 
HETATM   16  C11 UNL     1      21.224   1.508  52.715  1.00  0.00     0.272 C 
HETATM   17  C12 UNL     1      20.618   0.874  51.502  1.00  0.00     0.030 C 
HETATM   18  C13 UNL     1      19.516  -0.053  51.967  1.00  0.00     0.003 C 
HETATM   19  C14 UNL     1      19.634  -0.417  53.413  1.00  0.00     0.030 C 
HETATM   20  C15 UNL     1      21.067  -0.575  53.868  1.00  0.00     0.272 C 
ENDBRANCH  14  15
ENDBRANCH  13  14
ENDBRANCH  12  13
ENDBRANCH  11  12
ENDBRANCH   4   5
TORSDOF 5
ENDMDL
MODEL 2
REMARK VINA RESULT:      -6.6      2.577      5.695
REMARK  5 active torsions:
REMARK  status: ('A' for Active; 'I' for Inactive)
REMARK    1  A    between atoms: C3_4  and  C4_5 
REMARK    2  A    between atoms: N2_11  and  C8_12 
REMARK    3  A    between atoms: C8_12  and  C9_13 
REMARK    4  A    between atoms: C9_13  and  C10_14 
REMARK    5  A    between atoms: C10_14  and  N3_15 
ROOT
HETATM    1  N1  UNL     1      27.745  -2.540  53.053  1.00  0.00    -0.192 NA
HETATM    2  C1  UNL     1      27.372  -1.456  52.777  1.00  0.00     0.088 C 
HETATM    3  C2  UNL     1      26.911  -0.153  52.436  1.00  0.00     0.096 C 
HETATM    4  C3  UNL     1      25.779   0.451  52.737  1.00  0.00     0.042 C 
ENDROOT
BRANCH   4   5
HETATM    5  C4  UNL     1      24.646   0.016  53.500  1.00  0.00     0.059 C 
HETATM    6  C5  UNL     1      24.662  -0.781  54.551  1.00  0.00     0.164 C 
HETATM    7  O1  UNL     1      23.620  -1.249  55.344  1.00  0.00    -0.352 OA
HETATM    8  C6  UNL     1      22.288  -1.177  54.824  1.00  0.00     0.277 C 
HETATM    9  C7  UNL     1      22.228  -0.017  53.902  1.00  0.00     0.248 C 
HETATM   10  O2  UNL     1      21.118   0.597  53.796  1.00  0.00    -0.271 OA
HETATM   11  N2  UNL     1      23.335   0.437  53.139  1.00  0.00    -0.314 N 
BRANCH  11  12
HETATM   12  C8  UNL     1      23.027   1.312  52.000  1.00  0.00     0.134 C 
BRANCH  12  13
HETATM   13  C9  UNL     1      23.152   2.737  52.347  1.00  0.00     0.050 C 
BRANCH  13  14
HETATM   14  C10 UNL     1      24.114   3.613  51.655  1.00  0.00     0.274 C 
BRANCH  14  15
HETATM   15  N3  UNL     1      24.779   3.111  50.485  1.00  0.00     0.088 N 
HETATM   16  C11 UNL     1      24.230   3.755  49.315  1.00  0.00     0.272 C 
HETATM   17  C12 UNL     1      24.636   5.194  49.251  1.00  0.00     0.030 C 
HETATM   18  C13 UNL     1      26.130   5.242  49.009  1.00  0.00     0.003 C 
HETATM   19  C14 UNL     1      26.815   3.956  49.346  1.00  0.00     0.030 C 
HETATM   20  C15 UNL     1      26.214   3.263  50.547  1.00  0.00     0.272 C 
ENDBRANCH  14  15
ENDBRANCH  13  14
ENDBRANCH  12  13
ENDBRANCH  11  12
ENDBRANCH   4   5
TORSDOF 5
ENDMDL
MODEL 3
REMARK VINA RESULT:      -6.5      2.129      5.152
REMARK  5 active torsions:
REMARK  status: ('A' for Active; 'I' for Inactive)
REMARK    1  A    between atoms: C3_4  and  C4_5 
REMARK    2  A    between atoms: N2_11  and  C8_12 
REMARK    3  A    between atoms: C8_12  and  C9_13 
REMARK    4  A    between atoms: C9_13  and  C10_14 
REMARK    5  A    between atoms: C10_14  and  N3_15 
ROOT
HETATM    1  N1  UNL     1      22.764  -1.486  55.695  1.00  0.00    -0.192 NA
HETATM    2  C1  UNL     1      22.927  -1.108  54.591  1.00  0.00     0.088 C 
HETATM    3  C2  UNL     1      23.129  -0.637  53.262  1.00  0.00     0.096 C 
HETATM    4  C3  UNL     1      24.230  -0.223  52.668  1.00  0.00     0.042 C 
ENDROOT
BRANCH   4   5
HETATM    5  C4  UNL     1      25.577  -0.108  53.142  1.00  0.00     0.059 C 
HETATM    6  C5  UNL     1      26.463  -1.081  53.244  1.00  0.00     0.164 C 
HETATM    7  O1  UNL     1      27.780  -1.058  53.688  1.00  0.00    -0.352 OA
HETATM    8  C6  UNL     1      28.212   0.060  54.472  1.00  0.00     0.277 C 
HETATM    9  C7  UNL     1      27.414   1.237  54.052  1.00  0.00     0.248 C 
HETATM   10  O2  UNL     1      27.964   2.383  54.129  1.00  0.00    -0.271 OA
HETATM   11  N2  UNL     1      26.080   1.151  53.575  1.00  0.00    -0.314 N 
BRANCH  11  12
HETATM   12  C8  UNL     1      25.303   2.397  53.585  1.00  0.00     0.134 C 
BRANCH  12  13
HETATM   13  C9  UNL     1      25.515   3.192  52.365  1.00  0.00     0.050 C 
BRANCH  13  14
HETATM   14  C10 UNL     1      24.566   3.138  51.239  1.00  0.00     0.274 C 
BRANCH  14  15
HETATM   15  N3  UNL     1      25.089   3.163  49.901  1.00  0.00     0.088 N 
HETATM   16  C11 UNL     1      24.387   4.167  49.137  1.00  0.00     0.272 C 
HETATM   17  C12 UNL     1      24.754   5.545  49.590  1.00  0.00     0.030 C 
HETATM   18  C13 UNL     1      26.205   5.779  49.227  1.00  0.00     0.003 C 
HETATM   19  C14 UNL     1      26.951   4.510  48.964  1.00  0.00     0.030 C 
HETATM   20  C15 UNL     1      26.517   3.373  49.863  1.00  0.00     0.272 C 
ENDBRANCH  14  15
ENDBRANCH  13  14
ENDBRANCH  12  13
ENDBRANCH  11  12
ENDBRANCH   4   5
TORSDOF 5
ENDMDL
MODEL 4
REMARK VINA RESULT:      -6.4      1.782      4.200
REMARK  5 active torsions:
REMARK  status: ('A' for Active; 'I' for Inactive)
REMARK    1  A    between atoms: C3_4  and  C4_5 
REMARK    2  A    between atoms: N2_11  and  C8_12 
REMARK    3  A    between atoms: C8_12  and  C9_13 
REMARK    4  A    between atoms: C9_13  and  C10_14 
REMARK    5  A    between atoms: C10_14  and  N3_15 
ROOT
HETATM    1  N1  UNL     1      21.844  -1.478  55.057  1.00  0.00    -0.192 NA
HETATM    2  C1  UNL     1      22.249  -0.856  54.142  1.00  0.00     0.088 C 
HETATM    3  C2  UNL     1      22.743  -0.093  53.045  1.00  0.00     0.096 C 
HETATM    4  C3  UNL     1      23.969   0.308  52.775  1.00  0.00     0.042 C 
ENDROOT
BRANCH   4   5
HETATM    5  C4  UNL     1      25.204   0.118  53.476  1.00  0.00     0.059 C 
HETATM    6  C5  UNL     1      25.355  -0.374  54.690  1.00  0.00     0.164 C 
HETATM    7  O1  UNL     1      26.505  -0.592  55.439  1.00  0.00    -0.352 OA
HETATM    8  C6  UNL     1      27.705   0.087  55.051  1.00  0.00     0.277 C 
HETATM    9  C7  UNL     1      27.646   0.299  53.585  1.00  0.00     0.248 C 
HETATM   10  O2  UNL     1      28.748   0.313  52.945  1.00  0.00    -0.271 OA
HETATM   11  N2  UNL     1      26.437   0.485  52.867  1.00  0.00    -0.314 N 
BRANCH  11  12
HETATM   12  C8  UNL     1      26.559   1.072  51.526  1.00  0.00     0.134 C 
BRANCH  12  13
HETATM   13  C9  UNL     1      26.551   2.543  51.562  1.00  0.00     0.050 C 
BRANCH  13  14
HETATM   14  C10 UNL     1      26.111   3.337  50.400  1.00  0.00     0.274 C 
BRANCH  14  15
HETATM   15  N3  UNL     1      24.966   4.190  50.549  1.00  0.00     0.088 N 
HETATM   16  C11 UNL     1      24.182   4.148  49.337  1.00  0.00     0.272 C 
HETATM   17  C12 UNL     1      23.505   2.823  49.178  1.00  0.00     0.030 C 
HETATM   18  C13 UNL     1      22.465   2.702  50.272  1.00  0.00     0.003 C 
HETATM   19  C14 UNL     1      22.700   3.649  51.405  1.00  0.00     0.030 C 
HETATM   20  C15 UNL     1      24.166   3.859  51.706  1.00  0.00     0.272 C 
ENDBRANCH  14  15
ENDBRANCH  13  14
ENDBRANCH  12  13
ENDBRANCH  11  12
ENDBRANCH   4   5
TORSDOF 5
ENDMDL
MODEL 5
REMARK VINA RESULT:      -6.2      2.690      6.308
REMARK  5 active torsions:
REMARK  status: ('A' for Active; 'I' for Inactive)
REMARK    1  A    between atoms: C3_4  and  C4_5 
REMARK    2  A    between atoms: N2_11  and  C8_12 
REMARK    3  A    between atoms: C8_12  and  C9_13 
REMARK    4  A    between atoms: C9_13  and  C10_14 
REMARK    5  A    between atoms: C10_14  and  N3_15 
ROOT
HETATM    1  N1  UNL     1      20.837   0.244  54.872  1.00  0.00    -0.192 NA
HETATM    2  C1  UNL     1      21.825  -0.065  54.308  1.00  0.00     0.088 C 
HETATM    3  C2  UNL     1      23.010  -0.441  53.614  1.00  0.00     0.096 C 
HETATM    4  C3  UNL     1      23.594   0.113  52.571  1.00  0.00     0.042 C 
ENDROOT
BRANCH   4   5
HETATM    5  C4  UNL     1      23.248   1.266  51.793  1.00  0.00     0.059 C 
HETATM    6  C5  UNL     1      22.333   1.331  50.845  1.00  0.00     0.164 C 
HETATM    7  O1  UNL     1      21.935   2.398  50.048  1.00  0.00    -0.352 OA
HETATM    8  C6  UNL     1      22.810   3.527  49.941  1.00  0.00     0.277 C 
HETATM    9  C7  UNL     1      23.575   3.624  51.207  1.00  0.00     0.248 C 
HETATM   10  O2  UNL     1      23.932   4.783  51.596  1.00  0.00    -0.271 OA
HETATM   11  N2  UNL     1      23.926   2.500  51.999  1.00  0.00    -0.314 N 
BRANCH  11  12
HETATM   12  C8  UNL     1      25.001   2.704  52.979  1.00  0.00     0.134 C 
BRANCH  12  13
HETATM   13  C9  UNL     1      26.336   2.604  52.367  1.00  0.00     0.050 C 
BRANCH  13  14
HETATM   14  C10 UNL     1      27.069   1.326  52.329  1.00  0.00     0.274 C 
BRANCH  14  15
HETATM   15  N3  UNL     1      27.640   0.829  53.549  1.00  0.00     0.088 N 
HETATM   16  C11 UNL     1      27.034  -0.441  53.873  1.00  0.00     0.272 C 
HETATM   17  C12 UNL     1      27.476  -1.509  52.921  1.00  0.00     0.030 C 
HETATM   18  C13 UNL     1      28.951  -1.755  53.155  1.00  0.00     0.003 C 
HETATM   19  C14 UNL     1      29.620  -0.631  53.880  1.00  0.00     0.030 C 
HETATM   20  C15 UNL     1      29.080   0.727  53.493  1.00  0.00     0.272 C 
ENDBRANCH  14  15
ENDBRANCH  13  14
ENDBRANCH  12  13
ENDBRANCH  11  12
ENDBRANCH   4   5
TORSDOF 5
ENDMDL
MODEL 6
REMARK VINA RESULT:      -6.0      2.461      6.269
REMARK  5 active torsions:
REMARK  status: ('A' for Active; 'I' for Inactive)
REMARK    1  A    between atoms: C3_4  and  C4_5 
REMARK    2  A    between atoms: N2_11  and  C8_12 
REMARK    3  A    between atoms: C8_12  and  C9_13 
REMARK    4  A    between atoms: C9_13  and  C10_14 
REMARK    5  A    between atoms: C10_14  and  N3_15 
ROOT
HETATM    1  N1  UNL     1      18.247   3.593  51.859  1.00  0.00    -0.192 NA
HETATM    2  C1  UNL     1      19.405   3.603  51.641  1.00  0.00     0.088 C 
HETATM    3  C2  UNL     1      20.807   3.617  51.392  1.00  0.00     0.096 C 
HETATM    4  C3  UNL     1      21.741   2.760  51.754  1.00  0.00     0.042 C 
ENDROOT
BRANCH   4   5
HETATM    5  C4  UNL     1      21.669   1.541  52.504  1.00  0.00     0.059 C 
HETATM    6  C5  UNL     1      20.597   0.797  52.700  1.00  0.00     0.164 C 
HETATM    7  O1  UNL     1      20.440  -0.389  53.407  1.00  0.00    -0.352 OA
HETATM    8  C6  UNL     1      21.447  -0.750  54.358  1.00  0.00     0.277 C 
HETATM    9  C7  UNL     1      22.732  -0.180  53.888  1.00  0.00     0.248 C 
HETATM   10  O2  UNL     1      23.800  -0.811  54.178  1.00  0.00    -0.271 OA
HETATM   11  N2  UNL     1      22.831   1.022  53.141  1.00  0.00    -0.314 N 
BRANCH  11  12
HETATM   12  C8  UNL     1      24.155   1.657  53.099  1.00  0.00     0.134 C 
BRANCH  12  13
HETATM   13  C9  UNL     1      24.981   1.146  51.994  1.00  0.00     0.050 C 
BRANCH  13  14
HETATM   14  C10 UNL     1      26.446   1.033  52.119  1.00  0.00     0.274 C 
BRANCH  14  15
HETATM   15  N3  UNL     1      27.033   1.169  53.423  1.00  0.00     0.088 N 
HETATM   16  C11 UNL     1      27.236  -0.143  53.990  1.00  0.00     0.272 C 
HETATM   17  C12 UNL     1      28.333  -0.875  53.281  1.00  0.00     0.030 C 
HETATM   18  C13 UNL     1      29.633  -0.159  53.580  1.00  0.00     0.003 C 
HETATM   19  C14 UNL     1      29.428   1.239  54.071  1.00  0.00     0.030 C 
HETATM   20  C15 UNL     1      28.259   1.932  53.408  1.00  0.00     0.272 C 
ENDBRANCH  14  15
ENDBRANCH  13  14
ENDBRANCH  12  13
ENDBRANCH  11  12
ENDBRANCH   4   5
TORSDOF 5
ENDMDL
MODEL 7
REMARK VINA RESULT:      -5.9      3.537      6.128
REMARK  5 active torsions:
REMARK  status: ('A' for Active; 'I' for Inactive)
REMARK    1  A    between atoms: C3_4  and  C4_5 
REMARK    2  A    between atoms: N2_11  and  C8_12 
REMARK    3  A    between atoms: C8_12  and  C9_13 
REMARK    4  A    between atoms: C9_13  and  C10_14 
REMARK    5  A    between atoms: C10_14  and  N3_15 
ROOT
HETATM    1  N1  UNL     1      27.271   5.887  48.552  1.00  0.00    -0.192 NA
HETATM    2  C1  UNL     1      26.976   4.821  48.960  1.00  0.00     0.088 C 
HETATM    3  C2  UNL     1      26.616   3.540  49.467  1.00  0.00     0.096 C 
HETATM    4  C3  UNL     1      25.447   3.087  49.874  1.00  0.00     0.042 C 
ENDROOT
BRANCH   4   5
HETATM    5  C4  UNL     1      24.160   3.713  49.942  1.00  0.00     0.059 C 
HETATM    6  C5  UNL     1      23.453   4.175  48.929  1.00  0.00     0.164 C 
HETATM    7  O1  UNL     1      22.207   4.790  48.905  1.00  0.00    -0.352 OA
HETATM    8  C6  UNL     1      21.697   5.337  50.127  1.00  0.00     0.277 C 
HETATM    9  C7  UNL     1      22.251   4.533  51.243  1.00  0.00     0.248 C 
HETATM   10  O2  UNL     1      21.541   4.412  52.294  1.00  0.00    -0.271 OA
HETATM   11  N2  UNL     1      23.520   3.900  51.199  1.00  0.00    -0.314 N 
BRANCH  11  12
HETATM   12  C8  UNL     1      24.091   3.494  52.491  1.00  0.00     0.134 C 
BRANCH  12  13
HETATM   13  C9  UNL     1      23.970   2.045  52.719  1.00  0.00     0.050 C 
BRANCH  13  14
HETATM   14  C10 UNL     1      25.060   1.274  53.344  1.00  0.00     0.274 C 
BRANCH  14  15
HETATM   15  N3  UNL     1      26.039   0.660  52.491  1.00  0.00     0.088 N 
HETATM   16  C11 UNL     1      27.267   1.417  52.558  1.00  0.00     0.272 C 
HETATM   17  C12 UNL     1      27.933   1.248  53.888  1.00  0.00     0.030 C 
HETATM   18  C13 UNL     1      28.401  -0.188  53.991  1.00  0.00     0.003 C 
HETATM   19  C14 UNL     1      27.712  -1.095  53.022  1.00  0.00     0.030 C 
HETATM   20  C15 UNL     1      26.260  -0.732  52.803  1.00  0.00     0.272 C 
ENDBRANCH  14  15
ENDBRANCH  13  14
ENDBRANCH  12  13
ENDBRANCH  11  12
ENDBRANCH   4   5
TORSDOF 5
ENDMDL
MODEL 8
REMARK VINA RESULT:      -5.9      3.021      6.459
REMARK  5 active torsions:
REMARK  status: ('A' for Active; 'I' for Inactive)
REMARK    1  A    between atoms: C3_4  and  C4_5 
REMARK    2  A    between atoms: N2_11  and  C8_12 
REMARK    3  A    between atoms: C8_12  and  C9_13 
REMARK    4  A    between atoms: C9_13  and  C10_14 
REMARK    5  A    between atoms: C10_14  and  N3_15 
ROOT
HETATM    1  N1  UNL     1      21.945  -1.665  53.913  1.00  0.00    -0.192 NA
HETATM    2  C1  UNL     1      21.328  -0.662  53.962  1.00  0.00     0.088 C 
HETATM    3  C2  UNL     1      20.595   0.557  54.019  1.00  0.00     0.096 C 
HETATM    4  C3  UNL     1      20.374   1.457  53.082  1.00  0.00     0.042 C 
ENDROOT
BRANCH   4   5
HETATM    5  C4  UNL     1      20.782   1.517  51.710  1.00  0.00     0.059 C 
HETATM    6  C5  UNL     1      20.163   0.976  50.678  1.00  0.00     0.164 C 
HETATM    7  O1  UNL     1      20.487   0.986  49.327  1.00  0.00    -0.352 OA
HETATM    8  C6  UNL     1      21.828   1.319  48.952  1.00  0.00     0.277 C 
HETATM    9  C7  UNL     1      22.365   2.240  49.983  1.00  0.00     0.248 C 
HETATM   10  O2  UNL     1      23.225   3.104  49.614  1.00  0.00    -0.271 OA
HETATM   11  N2  UNL     1      21.975   2.205  51.347  1.00  0.00    -0.314 N 
BRANCH  11  12
HETATM   12  C8  UNL     1      22.865   2.884  52.298  1.00  0.00     0.134 C 
BRANCH  12  13
HETATM   13  C9  UNL     1      23.892   1.979  52.838  1.00  0.00     0.050 C 
BRANCH  13  14
HETATM   14  C10 UNL     1      25.174   2.493  53.353  1.00  0.00     0.274 C 
BRANCH  14  15
HETATM   15  N3  UNL     1      26.390   1.882  52.893  1.00  0.00     0.088 N 
HETATM   16  C11 UNL     1      27.058   1.258  54.010  1.00  0.00     0.272 C 
HETATM   17  C12 UNL     1      26.314   0.046  54.476  1.00  0.00     0.030 C 
HETATM   18  C13 UNL     1      26.405  -1.000  53.385  1.00  0.00     0.003 C 
HETATM   19  C14 UNL     1      26.775  -0.422  52.056  1.00  0.00     0.030 C 
HETATM   20  C15 UNL     1      26.173   0.944  51.817  1.00  0.00     0.272 C 
ENDBRANCH  14  15
ENDBRANCH  13  14
ENDBRANCH  12  13
ENDBRANCH  11  12
ENDBRANCH   4   5
TORSDOF 5
ENDMDL
MODEL 9
REMARK VINA RESULT:      -5.9      7.833     11.267
REMARK  5 active torsions:
REMARK  status: ('A' for Active; 'I' for Inactive)
REMARK    1  A    between atoms: C3_4  and  C4_5 
REMARK    2  A    between atoms: N2_11  and  C8_12 
REMARK    3  A    between atoms: C8_12  and  C9_13 
REMARK    4  A    between atoms: C9_13  and  C10_14 
REMARK    5  A    between atoms: C10_14  and  N3_15 
ROOT
HETATM    1  N1  UNL     1      25.707   5.460  49.290  1.00  0.00    -0.192 NA
HETATM    2  C1  UNL     1      26.808   5.294  48.904  1.00  0.00     0.088 C 
HETATM    3  C2  UNL     1      28.135   5.100  48.423  1.00  0.00     0.096 C 
HETATM    4  C3  UNL     1      29.052   5.984  48.086  1.00  0.00     0.042 C 
ENDROOT
BRANCH   4   5
HETATM    5  C4  UNL     1      29.034   7.417  48.089  1.00  0.00     0.059 C 
HETATM    6  C5  UNL     1      28.112   8.195  47.556  1.00  0.00     0.164 C 
HETATM    7  O1  UNL     1      28.017   9.581  47.514  1.00  0.00    -0.352 OA
HETATM    8  C6  UNL     1      29.198  10.350  47.765  1.00  0.00     0.277 C 
HETATM    9  C7  UNL     1      30.058   9.563  48.681  1.00  0.00     0.248 C 
HETATM   10  O2  UNL     1      30.805  10.206  49.489  1.00  0.00    -0.271 OA
HETATM   11  N2  UNL     1      30.092   8.145  48.702  1.00  0.00    -0.314 N 
BRANCH  11  12
HETATM   12  C8  UNL     1      31.255   7.530  49.356  1.00  0.00     0.134 C 
BRANCH  12  13
HETATM   13  C9  UNL     1      32.450   7.554  48.498  1.00  0.00     0.050 C 
BRANCH  13  14
HETATM   14  C10 UNL     1      32.810   6.403  47.651  1.00  0.00     0.274 C 
BRANCH  14  15
HETATM   15  N3  UNL     1      33.148   5.162  48.291  1.00  0.00     0.088 N 
HETATM   16  C11 UNL     1      32.322   4.109  47.749  1.00  0.00     0.272 C 
HETATM   17  C12 UNL     1      32.709   3.792  46.338  1.00  0.00     0.030 C 
HETATM   18  C13 UNL     1      34.091   3.174  46.366  1.00  0.00     0.003 C 
HETATM   19  C14 UNL     1      34.830   3.459  47.634  1.00  0.00     0.030 C 
HETATM   20  C15 UNL     1      34.552   4.840  48.182  1.00  0.00     0.272 C 
ENDBRANCH  14  15
ENDBRANCH  13  14
ENDBRANCH  12  13
ENDBRANCH  11  12
ENDBRANCH   4   5
TORSDOF 5
ENDMDL
