MODEL 1
REMARK VINA RESULT:      -8.2      0.000      0.000
REMARK  6 active torsions:
REMARK  status: ('A' for Active; 'I' for Inactive)
REMARK    1  A    between atoms: C5_7  and  C6_8 
REMARK    2  A    between atoms: C7_9  and  C8_10 
REMARK       I    between atoms: C8_10  and  N2_12 
REMARK    3  A    between atoms: N2_12  and  C9_13 
REMARK    4  A    between atoms: C14_20  and  N5_21 
REMARK    5  A    between atoms: N5_21  and  C15_22 
REMARK    6  A    between atoms: C15_22  and  C16_23 
ROOT
HETATM    1  C9  UNL     1      25.829   2.574  51.456  1.00  0.00     0.006 C 
HETATM    2  C10 UNL     1      24.665   2.044  51.669  1.00  0.00     0.069 C 
HETATM    3  C11 UNL     1      23.259   1.844  51.564  1.00  0.00     0.004 C 
HETATM    4  C12 UNL     1      23.175   0.799  52.413  1.00  0.00     0.114 C 
HETATM    5  N3  UNL     1      23.170  -0.287  53.311  1.00  0.00    -0.254 NA
HETATM    6  C13 UNL     1      24.325  -0.585  53.844  1.00  0.00     0.234 C 
HETATM    7  N4  UNL     1      24.930   0.444  53.142  1.00  0.00    -0.229 NA
HETATM    8  C14 UNL     1      26.169   0.680  53.049  1.00  0.00     0.106 C 
HETATM    9  C18 UNL     1      26.760   1.760  52.280  1.00  0.00     0.131 C 
ENDROOT
BRANCH   1  10
HETATM   10  N2  UNL     1      26.586   3.596  50.762  1.00  0.00    -0.323 N 
HETATM   11  C8  UNL     1      26.197   4.262  49.585  1.00  0.00     0.300 C 
HETATM   12  O2  UNL     1      25.095   3.958  49.071  1.00  0.00    -0.258 OA
HETATM   13  H11 UNL     1      27.501   3.910  51.110  1.00  0.00     0.169 HD
BRANCH  11  14
HETATM   14  C7  UNL     1      27.012   5.268  48.964  1.00  0.00    -0.003 C 
HETATM   15  C6  UNL     1      27.708   6.125  48.455  1.00  0.00    -0.058 C 
BRANCH  15  16
HETATM   16  C5  UNL     1      28.554   7.154  47.848  1.00  0.00     0.327 C 
HETATM   17  C2  UNL     1      27.766   7.927  46.831  1.00  0.00     0.162 C 
HETATM   18  C1  UNL     1      28.705   8.153  45.644  1.00  0.00     0.042 C 
HETATM   19  O1  UNL     1      27.425   9.202  47.282  1.00  0.00    -0.381 OA
HETATM   20  C3  UNL     1      26.993   9.099  48.590  1.00  0.00     0.198 C 
HETATM   21  C4  UNL     1      28.185   8.910  49.473  1.00  0.00     0.297 C 
HETATM   22  N1  UNL     1      29.116   8.006  48.875  1.00  0.00     0.104 N 
HETATM   23  H9  UNL     1      29.565   7.359  49.582  1.00  0.00     0.317 HD
ENDBRANCH  15  16
ENDBRANCH  11  14
ENDBRANCH   1  10
BRANCH   8  24
HETATM   24  N5  UNL     1      27.058  -0.190  53.733  1.00  0.00    -0.377 N 
HETATM   25  H16 UNL     1      26.938  -1.229  53.522  1.00  0.00     0.160 HD
BRANCH  24  26
HETATM   26  C15 UNL     1      28.111   0.130  54.672  1.00  0.00     0.129 C 
BRANCH  26  27
HETATM   27  C16 UNL     1      29.420  -0.080  53.944  1.00  0.00     0.047 C 
HETATM   28  C17 UNL     1      29.811  -1.246  53.420  1.00  0.00     0.420 C 
HETATM   29  F1  UNL     1      29.296  -2.498  53.339  1.00  0.00    -0.455 F 
ENDBRANCH  26  27
ENDBRANCH  24  26
ENDBRANCH   8  24
TORSDOF 6
ENDMDL
MODEL 2
REMARK VINA RESULT:      -8.0      3.046      8.653
REMARK  6 active torsions:
REMARK  status: ('A' for Active; 'I' for Inactive)
REMARK    1  A    between atoms: C5_7  and  C6_8 
REMARK    2  A    between atoms: C7_9  and  C8_10 
REMARK       I    between atoms: C8_10  and  N2_12 
REMARK    3  A    between atoms: N2_12  and  C9_13 
REMARK    4  A    between atoms: C14_20  and  N5_21 
REMARK    5  A    between atoms: N5_21  and  C15_22 
REMARK    6  A    between atoms: C15_22  and  C16_23 
ROOT
HETATM    1  C9  UNL     1      26.503   4.830  49.220  1.00  0.00     0.006 C 
HETATM    2  C10 UNL     1      25.576   5.683  48.909  1.00  0.00     0.069 C 
HETATM    3  C11 UNL     1      24.280   6.265  48.839  1.00  0.00     0.004 C 
HETATM    4  C12 UNL     1      24.622   7.349  48.113  1.00  0.00     0.114 C 
HETATM    5  N3  UNL     1      25.060   8.454  47.355  1.00  0.00    -0.254 NA
HETATM    6  C13 UNL     1      26.324   8.450  47.026  1.00  0.00     0.234 C 
HETATM    7  N4  UNL     1      26.504   7.243  47.683  1.00  0.00    -0.229 NA
HETATM    8  C14 UNL     1      27.600   6.659  47.920  1.00  0.00     0.106 C 
HETATM    9  C18 UNL     1      27.743   5.404  48.635  1.00  0.00     0.131 C 
ENDROOT
BRANCH   1  10
HETATM   10  N2  UNL     1      26.830   3.589  49.891  1.00  0.00    -0.323 N 
HETATM   11  C8  UNL     1      26.056   2.947  50.876  1.00  0.00     0.300 C 
HETATM   12  O2  UNL     1      24.977   3.484  51.220  1.00  0.00    -0.258 OA
HETATM   13  H11 UNL     1      27.695   3.076  49.673  1.00  0.00     0.169 HD
BRANCH  11  14
HETATM   14  C7  UNL     1      26.458   1.712  51.488  1.00  0.00    -0.003 C 
HETATM   15  C6  UNL     1      26.815   0.675  52.012  1.00  0.00    -0.058 C 
BRANCH  15  16
HETATM   16  C5  UNL     1      27.246  -0.570  52.652  1.00  0.00     0.327 C 
HETATM   17  C2  UNL     1      28.353  -0.284  53.626  1.00  0.00     0.162 C 
HETATM   18  C1  UNL     1      29.366  -1.420  53.466  1.00  0.00     0.042 C 
HETATM   19  O1  UNL     1      27.923  -0.353  54.951  1.00  0.00    -0.381 OA
HETATM   20  C3  UNL     1      26.705   0.291  55.048  1.00  0.00     0.198 C 
HETATM   21  C4  UNL     1      25.648  -0.596  54.470  1.00  0.00     0.297 C 
HETATM   22  N1  UNL     1      26.116  -1.225  53.277  1.00  0.00     0.104 N 
HETATM   23  H9  UNL     1      25.367  -1.294  52.533  1.00  0.00     0.317 HD
ENDBRANCH  15  16
ENDBRANCH  11  14
ENDBRANCH   1  10
BRANCH   8  24
HETATM   24  N5  UNL     1      28.791   7.288  47.472  1.00  0.00    -0.377 N 
HETATM   25  H16 UNL     1      28.840   7.488  46.425  1.00  0.00     0.160 HD
BRANCH  24  26
HETATM   26  C15 UNL     1      29.948   7.706  48.234  1.00  0.00     0.129 C 
BRANCH  26  27
HETATM   27  C16 UNL     1      31.163   7.184  47.500  1.00  0.00     0.047 C 
HETATM   28  C17 UNL     1      31.403   5.889  47.267  1.00  0.00     0.420 C 
HETATM   29  F1  UNL     1      30.777   4.718  47.543  1.00  0.00    -0.455 F 
ENDBRANCH  26  27
ENDBRANCH  24  26
ENDBRANCH   8  24
TORSDOF 6
ENDMDL
MODEL 3
REMARK VINA RESULT:      -7.8      2.413      2.895
REMARK  6 active torsions:
REMARK  status: ('A' for Active; 'I' for Inactive)
REMARK    1  A    between atoms: C5_7  and  C6_8 
REMARK    2  A    between atoms: C7_9  and  C8_10 
REMARK       I    between atoms: C8_10  and  N2_12 
REMARK    3  A    between atoms: N2_12  and  C9_13 
REMARK    4  A    between atoms: C14_20  and  N5_21 
REMARK    5  A    between atoms: N5_21  and  C15_22 
REMARK    6  A    between atoms: C15_22  and  C16_23 
ROOT
HETATM    1  C9  UNL     1      25.901   3.147  50.238  1.00  0.00     0.006 C 
HETATM    2  C10 UNL     1      24.635   2.881  50.142  1.00  0.00     0.069 C 
HETATM    3  C11 UNL     1      23.303   2.932  49.642  1.00  0.00     0.004 C 
HETATM    4  C12 UNL     1      22.761   2.062  50.520  1.00  0.00     0.114 C 
HETATM    5  N3  UNL     1      22.272   1.145  51.472  1.00  0.00    -0.254 NA
HETATM    6  C13 UNL     1      23.142   0.723  52.350  1.00  0.00     0.234 C 
HETATM    7  N4  UNL     1      24.128   1.502  51.768  1.00  0.00    -0.229 NA
HETATM    8  C14 UNL     1      25.366   1.488  52.026  1.00  0.00     0.106 C 
HETATM    9  C18 UNL     1      26.368   2.309  51.373  1.00  0.00     0.131 C 
ENDROOT
BRANCH   1  10
HETATM   10  N2  UNL     1      27.024   3.893  49.709  1.00  0.00    -0.323 N 
HETATM   11  C8  UNL     1      26.953   5.056  48.921  1.00  0.00     0.300 C 
HETATM   12  O2  UNL     1      25.819   5.507  48.636  1.00  0.00    -0.258 OA
HETATM   13  H11 UNL     1      27.993   3.598  49.891  1.00  0.00     0.169 HD
BRANCH  11  14
HETATM   14  C7  UNL     1      28.124   5.734  48.439  1.00  0.00    -0.003 C 
HETATM   15  C6  UNL     1      29.111   6.322  48.044  1.00  0.00    -0.058 C 
BRANCH  15  16
HETATM   16  C5  UNL     1      30.304   7.032  47.577  1.00  0.00     0.327 C 
HETATM   17  C2  UNL     1      30.783   7.977  48.641  1.00  0.00     0.162 C 
HETATM   18  C1  UNL     1      31.203   9.258  47.918  1.00  0.00     0.042 C 
HETATM   19  O1  UNL     1      31.935   7.516  49.278  1.00  0.00    -0.381 OA
HETATM   20  C3  UNL     1      31.779   6.168  49.539  1.00  0.00     0.198 C 
HETATM   21  C4  UNL     1      31.964   5.410  48.263  1.00  0.00     0.297 C 
HETATM   22  N1  UNL     1      31.323   6.084  47.179  1.00  0.00     0.104 N 
HETATM   23  H9  UNL     1      30.857   5.416  46.504  1.00  0.00     0.317 HD
ENDBRANCH  15  16
ENDBRANCH  11  14
ENDBRANCH   1  10
BRANCH   8  24
HETATM   24  N5  UNL     1      25.819   0.582  53.022  1.00  0.00    -0.377 N 
HETATM   25  H16 UNL     1      25.724  -0.452  52.780  1.00  0.00     0.160 HD
BRANCH  24  26
HETATM   26  C15 UNL     1      26.401   0.862  54.317  1.00  0.00     0.129 C 
BRANCH  26  27
HETATM   27  C16 UNL     1      27.880   0.568  54.201  1.00  0.00     0.047 C 
HETATM   28  C17 UNL     1      28.816   1.495  53.972  1.00  0.00     0.420 C 
HETATM   29  F1  UNL     1      28.830   2.838  53.781  1.00  0.00    -0.455 F 
ENDBRANCH  26  27
ENDBRANCH  24  26
ENDBRANCH   8  24
TORSDOF 6
ENDMDL
MODEL 4
REMARK VINA RESULT:      -7.6      2.189      3.816
REMARK  6 active torsions:
REMARK  status: ('A' for Active; 'I' for Inactive)
REMARK    1  A    between atoms: C5_7  and  C6_8 
REMARK    2  A    between atoms: C7_9  and  C8_10 
REMARK       I    between atoms: C8_10  and  N2_12 
REMARK    3  A    between atoms: N2_12  and  C9_13 
REMARK    4  A    between atoms: C14_20  and  N5_21 
REMARK    5  A    between atoms: N5_21  and  C15_22 
REMARK    6  A    between atoms: C15_22  and  C16_23 
ROOT
HETATM    1  C9  UNL     1      25.761   2.682  52.070  1.00  0.00     0.006 C 
HETATM    2  C10 UNL     1      26.378   1.949  52.944  1.00  0.00     0.069 C 
HETATM    3  C11 UNL     1      27.418   1.515  53.814  1.00  0.00     0.004 C 
HETATM    4  C12 UNL     1      26.787   0.427  54.300  1.00  0.00     0.114 C 
HETATM    5  N3  UNL     1      26.061  -0.691  54.759  1.00  0.00    -0.254 NA
HETATM    6  C13 UNL     1      24.888  -0.868  54.212  1.00  0.00     0.234 C 
HETATM    7  N4  UNL     1      25.069   0.259  53.427  1.00  0.00    -0.229 NA
HETATM    8  C14 UNL     1      24.210   0.826  52.693  1.00  0.00     0.106 C 
HETATM    9  C18 UNL     1      24.439   2.022  51.904  1.00  0.00     0.131 C 
ENDROOT
BRANCH   1  10
HETATM   10  N2  UNL     1      25.814   3.850  51.216  1.00  0.00    -0.323 N 
HETATM   11  C8  UNL     1      26.409   3.923  49.942  1.00  0.00     0.300 C 
HETATM   12  O2  UNL     1      26.951   2.889  49.485  1.00  0.00    -0.258 OA
HETATM   13  H11 UNL     1      25.395   4.743  51.508  1.00  0.00     0.169 HD
BRANCH  11  14
HETATM   14  C7  UNL     1      26.413   5.128  49.161  1.00  0.00    -0.003 C 
HETATM   15  C6  UNL     1      26.406   6.156  48.514  1.00  0.00    -0.058 C 
BRANCH  15  16
HETATM   16  C5  UNL     1      26.402   7.401  47.743  1.00  0.00     0.327 C 
HETATM   17  C2  UNL     1      25.428   8.371  48.345  1.00  0.00     0.162 C 
HETATM   18  C1  UNL     1      24.714   9.045  47.172  1.00  0.00     0.042 C 
HETATM   19  O1  UNL     1      26.064   9.402  49.035  1.00  0.00    -0.381 OA
HETATM   20  C3  UNL     1      27.085   8.856  49.789  1.00  0.00     0.198 C 
HETATM   21  C4  UNL     1      28.224   8.519  48.879  1.00  0.00     0.297 C 
HETATM   22  N1  UNL     1      27.743   7.942  47.664  1.00  0.00     0.104 N 
HETATM   23  H9  UNL     1      28.359   7.155  47.317  1.00  0.00     0.317 HD
ENDBRANCH  15  16
ENDBRANCH  11  14
ENDBRANCH   1  10
BRANCH   8  24
HETATM   24  N5  UNL     1      22.908   0.261  52.650  1.00  0.00    -0.377 N 
HETATM   25  H16 UNL     1      22.850  -0.734  52.270  1.00  0.00     0.160 HD
BRANCH  24  26
HETATM   26  C15 UNL     1      21.645   0.839  53.056  1.00  0.00     0.129 C 
BRANCH  26  27
HETATM   27  C16 UNL     1      21.269   0.184  54.366  1.00  0.00     0.047 C 
HETATM   28  C17 UNL     1      21.295  -1.136  54.582  1.00  0.00     0.420 C 
HETATM   29  F1  UNL     1      21.608  -2.236  53.853  1.00  0.00    -0.455 F 
ENDBRANCH  26  27
ENDBRANCH  24  26
ENDBRANCH   8  24
TORSDOF 6
ENDMDL
MODEL 5
REMARK VINA RESULT:      -7.3      1.955      2.427
REMARK  6 active torsions:
REMARK  status: ('A' for Active; 'I' for Inactive)
REMARK    1  A    between atoms: C5_7  and  C6_8 
REMARK    2  A    between atoms: C7_9  and  C8_10 
REMARK       I    between atoms: C8_10  and  N2_12 
REMARK    3  A    between atoms: N2_12  and  C9_13 
REMARK    4  A    between atoms: C14_20  and  N5_21 
REMARK    5  A    between atoms: N5_21  and  C15_22 
REMARK    6  A    between atoms: C15_22  and  C16_23 
ROOT
HETATM    1  C9  UNL     1      26.122   3.509  49.726  1.00  0.00     0.006 C 
HETATM    2  C10 UNL     1      24.862   3.215  49.630  1.00  0.00     0.069 C 
HETATM    3  C11 UNL     1      23.538   3.207  49.108  1.00  0.00     0.004 C 
HETATM    4  C12 UNL     1      22.996   2.394  50.037  1.00  0.00     0.114 C 
HETATM    5  N3  UNL     1      22.505   1.540  51.045  1.00  0.00    -0.254 NA
HETATM    6  C13 UNL     1      23.367   1.196  51.965  1.00  0.00     0.234 C 
HETATM    7  N4  UNL     1      24.350   1.948  51.343  1.00  0.00    -0.229 NA
HETATM    8  C14 UNL     1      25.584   1.973  51.621  1.00  0.00     0.106 C 
HETATM    9  C18 UNL     1      26.583   2.762  50.925  1.00  0.00     0.131 C 
ENDROOT
BRANCH   1  10
HETATM   10  N2  UNL     1      27.242   4.233  49.162  1.00  0.00    -0.323 N 
HETATM   11  C8  UNL     1      27.212   5.542  48.647  1.00  0.00     0.300 C 
HETATM   12  O2  UNL     1      26.121   6.159  48.668  1.00  0.00    -0.258 OA
HETATM   13  H11 UNL     1      28.177   3.807  49.103  1.00  0.00     0.169 HD
BRANCH  11  14
HETATM   14  C7  UNL     1      28.377   6.185  48.107  1.00  0.00    -0.003 C 
HETATM   15  C6  UNL     1      29.369   6.733  47.668  1.00  0.00    -0.058 C 
BRANCH  15  16
HETATM   16  C5  UNL     1      30.571   7.386  47.144  1.00  0.00     0.327 C 
HETATM   17  C2  UNL     1      30.189   8.393  46.100  1.00  0.00     0.162 C 
HETATM   18  C1  UNL     1      31.225   8.265  44.982  1.00  0.00     0.042 C 
HETATM   19  O1  UNL     1      30.301   9.704  46.562  1.00  0.00    -0.381 OA
HETATM   20  C3  UNL     1      29.772   9.763  47.837  1.00  0.00     0.198 C 
HETATM   21  C4  UNL     1      30.750   9.152  48.789  1.00  0.00     0.297 C 
HETATM   22  N1  UNL     1      31.330   7.973  48.228  1.00  0.00     0.104 N 
HETATM   23  H9  UNL     1      31.464   7.207  48.945  1.00  0.00     0.317 HD
ENDBRANCH  15  16
ENDBRANCH  11  14
ENDBRANCH   1  10
BRANCH   8  24
HETATM   24  N5  UNL     1      26.034   1.149  52.686  1.00  0.00    -0.377 N 
HETATM   25  H16 UNL     1      25.476   1.222  53.592  1.00  0.00     0.160 HD
BRANCH  24  26
HETATM   26  C15 UNL     1      27.139   0.216  52.716  1.00  0.00     0.129 C 
BRANCH  26  27
HETATM   27  C16 UNL     1      26.561  -1.152  52.429  1.00  0.00     0.047 C 
HETATM   28  C17 UNL     1      27.237  -2.298  52.557  1.00  0.00     0.420 C 
HETATM   29  F1  UNL     1      28.494  -2.650  52.927  1.00  0.00    -0.455 F 
ENDBRANCH  26  27
ENDBRANCH  24  26
ENDBRANCH   8  24
TORSDOF 6
ENDMDL
MODEL 6
REMARK VINA RESULT:      -7.1      3.400      8.699
REMARK  6 active torsions:
REMARK  status: ('A' for Active; 'I' for Inactive)
REMARK    1  A    between atoms: C5_7  and  C6_8 
REMARK    2  A    between atoms: C7_9  and  C8_10 
REMARK       I    between atoms: C8_10  and  N2_12 
REMARK    3  A    between atoms: N2_12  and  C9_13 
REMARK    4  A    between atoms: C14_20  and  N5_21 
REMARK    5  A    between atoms: N5_21  and  C15_22 
REMARK    6  A    between atoms: C15_22  and  C16_23 
ROOT
HETATM    1  C9  UNL     1      26.413   5.199  49.688  1.00  0.00     0.006 C 
HETATM    2  C10 UNL     1      26.759   6.077  48.797  1.00  0.00     0.069 C 
HETATM    3  C11 UNL     1      27.552   6.716  47.804  1.00  0.00     0.004 C 
HETATM    4  C12 UNL     1      26.714   7.743  47.555  1.00  0.00     0.114 C 
HETATM    5  N3  UNL     1      25.785   8.784  47.353  1.00  0.00    -0.254 NA
HETATM    6  C13 UNL     1      24.727   8.755  48.119  1.00  0.00     0.234 C 
HETATM    7  N4  UNL     1      25.189   7.605  48.736  1.00  0.00    -0.229 NA
HETATM    8  C14 UNL     1      24.561   6.870  49.551  1.00  0.00     0.106 C 
HETATM    9  C18 UNL     1      25.079   5.657  50.157  1.00  0.00     0.131 C 
ENDROOT
BRANCH   1  10
HETATM   10  N2  UNL     1      26.769   3.985  50.393  1.00  0.00    -0.323 N 
HETATM   11  C8  UNL     1      25.982   2.824  50.498  1.00  0.00     0.300 C 
HETATM   12  O2  UNL     1      24.861   2.818  49.937  1.00  0.00    -0.258 OA
HETATM   13  H11 UNL     1      27.670   3.898  50.883  1.00  0.00     0.169 HD
BRANCH  11  14
HETATM   14  C7  UNL     1      26.417   1.660  51.218  1.00  0.00    -0.003 C 
HETATM   15  C6  UNL     1      26.768   0.669  51.828  1.00  0.00    -0.058 C 
BRANCH  15  16
HETATM   16  C5  UNL     1      27.186  -0.531  52.556  1.00  0.00     0.327 C 
HETATM   17  C2  UNL     1      28.250  -0.178  53.553  1.00  0.00     0.162 C 
HETATM   18  C1  UNL     1      29.279  -1.308  53.499  1.00  0.00     0.042 C 
HETATM   19  O1  UNL     1      27.769  -0.175  54.863  1.00  0.00    -0.381 OA
HETATM   20  C3  UNL     1      26.541   0.459  54.874  1.00  0.00     0.198 C 
HETATM   21  C4  UNL     1      25.517  -0.473  54.308  1.00  0.00     0.297 C 
HETATM   22  N1  UNL     1      26.038  -1.164  53.172  1.00  0.00     0.104 N 
HETATM   23  H9  UNL     1      25.319  -1.284  52.405  1.00  0.00     0.317 HD
ENDBRANCH  15  16
ENDBRANCH  11  14
ENDBRANCH   1  10
BRANCH   8  24
HETATM   24  N5  UNL     1      23.234   7.246  49.888  1.00  0.00    -0.377 N 
HETATM   25  H16 UNL     1      23.123   8.225  50.297  1.00  0.00     0.160 HD
BRANCH  24  26
HETATM   26  C15 UNL     1      22.006   6.494  49.747  1.00  0.00     0.129 C 
BRANCH  26  27
HETATM   27  C16 UNL     1      21.550   6.142  51.145  1.00  0.00     0.047 C 
HETATM   28  C17 UNL     1      21.718   4.942  51.712  1.00  0.00     0.420 C 
HETATM   29  F1  UNL     1      22.264   3.758  51.340  1.00  0.00    -0.455 F 
ENDBRANCH  26  27
ENDBRANCH  24  26
ENDBRANCH   8  24
TORSDOF 6
ENDMDL
MODEL 7
REMARK VINA RESULT:      -7.0      2.536      4.305
REMARK  6 active torsions:
REMARK  status: ('A' for Active; 'I' for Inactive)
REMARK    1  A    between atoms: C5_7  and  C6_8 
REMARK    2  A    between atoms: C7_9  and  C8_10 
REMARK       I    between atoms: C8_10  and  N2_12 
REMARK    3  A    between atoms: N2_12  and  C9_13 
REMARK    4  A    between atoms: C14_20  and  N5_21 
REMARK    5  A    between atoms: N5_21  and  C15_22 
REMARK    6  A    between atoms: C15_22  and  C16_23 
ROOT
HETATM    1  C9  UNL     1      24.901   2.889  51.599  1.00  0.00     0.006 C 
HETATM    2  C10 UNL     1      25.105   1.733  52.153  1.00  0.00     0.069 C 
HETATM    3  C11 UNL     1      25.816   0.586  52.604  1.00  0.00     0.004 C 
HETATM    4  C12 UNL     1      24.762  -0.066  53.137  1.00  0.00     0.114 C 
HETATM    5  N3  UNL     1      23.612  -0.682  53.670  1.00  0.00    -0.254 NA
HETATM    6  C13 UNL     1      22.491  -0.034  53.496  1.00  0.00     0.234 C 
HETATM    7  N4  UNL     1      23.162   0.975  52.825  1.00  0.00    -0.229 NA
HETATM    8  C14 UNL     1      22.696   2.092  52.460  1.00  0.00     0.106 C 
HETATM    9  C18 UNL     1      23.446   3.131  51.778  1.00  0.00     0.131 C 
ENDROOT
BRANCH   1  10
HETATM   10  N2  UNL     1      25.485   4.019  50.907  1.00  0.00    -0.323 N 
HETATM   11  C8  UNL     1      26.306   3.961  49.765  1.00  0.00     0.300 C 
HETATM   12  O2  UNL     1      26.570   2.833  49.286  1.00  0.00    -0.258 OA
HETATM   13  H11 UNL     1      25.322   4.983  51.228  1.00  0.00     0.169 HD
BRANCH  11  14
HETATM   14  C7  UNL     1      26.841   5.138  49.140  1.00  0.00    -0.003 C 
HETATM   15  C6  UNL     1      27.280   6.144  48.620  1.00  0.00    -0.058 C 
BRANCH  15  16
HETATM   16  C5  UNL     1      27.810   7.362  48.002  1.00  0.00     0.327 C 
HETATM   17  C2  UNL     1      26.738   8.028  47.189  1.00  0.00     0.162 C 
HETATM   18  C1  UNL     1      27.415   8.519  45.908  1.00  0.00     0.042 C 
HETATM   19  O1  UNL     1      26.239   9.175  47.808  1.00  0.00    -0.381 OA
HETATM   20  C3  UNL     1      26.050   8.898  49.148  1.00  0.00     0.198 C 
HETATM   21  C4  UNL     1      27.382   8.892  49.828  1.00  0.00     0.297 C 
HETATM   22  N1  UNL     1      28.358   8.237  49.017  1.00  0.00     0.104 N 
HETATM   23  H9  UNL     1      29.028   7.646  49.584  1.00  0.00     0.317 HD
ENDBRANCH  15  16
ENDBRANCH  11  14
ENDBRANCH   1  10
BRANCH   8  24
HETATM   24  N5  UNL     1      21.335   2.365  52.759  1.00  0.00    -0.377 N 
HETATM   25  H16 UNL     1      21.041   2.190  53.769  1.00  0.00     0.160 HD
BRANCH  24  26
HETATM   26  C15 UNL     1      20.289   2.858  51.890  1.00  0.00     0.129 C 
BRANCH  26  27
HETATM   27  C16 UNL     1      19.434   1.666  51.520  1.00  0.00     0.047 C 
HETATM   28  C17 UNL     1      19.876   0.608  50.832  1.00  0.00     0.420 C 
HETATM   29  F1  UNL     1      21.055   0.230  50.279  1.00  0.00    -0.455 F 
ENDBRANCH  26  27
ENDBRANCH  24  26
ENDBRANCH   8  24
TORSDOF 6
ENDMDL
MODEL 8
REMARK VINA RESULT:      -7.0      3.661      9.250
REMARK  6 active torsions:
REMARK  status: ('A' for Active; 'I' for Inactive)
REMARK    1  A    between atoms: C5_7  and  C6_8 
REMARK    2  A    between atoms: C7_9  and  C8_10 
REMARK       I    between atoms: C8_10  and  N2_12 
REMARK    3  A    between atoms: N2_12  and  C9_13 
REMARK    4  A    between atoms: C14_20  and  N5_21 
REMARK    5  A    between atoms: N5_21  and  C15_22 
REMARK    6  A    between atoms: C15_22  and  C16_23 
ROOT
HETATM    1  C9  UNL     1      26.176   5.748  49.337  1.00  0.00     0.006 C 
HETATM    2  C10 UNL     1      27.019   6.373  48.575  1.00  0.00     0.069 C 
HETATM    3  C11 UNL     1      28.273   6.794  48.050  1.00  0.00     0.004 C 
HETATM    4  C12 UNL     1      27.789   7.610  47.091  1.00  0.00     0.114 C 
HETATM    5  N3  UNL     1      27.205   8.442  46.115  1.00  0.00    -0.254 NA
HETATM    6  C13 UNL     1      25.900   8.510  46.136  1.00  0.00     0.234 C 
HETATM    7  N4  UNL     1      25.859   7.638  47.212  1.00  0.00    -0.229 NA
HETATM    8  C14 UNL     1      24.835   7.095  47.717  1.00  0.00     0.106 C 
HETATM    9  C18 UNL     1      24.842   6.166  48.832  1.00  0.00     0.131 C 
ENDROOT
BRANCH   1  10
HETATM   10  N2  UNL     1      25.994   4.827  50.440  1.00  0.00    -0.323 N 
HETATM   11  C8  UNL     1      26.348   3.465  50.453  1.00  0.00     0.300 C 
HETATM   12  O2  UNL     1      26.870   2.982  49.422  1.00  0.00    -0.258 OA
HETATM   13  H11 UNL     1      25.574   5.135  51.328  1.00  0.00     0.169 HD
BRANCH  11  14
HETATM   14  C7  UNL     1      26.132   2.624  51.597  1.00  0.00    -0.003 C 
HETATM   15  C6  UNL     1      25.931   1.911  52.560  1.00  0.00    -0.058 C 
BRANCH  15  16
HETATM   16  C5  UNL     1      25.684   1.044  53.715  1.00  0.00     0.327 C 
HETATM   17  C2  UNL     1      25.353  -0.344  53.248  1.00  0.00     0.162 C 
HETATM   18  C1  UNL     1      24.220  -0.839  54.148  1.00  0.00     0.042 C 
HETATM   19  O1  UNL     1      26.406  -1.236  53.452  1.00  0.00    -0.381 OA
HETATM   20  C3  UNL     1      27.581  -0.617  53.072  1.00  0.00     0.198 C 
HETATM   21  C4  UNL     1      27.969   0.364  54.132  1.00  0.00     0.297 C 
HETATM   22  N1  UNL     1      26.823   1.070  54.609  1.00  0.00     0.104 N 
HETATM   23  H9  UNL     1      27.026   2.091  54.799  1.00  0.00     0.317 HD
ENDBRANCH  15  16
ENDBRANCH  11  14
ENDBRANCH   1  10
BRANCH   8  24
HETATM   24  N5  UNL     1      23.576   7.399  47.136  1.00  0.00    -0.377 N 
HETATM   25  H16 UNL     1      23.162   8.345  47.404  1.00  0.00     0.160 HD
BRANCH  24  26
HETATM   26  C15 UNL     1      22.775   6.613  46.223  1.00  0.00     0.129 C 
BRANCH  26  27
HETATM   27  C16 UNL     1      21.574   6.129  47.005  1.00  0.00     0.047 C 
HETATM   28  C17 UNL     1      21.533   4.981  47.689  1.00  0.00     0.420 C 
HETATM   29  F1  UNL     1      22.391   3.957  47.922  1.00  0.00    -0.455 F 
ENDBRANCH  26  27
ENDBRANCH  24  26
ENDBRANCH   8  24
TORSDOF 6
ENDMDL
MODEL 9
REMARK VINA RESULT:      -6.9      3.839      5.328
REMARK  6 active torsions:
REMARK  status: ('A' for Active; 'I' for Inactive)
REMARK    1  A    between atoms: C5_7  and  C6_8 
REMARK    2  A    between atoms: C7_9  and  C8_10 
REMARK       I    between atoms: C8_10  and  N2_12 
REMARK    3  A    between atoms: N2_12  and  C9_13 
REMARK    4  A    between atoms: C14_20  and  N5_21 
REMARK    5  A    between atoms: N5_21  and  C15_22 
REMARK    6  A    between atoms: C15_22  and  C16_23 
ROOT
HETATM    1  C9  UNL     1      26.273   5.047  49.102  1.00  0.00     0.006 C 
HETATM    2  C10 UNL     1      25.236   5.806  48.921  1.00  0.00     0.069 C 
HETATM    3  C11 UNL     1      24.435   6.849  48.378  1.00  0.00     0.004 C 
HETATM    4  C12 UNL     1      23.330   6.613  49.115  1.00  0.00     0.114 C 
HETATM    5  N3  UNL     1      22.218   6.303  49.923  1.00  0.00    -0.254 NA
HETATM    6  C13 UNL     1      22.391   5.328  50.776  1.00  0.00     0.234 C 
HETATM    7  N4  UNL     1      23.695   5.160  50.338  1.00  0.00    -0.229 NA
HETATM    8  C14 UNL     1      24.488   4.224  50.643  1.00  0.00     0.106 C 
HETATM    9  C18 UNL     1      25.842   4.075  50.140  1.00  0.00     0.131 C 
ENDROOT
BRANCH   1  10
HETATM   10  N2  UNL     1      27.638   4.751  48.718  1.00  0.00    -0.323 N 
HETATM   11  C8  UNL     1      28.610   5.686  48.317  1.00  0.00     0.300 C 
HETATM   12  O2  UNL     1      28.285   6.896  48.281  1.00  0.00    -0.258 OA
HETATM   13  H11 UNL     1      27.994   3.786  48.717  1.00  0.00     0.169 HD
BRANCH  11  14
HETATM   14  C7  UNL     1      29.946   5.302  47.954  1.00  0.00    -0.003 C 
HETATM   15  C6  UNL     1      31.080   4.976  47.666  1.00  0.00    -0.058 C 
BRANCH  15  16
HETATM   16  C5  UNL     1      32.447   4.575  47.325  1.00  0.00     0.327 C 
HETATM   17  C2  UNL     1      32.926   5.358  46.138  1.00  0.00     0.162 C 
HETATM   18  C1  UNL     1      33.696   4.372  45.257  1.00  0.00     0.042 C 
HETATM   19  O1  UNL     1      33.851   6.341  46.490  1.00  0.00    -0.381 OA
HETATM   20  C3  UNL     1      33.397   6.978  47.628  1.00  0.00     0.198 C 
HETATM   21  C4  UNL     1      33.630   6.082  48.803  1.00  0.00     0.297 C 
HETATM   22  N1  UNL     1      33.312   4.729  48.475  1.00  0.00     0.104 N 
HETATM   23  H9  UNL     1      32.839   4.219  49.272  1.00  0.00     0.317 HD
ENDBRANCH  15  16
ENDBRANCH  11  14
ENDBRANCH   1  10
BRANCH   8  24
HETATM   24  N5  UNL     1      24.015   3.224  51.534  1.00  0.00    -0.377 N 
HETATM   25  H16 UNL     1      23.338   2.516  51.112  1.00  0.00     0.160 HD
BRANCH  24  26
HETATM   26  C15 UNL     1      24.327   3.023  52.932  1.00  0.00     0.129 C 
BRANCH  26  27
HETATM   27  C16 UNL     1      25.255   1.831  53.002  1.00  0.00     0.047 C 
HETATM   28  C17 UNL     1      24.882   0.609  53.397  1.00  0.00     0.420 C 
HETATM   29  F1  UNL     1      23.730   0.033  53.823  1.00  0.00    -0.455 F 
ENDBRANCH  26  27
ENDBRANCH  24  26
ENDBRANCH   8  24
TORSDOF 6
ENDMDL
