MODEL 1
REMARK VINA RESULT:      -8.1      0.000      0.000
REMARK  3 active torsions:
REMARK  status: ('A' for Active; 'I' for Inactive)
REMARK    1  A    between atoms: C4_7  and  N4_8 
REMARK    2  A    between atoms: N4_8  and  C5_9 
REMARK    3  A    between atoms: C12_17  and  C13_18 
ROOT
HETATM    1  C1  UNL     1      25.085  -0.736  54.535  1.00  0.00     0.313 C 
HETATM    2  N1  UNL     1      25.522   0.428  53.793  1.00  0.00     0.119 N 
HETATM    3  C2  UNL     1      26.885   0.278  53.344  1.00  0.00     0.359 A 
HETATM    4  N2  UNL     1      27.781   1.225  53.986  1.00  0.00    -0.246 NA
HETATM    5  C3  UNL     1      28.169   2.339  53.484  1.00  0.00     0.231 A 
HETATM    6  N3  UNL     1      27.718   2.731  52.180  1.00  0.00    -0.228 NA
HETATM    7  C4  UNL     1      26.926   1.981  51.492  1.00  0.00     0.116 A 
HETATM    8  C11 UNL     1      26.478   0.661  51.982  1.00  0.00     0.148 A 
HETATM    9  C12 UNL     1      25.089   0.483  52.430  1.00  0.00     0.273 C 
ENDROOT
BRANCH   7  10
HETATM   10  N4  UNL     1      26.413   2.289  50.176  1.00  0.00    -0.344 N 
HETATM   11  H6  UNL     1      26.113   1.560  49.494  1.00  0.00     0.167 HD
BRANCH  10  12
HETATM   12  C5  UNL     1      26.340   3.698  49.860  1.00  0.00     0.035 A 
HETATM   13  C6  UNL     1      27.356   4.070  48.973  1.00  0.00     0.029 A 
HETATM   14  C7  UNL     1      27.360   5.414  48.611  1.00  0.00     0.004 A 
HETATM   15  C8  UNL     1      26.463   6.370  49.051  1.00  0.00     0.024 A 
HETATM   16  C9  UNL     1      25.506   5.897  49.919  1.00  0.00     0.036 A 
HETATM   17 CL1  UNL     1      24.322   7.054  50.528  1.00  0.00    -0.084 Cl
HETATM   18  C10 UNL     1      25.412   4.598  50.338  1.00  0.00     0.053 A 
ENDBRANCH  10  12
ENDBRANCH   7  10
BRANCH   9  19
HETATM   19  C13 UNL     1      24.131   1.601  52.222  1.00  0.00    -0.024 A 
HETATM   20  C14 UNL     1      24.100   2.730  53.053  1.00  0.00     0.011 A 
HETATM   21  C15 UNL     1      23.170   3.725  52.780  1.00  0.00     0.024 A 
HETATM   22  C16 UNL     1      22.276   3.667  51.736  1.00  0.00     0.034 A 
HETATM   23 CL2  UNL     1      21.105   4.929  51.411  1.00  0.00    -0.084 Cl
HETATM   24  C17 UNL     1      22.281   2.552  50.886  1.00  0.00     0.024 A 
HETATM   25  C18 UNL     1      23.215   1.594  51.193  1.00  0.00     0.011 A 
ENDBRANCH   9  19
TORSDOF 3
ENDMDL
MODEL 2
REMARK VINA RESULT:      -8.0      2.767      5.877
REMARK  3 active torsions:
REMARK  status: ('A' for Active; 'I' for Inactive)
REMARK    1  A    between atoms: C4_7  and  N4_8 
REMARK    2  A    between atoms: N4_8  and  C5_9 
REMARK    3  A    between atoms: C12_17  and  C13_18 
ROOT
HETATM    1  C1  UNL     1      21.832   2.883  48.233  1.00  0.00     0.313 C 
HETATM    2  N1  UNL     1      22.567   3.456  49.340  1.00  0.00     0.119 N 
HETATM    3  C2  UNL     1      22.078   2.961  50.604  1.00  0.00     0.359 A 
HETATM    4  N2  UNL     1      21.452   4.005  51.397  1.00  0.00    -0.246 NA
HETATM    5  C3  UNL     1      22.018   4.663  52.340  1.00  0.00     0.231 A 
HETATM    6  N3  UNL     1      23.382   4.382  52.688  1.00  0.00    -0.228 NA
HETATM    7  C4  UNL     1      24.056   3.472  52.072  1.00  0.00     0.116 A 
HETATM    8  C11 UNL     1      23.455   2.638  51.010  1.00  0.00     0.148 A 
HETATM    9  C12 UNL     1      23.839   2.855  49.609  1.00  0.00     0.273 C 
ENDROOT
BRANCH   7  10
HETATM   10  N4  UNL     1      25.431   3.119  52.345  1.00  0.00    -0.344 N 
HETATM   11  H6  UNL     1      26.218   3.801  52.293  1.00  0.00     0.167 HD
BRANCH  10  12
HETATM   12  C5  UNL     1      25.650   1.736  52.701  1.00  0.00     0.035 A 
HETATM   13  C6  UNL     1      26.572   1.132  51.840  1.00  0.00     0.029 A 
HETATM   14  C7  UNL     1      26.846  -0.206  52.114  1.00  0.00     0.004 A 
HETATM   15  C8  UNL     1      26.291  -0.949  53.138  1.00  0.00     0.024 A 
HETATM   16  C9  UNL     1      25.398  -0.258  53.924  1.00  0.00     0.036 A 
HETATM   17 CL1  UNL     1      24.643  -1.135  55.256  1.00  0.00    -0.084 Cl
HETATM   18  C10 UNL     1      25.059   1.055  53.744  1.00  0.00     0.053 A 
ENDBRANCH  10  12
ENDBRANCH   7  10
BRANCH   9  19
HETATM   19  C13 UNL     1      24.946   3.804  49.318  1.00  0.00    -0.024 A 
HETATM   20  C14 UNL     1      26.289   3.404  49.277  1.00  0.00     0.011 A 
HETATM   21  C15 UNL     1      27.255   4.362  48.996  1.00  0.00     0.024 A 
HETATM   22  C16 UNL     1      26.969   5.685  48.752  1.00  0.00     0.034 A 
HETATM   23 CL2  UNL     1      28.201   6.879  48.405  1.00  0.00    -0.084 Cl
HETATM   24  C17 UNL     1      25.635   6.117  48.784  1.00  0.00     0.024 A 
HETATM   25  C18 UNL     1      24.715   5.138  49.066  1.00  0.00     0.011 A 
ENDBRANCH   9  19
TORSDOF 3
ENDMDL
MODEL 3
REMARK VINA RESULT:      -7.9      3.495      6.550
REMARK  3 active torsions:
REMARK  status: ('A' for Active; 'I' for Inactive)
REMARK    1  A    between atoms: C4_7  and  N4_8 
REMARK    2  A    between atoms: N4_8  and  C5_9 
REMARK    3  A    between atoms: C12_17  and  C13_18 
ROOT
HETATM    1  C1  UNL     1      25.319   5.614  50.080  1.00  0.00     0.313 C 
HETATM    2  N1  UNL     1      24.529   4.678  50.850  1.00  0.00     0.119 N 
HETATM    3  C2  UNL     1      23.163   4.644  50.388  1.00  0.00     0.359 A 
HETATM    4  N2  UNL     1      22.235   5.158  51.381  1.00  0.00    -0.246 NA
HETATM    5  C3  UNL     1      21.547   4.446  52.195  1.00  0.00     0.231 A 
HETATM    6  N3  UNL     1      21.657   3.016  52.162  1.00  0.00    -0.228 NA
HETATM    7  C4  UNL     1      22.437   2.424  51.324  1.00  0.00     0.116 A 
HETATM    8  C11 UNL     1      23.222   3.175  50.321  1.00  0.00     0.148 A 
HETATM    9  C12 UNL     1      24.677   3.303  50.482  1.00  0.00     0.273 C 
ENDROOT
BRANCH   7  10
HETATM   10  N4  UNL     1      22.622   0.994  51.216  1.00  0.00    -0.344 N 
HETATM   11  H6  UNL     1      22.958   0.524  50.349  1.00  0.00     0.167 HD
BRANCH  10  12
HETATM   12  C5  UNL     1      22.305   0.244  52.410  1.00  0.00     0.035 A 
HETATM   13  C6  UNL     1      20.947  -0.088  52.453  1.00  0.00     0.029 A 
HETATM   14  C7  UNL     1      20.553  -0.817  53.573  1.00  0.00     0.004 A 
HETATM   15  C8  UNL     1      21.380  -1.219  54.605  1.00  0.00     0.024 A 
HETATM   16  C9  UNL     1      22.695  -0.841  54.461  1.00  0.00     0.036 A 
HETATM   17 CL1  UNL     1      23.818  -1.316  55.737  1.00  0.00    -0.084 Cl
HETATM   18  C10 UNL     1      23.187  -0.125  53.404  1.00  0.00     0.053 A 
ENDBRANCH  10  12
ENDBRANCH   7  10
BRANCH   9  19
HETATM   19  C13 UNL     1      25.339   2.531  51.567  1.00  0.00    -0.024 A 
HETATM   20  C14 UNL     1      25.237   2.893  52.918  1.00  0.00     0.011 A 
HETATM   21  C15 UNL     1      25.890   2.109  53.862  1.00  0.00     0.024 A 
HETATM   22  C16 UNL     1      26.630   0.994  53.547  1.00  0.00     0.034 A 
HETATM   23 CL2  UNL     1      27.451   0.022  54.751  1.00  0.00    -0.084 Cl
HETATM   24  C17 UNL     1      26.751   0.605  52.205  1.00  0.00     0.024 A 
HETATM   25  C18 UNL     1      26.091   1.407  51.307  1.00  0.00     0.011 A 
ENDBRANCH   9  19
TORSDOF 3
ENDMDL
MODEL 4
REMARK VINA RESULT:      -7.8      3.429      6.578
REMARK  3 active torsions:
REMARK  status: ('A' for Active; 'I' for Inactive)
REMARK    1  A    between atoms: C4_7  and  N4_8 
REMARK    2  A    between atoms: N4_8  and  C5_9 
REMARK    3  A    between atoms: C12_17  and  C13_18 
ROOT
HETATM    1  C1  UNL     1      25.394   5.571  50.071  1.00  0.00     0.313 C 
HETATM    2  N1  UNL     1      24.576   4.647  50.830  1.00  0.00     0.119 N 
HETATM    3  C2  UNL     1      23.228   4.605  50.320  1.00  0.00     0.359 A 
HETATM    4  N2  UNL     1      22.265   5.136  51.269  1.00  0.00    -0.246 NA
HETATM    5  C3  UNL     1      21.548   4.438  52.070  1.00  0.00     0.231 A 
HETATM    6  N3  UNL     1      21.659   3.008  52.067  1.00  0.00    -0.228 NA
HETATM    7  C4  UNL     1      22.469   2.402  51.268  1.00  0.00     0.116 A 
HETATM    8  C11 UNL     1      23.289   3.135  50.281  1.00  0.00     0.148 A 
HETATM    9  C12 UNL     1      24.737   3.266  50.492  1.00  0.00     0.273 C 
ENDROOT
BRANCH   7  10
HETATM   10  N4  UNL     1      22.657   0.970  51.192  1.00  0.00    -0.344 N 
HETATM   11  H6  UNL     1      23.191   0.502  50.429  1.00  0.00     0.167 HD
BRANCH  10  12
HETATM   12  C5  UNL     1      22.046   0.214  52.263  1.00  0.00     0.035 A 
HETATM   13  C6  UNL     1      22.987  -0.132  53.238  1.00  0.00     0.029 A 
HETATM   14  C7  UNL     1      22.483  -0.861  54.311  1.00  0.00     0.004 A 
HETATM   15  C8  UNL     1      21.167  -1.253  54.473  1.00  0.00     0.024 A 
HETATM   16  C9  UNL     1      20.327  -0.860  53.457  1.00  0.00     0.036 A 
HETATM   17 CL1  UNL     1      18.629  -1.320  53.587  1.00  0.00    -0.084 Cl
HETATM   18  C10 UNL     1      20.718  -0.142  52.360  1.00  0.00     0.053 A 
ENDBRANCH  10  12
ENDBRANCH   7  10
BRANCH   9  19
HETATM   19  C13 UNL     1      25.359   2.514  51.613  1.00  0.00    -0.024 A 
HETATM   20  C14 UNL     1      25.170   2.871  52.956  1.00  0.00     0.011 A 
HETATM   21  C15 UNL     1      25.792   2.107  53.935  1.00  0.00     0.024 A 
HETATM   22  C16 UNL     1      26.583   1.015  53.664  1.00  0.00     0.034 A 
HETATM   23 CL2  UNL     1      27.363   0.068  54.914  1.00  0.00    -0.084 Cl
HETATM   24  C17 UNL     1      26.792   0.631  52.332  1.00  0.00     0.024 A 
HETATM   25  C18 UNL     1      26.160   1.414  51.397  1.00  0.00     0.011 A 
ENDBRANCH   9  19
TORSDOF 3
ENDMDL
MODEL 5
REMARK VINA RESULT:      -7.8      2.679      4.983
REMARK  3 active torsions:
REMARK  status: ('A' for Active; 'I' for Inactive)
REMARK    1  A    between atoms: C4_7  and  N4_8 
REMARK    2  A    between atoms: N4_8  and  C5_9 
REMARK    3  A    between atoms: C12_17  and  C13_18 
ROOT
HETATM    1  C1  UNL     1      19.751  -0.067  53.183  1.00  0.00     0.313 C 
HETATM    2  N1  UNL     1      21.174   0.033  53.432  1.00  0.00     0.119 N 
HETATM    3  C2  UNL     1      21.705  -1.214  53.925  1.00  0.00     0.359 A 
HETATM    4  N2  UNL     1      22.173  -1.107  55.297  1.00  0.00    -0.246 NA
HETATM    5  C3  UNL     1      23.389  -0.918  55.655  1.00  0.00     0.231 A 
HETATM    6  N3  UNL     1      24.417  -0.803  54.660  1.00  0.00    -0.228 NA
HETATM    7  C4  UNL     1      24.145  -0.889  53.403  1.00  0.00     0.116 A 
HETATM    8  C11 UNL     1      22.776  -1.157  52.916  1.00  0.00     0.148 A 
HETATM    9  C12 UNL     1      22.008  -0.082  52.274  1.00  0.00     0.273 C 
ENDROOT
BRANCH   7  10
HETATM   10  N4  UNL     1      25.106  -0.782  52.328  1.00  0.00    -0.344 N 
HETATM   11  H6  UNL     1      24.867  -0.952  51.328  1.00  0.00     0.167 HD
BRANCH  10  12
HETATM   12  C5  UNL     1      26.444  -0.417  52.736  1.00  0.00     0.035 A 
HETATM   13  C6  UNL     1      27.263  -1.545  52.851  1.00  0.00     0.029 A 
HETATM   14  C7  UNL     1      28.574  -1.285  53.238  1.00  0.00     0.004 A 
HETATM   15  C8  UNL     1      29.103  -0.036  53.506  1.00  0.00     0.024 A 
HETATM   16  C9  UNL     1      28.213   1.002  53.362  1.00  0.00     0.036 A 
HETATM   17 CL1  UNL     1      28.809   2.631  53.685  1.00  0.00    -0.084 Cl
HETATM   18  C10 UNL     1      26.905   0.858  52.987  1.00  0.00     0.053 A 
ENDBRANCH  10  12
ENDBRANCH   7  10
BRANCH   9  19
HETATM   19  C13 UNL     1      22.697   1.204  51.986  1.00  0.00    -0.024 A 
HETATM   20  C14 UNL     1      23.095   2.088  52.999  1.00  0.00     0.011 A 
HETATM   21  C15 UNL     1      23.733   3.266  52.634  1.00  0.00     0.024 A 
HETATM   22  C16 UNL     1      24.001   3.616  51.331  1.00  0.00     0.034 A 
HETATM   23 CL2  UNL     1      24.803   5.109  50.889  1.00  0.00    -0.084 Cl
HETATM   24  C17 UNL     1      23.617   2.754  50.294  1.00  0.00     0.024 A 
HETATM   25  C18 UNL     1      22.989   1.602  50.700  1.00  0.00     0.011 A 
ENDBRANCH   9  19
TORSDOF 3
ENDMDL
MODEL 6
REMARK VINA RESULT:      -7.5      2.706      4.375
REMARK  3 active torsions:
REMARK  status: ('A' for Active; 'I' for Inactive)
REMARK    1  A    between atoms: C4_7  and  N4_8 
REMARK    2  A    between atoms: N4_8  and  C5_9 
REMARK    3  A    between atoms: C12_17  and  C13_18 
ROOT
HETATM    1  C1  UNL     1      21.631  -0.923  53.587  1.00  0.00     0.313 C 
HETATM    2  N1  UNL     1      22.326  -0.056  52.659  1.00  0.00     0.119 N 
HETATM    3  C2  UNL     1      21.404   0.797  51.951  1.00  0.00     0.359 A 
HETATM    4  N2  UNL     1      21.354   0.491  50.531  1.00  0.00    -0.246 NA
HETATM    5  C3  UNL     1      21.997   1.114  49.614  1.00  0.00     0.231 A 
HETATM    6  N3  UNL     1      22.847   2.217  49.960  1.00  0.00    -0.228 NA
HETATM    7  C4  UNL     1      22.977   2.603  51.183  1.00  0.00     0.116 A 
HETATM    8  C11 UNL     1      22.229   1.968  52.287  1.00  0.00     0.148 A 
HETATM    9  C12 UNL     1      22.934   1.102  53.242  1.00  0.00     0.273 C 
ENDROOT
BRANCH   7  10
HETATM   10  N4  UNL     1      23.810   3.697  51.632  1.00  0.00    -0.344 N 
HETATM   11  H6  UNL     1      23.748   4.108  52.588  1.00  0.00     0.167 HD
BRANCH  10  12
HETATM   12  C5  UNL     1      24.752   4.192  50.654  1.00  0.00     0.035 A 
HETATM   13  C6  UNL     1      25.862   3.348  50.549  1.00  0.00     0.029 A 
HETATM   14  C7  UNL     1      26.823   3.749  49.624  1.00  0.00     0.004 A 
HETATM   15  C8  UNL     1      26.757   4.881  48.833  1.00  0.00     0.024 A 
HETATM   16  C9  UNL     1      25.624   5.639  49.016  1.00  0.00     0.036 A 
HETATM   17 CL1  UNL     1      25.462   7.102  48.044  1.00  0.00    -0.084 Cl
HETATM   18  C10 UNL     1      24.621   5.336  49.896  1.00  0.00     0.053 A 
ENDBRANCH  10  12
ENDBRANCH   7  10
BRANCH   9  19
HETATM   19  C13 UNL     1      24.417   1.020  53.160  1.00  0.00    -0.024 A 
HETATM   20  C14 UNL     1      25.076   0.085  52.350  1.00  0.00     0.011 A 
HETATM   21  C15 UNL     1      26.465   0.086  52.338  1.00  0.00     0.024 A 
HETATM   22  C16 UNL     1      27.234   0.955  53.077  1.00  0.00     0.034 A 
HETATM   23 CL2  UNL     1      28.985   0.937  53.053  1.00  0.00    -0.084 Cl
HETATM   24  C17 UNL     1      26.605   1.903  53.897  1.00  0.00     0.024 A 
HETATM   25  C18 UNL     1      25.233   1.866  53.879  1.00  0.00     0.011 A 
ENDBRANCH   9  19
TORSDOF 3
ENDMDL
MODEL 7
REMARK VINA RESULT:      -7.3      2.906      5.648
REMARK  3 active torsions:
REMARK  status: ('A' for Active; 'I' for Inactive)
REMARK    1  A    between atoms: C4_7  and  N4_8 
REMARK    2  A    between atoms: N4_8  and  C5_9 
REMARK    3  A    between atoms: C12_17  and  C13_18 
ROOT
HETATM    1  C1  UNL     1      22.070   6.215  48.850  1.00  0.00     0.313 C 
HETATM    2  N1  UNL     1      22.788   5.143  49.506  1.00  0.00     0.119 N 
HETATM    3  C2  UNL     1      24.134   5.543  49.837  1.00  0.00     0.359 A 
HETATM    4  N2  UNL     1      25.129   4.799  49.083  1.00  0.00    -0.246 NA
HETATM    5  C3  UNL     1      25.767   3.771  49.507  1.00  0.00     0.231 A 
HETATM    6  N3  UNL     1      25.523   3.274  50.830  1.00  0.00    -0.228 NA
HETATM    7  C4  UNL     1      24.672   3.845  51.613  1.00  0.00     0.116 A 
HETATM    8  C11 UNL     1      23.937   5.063  51.214  1.00  0.00     0.148 A 
HETATM    9  C12 UNL     1      22.504   4.979  50.899  1.00  0.00     0.273 C 
ENDROOT
BRANCH   7  10
HETATM   10  N4  UNL     1      24.353   3.418  52.958  1.00  0.00    -0.344 N 
HETATM   11  H6  UNL     1      23.801   3.997  53.626  1.00  0.00     0.167 HD
BRANCH  10  12
HETATM   12  C5  UNL     1      24.858   2.114  53.323  1.00  0.00     0.035 A 
HETATM   13  C6  UNL     1      23.925   1.112  53.035  1.00  0.00     0.029 A 
HETATM   14  C7  UNL     1      24.332  -0.181  53.354  1.00  0.00     0.004 A 
HETATM   15  C8  UNL     1      25.547  -0.530  53.914  1.00  0.00     0.024 A 
HETATM   16  C9  UNL     1      26.388   0.532  54.155  1.00  0.00     0.036 A 
HETATM   17 CL1  UNL     1      27.961   0.173  54.869  1.00  0.00    -0.084 Cl
HETATM   18  C10 UNL     1      26.089   1.838  53.880  1.00  0.00     0.053 A 
ENDBRANCH  10  12
ENDBRANCH   7  10
BRANCH   9  19
HETATM   19  C13 UNL     1      21.800   3.694  51.150  1.00  0.00    -0.024 A 
HETATM   20  C14 UNL     1      21.900   2.598  50.280  1.00  0.00     0.011 A 
HETATM   21  C15 UNL     1      21.206   1.438  50.598  1.00  0.00     0.024 A 
HETATM   22  C16 UNL     1      20.425   1.300  51.722  1.00  0.00     0.034 A 
HETATM   23 CL2  UNL     1      19.551  -0.170  52.103  1.00  0.00    -0.084 Cl
HETATM   24  C17 UNL     1      20.303   2.377  52.612  1.00  0.00     0.024 A 
HETATM   25  C18 UNL     1      21.005   3.503  52.259  1.00  0.00     0.011 A 
ENDBRANCH   9  19
TORSDOF 3
ENDMDL
MODEL 8
REMARK VINA RESULT:      -6.9      3.051      5.420
REMARK  3 active torsions:
REMARK  status: ('A' for Active; 'I' for Inactive)
REMARK    1  A    between atoms: C4_7  and  N4_8 
REMARK    2  A    between atoms: N4_8  and  C5_9 
REMARK    3  A    between atoms: C12_17  and  C13_18 
ROOT
HETATM    1  C1  UNL     1      19.580   1.444  50.127  1.00  0.00     0.313 C 
HETATM    2  N1  UNL     1      20.713   1.614  51.012  1.00  0.00     0.119 N 
HETATM    3  C2  UNL     1      21.185   0.343  51.505  1.00  0.00     0.359 A 
HETATM    4  N2  UNL     1      20.985   0.202  52.937  1.00  0.00    -0.246 NA
HETATM    5  C3  UNL     1      21.872   0.417  53.836  1.00  0.00     0.231 A 
HETATM    6  N3  UNL     1      23.192   0.828  53.453  1.00  0.00    -0.228 NA
HETATM    7  C4  UNL     1      23.512   0.983  52.214  1.00  0.00     0.116 A 
HETATM    8  C11 UNL     1      22.559   0.704  51.120  1.00  0.00     0.148 A 
HETATM    9  C12 UNL     1      21.972   1.818  50.363  1.00  0.00     0.273 C 
ENDROOT
BRANCH   7  10
HETATM   10  N4  UNL     1      24.810   1.398  51.729  1.00  0.00    -0.344 N 
HETATM   11  H6  UNL     1      24.939   2.109  50.978  1.00  0.00     0.167 HD
BRANCH  10  12
HETATM   12  C5  UNL     1      25.936   0.752  52.363  1.00  0.00     0.035 A 
HETATM   13  C6  UNL     1      26.629   1.642  53.190  1.00  0.00     0.029 A 
HETATM   14  C7  UNL     1      27.732   1.101  53.845  1.00  0.00     0.004 A 
HETATM   15  C8  UNL     1      28.173  -0.205  53.738  1.00  0.00     0.024 A 
HETATM   16  C9  UNL     1      27.420  -0.994  52.900  1.00  0.00     0.036 A 
HETATM   17 CL1  UNL     1      27.915  -2.676  52.708  1.00  0.00    -0.084 Cl
HETATM   18  C10 UNL     1      26.320  -0.564  52.210  1.00  0.00     0.053 A 
ENDBRANCH  10  12
ENDBRANCH   7  10
BRANCH   9  19
HETATM   19  C13 UNL     1      22.483   3.192  50.616  1.00  0.00    -0.024 A 
HETATM   20  C14 UNL     1      22.127   3.930  51.754  1.00  0.00     0.011 A 
HETATM   21  C15 UNL     1      22.656   5.205  51.905  1.00  0.00     0.024 A 
HETATM   22  C16 UNL     1      23.514   5.787  51.001  1.00  0.00     0.034 A 
HETATM   23 CL2  UNL     1      24.167   7.399  51.207  1.00  0.00    -0.084 Cl
HETATM   24  C17 UNL     1      23.891   5.075  49.853  1.00  0.00     0.024 A 
HETATM   25  C18 UNL     1      23.345   3.821  49.744  1.00  0.00     0.011 A 
ENDBRANCH   9  19
TORSDOF 3
ENDMDL
MODEL 9
REMARK VINA RESULT:      -6.8      1.000      1.545
REMARK  3 active torsions:
REMARK  status: ('A' for Active; 'I' for Inactive)
REMARK    1  A    between atoms: C4_7  and  N4_8 
REMARK    2  A    between atoms: N4_8  and  C5_9 
REMARK    3  A    between atoms: C12_17  and  C13_18 
ROOT
HETATM    1  C1  UNL     1      23.060  -0.355  53.900  1.00  0.00     0.313 C 
HETATM    2  N1  UNL     1      23.833   0.730  53.334  1.00  0.00     0.119 N 
HETATM    3  C2  UNL     1      25.228   0.378  53.232  1.00  0.00     0.359 A 
HETATM    4  N2  UNL     1      26.062   1.180  54.111  1.00  0.00    -0.246 NA
HETATM    5  C3  UNL     1      26.721   2.223  53.763  1.00  0.00     0.231 A 
HETATM    6  N3  UNL     1      26.673   2.678  52.404  1.00  0.00    -0.228 NA
HETATM    7  C4  UNL     1      25.980   2.054  51.513  1.00  0.00     0.116 A 
HETATM    8  C11 UNL     1      25.236   0.816  51.827  1.00  0.00     0.148 A 
HETATM    9  C12 UNL     1      23.770   0.849  51.909  1.00  0.00     0.273 C 
ENDROOT
BRANCH   7  10
HETATM   10  N4  UNL     1      25.864   2.435  50.123  1.00  0.00    -0.344 N 
HETATM   11  H6  UNL     1      25.684   1.752  49.356  1.00  0.00     0.167 HD
BRANCH  10  12
HETATM   12  C5  UNL     1      26.016   3.848  49.859  1.00  0.00     0.035 A 
HETATM   13  C6  UNL     1      27.076   4.086  48.978  1.00  0.00     0.029 A 
HETATM   14  C7  UNL     1      27.293   5.425  48.665  1.00  0.00     0.004 A 
HETATM   15  C8  UNL     1      26.561   6.495  49.148  1.00  0.00     0.024 A 
HETATM   16  C9  UNL     1      25.544   6.148  50.006  1.00  0.00     0.036 A 
HETATM   17 CL1  UNL     1      24.561   7.455  50.667  1.00  0.00    -0.084 Cl
HETATM   18  C10 UNL     1      25.245   4.866  50.379  1.00  0.00     0.053 A 
ENDBRANCH  10  12
ENDBRANCH   7  10
BRANCH   9  19
HETATM   19  C13 UNL     1      23.067   2.097  51.511  1.00  0.00    -0.024 A 
HETATM   20  C14 UNL     1      22.535   2.286  50.227  1.00  0.00     0.011 A 
HETATM   21  C15 UNL     1      21.894   3.486  49.949  1.00  0.00     0.024 A 
HETATM   22  C16 UNL     1      21.748   4.503  50.864  1.00  0.00     0.034 A 
HETATM   23 CL2  UNL     1      20.941   6.012  50.492  1.00  0.00    -0.084 Cl
HETATM   24  C17 UNL     1      22.267   4.346  52.157  1.00  0.00     0.024 A 
HETATM   25  C18 UNL     1      22.893   3.146  52.388  1.00  0.00     0.011 A 
ENDBRANCH   9  19
TORSDOF 3
ENDMDL
