MODEL 1
REMARK VINA RESULT:      -8.7      0.000      0.000
REMARK  5 active torsions:
REMARK  status: ('A' for Active; 'I' for Inactive)
REMARK    1  A    between atoms: C4_5  and  N1_6 
REMARK    2  A    between atoms: N1_6  and  C5_7 
REMARK    3  A    between atoms: N4_13  and  C9_14 
REMARK    4  A    between atoms: C9_14  and  C10_15 
REMARK    5  A    between atoms: C15_21  and  O1_22 
ROOT
HETATM    1  C5  UNL     1      25.314   2.592  51.497  1.00  0.00     0.157 A 
HETATM    2  N2  UNL     1      24.095   2.183  51.396  1.00  0.00    -0.222 NA
HETATM    3  C6  UNL     1      23.072   2.391  50.633  1.00  0.00     0.235 A 
HETATM    4  N3  UNL     1      23.349   3.298  49.651  1.00  0.00    -0.252 NA
HETATM    5  C7  UNL     1      24.649   3.834  49.644  1.00  0.00     0.151 A 
HETATM    6  C8  UNL     1      25.829   3.557  50.566  1.00  0.00     0.092 A 
HETATM    7  N4  UNL     1      26.317   4.476  49.681  1.00  0.00    -0.385 N 
HETATM    8  H6  UNL     1      27.076   4.434  50.442  1.00  0.00     0.159 HD
ENDROOT
BRANCH   1   9
HETATM    9  N1  UNL     1      26.561   2.585  52.143  1.00  0.00    -0.341 N 
HETATM   10  H3  UNL     1      27.091   3.449  52.453  1.00  0.00     0.167 HD
BRANCH   9  11
HETATM   11  C4  UNL     1      26.876   1.152  52.265  1.00  0.00     0.036 C 
HETATM   12  C3  UNL     1      27.119  -0.081  52.318  1.00  0.00     0.030 C 
HETATM   13  C2  UNL     1      27.804  -0.876  53.278  1.00  0.00     0.042 C 
HETATM   14  C1  UNL     1      28.066   0.109  54.054  1.00  0.00     0.118 C 
HETATM   15  F1  UNL     1      28.743   0.084  55.245  1.00  0.00    -0.209 F 
HETATM   16  C16 UNL     1      27.468   1.379  53.633  1.00  0.00     0.194 C 
HETATM   17 CL2  UNL     1      28.715   2.617  53.730  1.00  0.00    -0.111 Cl
ENDBRANCH   9  11
ENDBRANCH   1   9
BRANCH   7  18
HETATM   18  C9  UNL     1      26.857   5.439  48.776  1.00  0.00     0.133 C 
BRANCH  18  19
HETATM   19  C10 UNL     1      28.426   5.452  48.380  1.00  0.00     0.015 A 
HETATM   20  C11 UNL     1      28.224   6.519  48.014  1.00  0.00     0.016 A 
HETATM   21  C12 UNL     1      29.432   7.222  47.444  1.00  0.00    -0.012 A 
HETATM   22  O1  UNL     1      28.530   4.897  48.570  1.00  0.00     0.000 OA
HETATM   23  C15 UNL     1      29.483   5.268  48.182  1.00  0.00     0.036 A 
HETATM   24  C13 UNL     1      30.731   6.886  47.251  1.00  0.00     0.017 A 
HETATM   25  C14 UNL     1      30.978   5.613  47.676  1.00  0.00     0.023 A 
HETATM   26 CL1  UNL     1      32.158   4.342  47.875  1.00  0.00    -0.088 Cl
ENDBRANCH  18  19
ENDBRANCH   7  18
TORSDOF 5
ENDMDL
MODEL 2
REMARK VINA RESULT:      -8.5      2.617      3.728
REMARK  5 active torsions:
REMARK  status: ('A' for Active; 'I' for Inactive)
REMARK    1  A    between atoms: C4_5  and  N1_6 
REMARK    2  A    between atoms: N1_6  and  C5_7 
REMARK    3  A    between atoms: N4_13  and  C9_14 
REMARK    4  A    between atoms: C9_14  and  C10_15 
REMARK    5  A    between atoms: C15_21  and  O1_22 
ROOT
HETATM    1  C5  UNL     1      24.367   0.418  53.357  1.00  0.00     0.157 A 
HETATM    2  N2  UNL     1      23.490  -0.422  53.793  1.00  0.00    -0.222 NA
HETATM    3  C6  UNL     1      22.286  -0.790  53.503  1.00  0.00     0.235 A 
HETATM    4  N3  UNL     1      21.789  -0.101  52.434  1.00  0.00    -0.252 NA
HETATM    5  C7  UNL     1      22.641   0.858  51.858  1.00  0.00     0.151 A 
HETATM    6  C8  UNL     1      24.062   1.259  52.233  1.00  0.00     0.092 A 
HETATM    7  N4  UNL     1      23.770   2.058  51.165  1.00  0.00    -0.385 N 
HETATM    8  H6  UNL     1      24.683   2.478  51.549  1.00  0.00     0.159 HD
ENDROOT
BRANCH   1   9
HETATM    9  N1  UNL     1      25.632   1.022  53.435  1.00  0.00    -0.341 N 
HETATM   10  H3  UNL     1      25.806   2.051  53.617  1.00  0.00     0.167 HD
BRANCH   9  11
HETATM   11  C4  UNL     1      26.562  -0.101  53.224  1.00  0.00     0.036 C 
HETATM   12  C3  UNL     1      27.310  -1.092  53.026  1.00  0.00     0.030 C 
HETATM   13  C2  UNL     1      28.714  -1.269  53.169  1.00  0.00     0.042 C 
HETATM   14  C1  UNL     1      28.924  -0.071  53.573  1.00  0.00     0.118 C 
HETATM   15  F1  UNL     1      30.119   0.502  53.920  1.00  0.00    -0.209 F 
HETATM   16  C16 UNL     1      27.705   0.718  53.768  1.00  0.00     0.194 C 
HETATM   17 CL2  UNL     1      27.952   2.285  53.007  1.00  0.00    -0.111 Cl
ENDBRANCH   9  11
ENDBRANCH   1   9
BRANCH   7  18
HETATM   18  C9  UNL     1      23.495   2.912  50.055  1.00  0.00     0.133 C 
BRANCH  18  19
HETATM   19  C10 UNL     1      24.562   4.016  49.543  1.00  0.00     0.015 A 
HETATM   20  C11 UNL     1      25.342   3.193  49.701  1.00  0.00     0.016 A 
HETATM   21  C12 UNL     1      26.756   3.599  49.363  1.00  0.00    -0.012 A 
HETATM   22  O1  UNL     1      24.155   4.444  49.460  1.00  0.00     0.000 OA
HETATM   23  C15 UNL     1      25.118   4.885  49.186  1.00  0.00     0.036 A 
HETATM   24  C13 UNL     1      27.342   4.735  48.910  1.00  0.00     0.017 A 
HETATM   25  C14 UNL     1      26.420   5.724  48.726  1.00  0.00     0.023 A 
HETATM   26 CL1  UNL     1      26.124   7.372  48.232  1.00  0.00    -0.088 Cl
ENDBRANCH  18  19
ENDBRANCH   7  18
TORSDOF 5
ENDMDL
MODEL 3
REMARK VINA RESULT:      -8.4      3.983      7.534
REMARK  5 active torsions:
REMARK  status: ('A' for Active; 'I' for Inactive)
REMARK    1  A    between atoms: C4_5  and  N1_6 
REMARK    2  A    between atoms: N1_6  and  C5_7 
REMARK    3  A    between atoms: N4_13  and  C9_14 
REMARK    4  A    between atoms: C9_14  and  C10_15 
REMARK    5  A    between atoms: C15_21  and  O1_22 
ROOT
HETATM    1  C5  UNL     1      26.326   2.390  52.013  1.00  0.00     0.157 A 
HETATM    2  N2  UNL     1      26.915   2.802  50.942  1.00  0.00    -0.222 NA
HETATM    3  C6  UNL     1      26.585   3.270  49.783  1.00  0.00     0.235 A 
HETATM    4  N3  UNL     1      25.230   3.359  49.640  1.00  0.00    -0.252 NA
HETATM    5  C7  UNL     1      24.457   2.936  50.736  1.00  0.00     0.151 A 
HETATM    6  C8  UNL     1      24.891   2.391  52.090  1.00  0.00     0.092 A 
HETATM    7  N4  UNL     1      23.528   2.391  52.162  1.00  0.00    -0.385 N 
HETATM    8  H6  UNL     1      23.823   1.825  53.027  1.00  0.00     0.159 HD
ENDROOT
BRANCH   1   9
HETATM    9  N1  UNL     1      26.372   1.860  53.312  1.00  0.00    -0.341 N 
HETATM   10  H3  UNL     1      25.550   1.813  53.980  1.00  0.00     0.167 HD
BRANCH   9  11
HETATM   11  C4  UNL     1      27.769   1.415  53.453  1.00  0.00     0.036 C 
HETATM   12  C3  UNL     1      28.977   1.090  53.582  1.00  0.00     0.030 C 
HETATM   13  C2  UNL     1      29.636  -0.168  53.528  1.00  0.00     0.042 C 
HETATM   14  C1  UNL     1      28.564  -0.831  53.294  1.00  0.00     0.118 C 
HETATM   15  F1  UNL     1      28.433  -2.183  53.114  1.00  0.00    -0.209 F 
HETATM   16  C16 UNL     1      27.373   0.002  53.105  1.00  0.00     0.194 C 
HETATM   17 CL2  UNL     1      26.076  -0.688  54.072  1.00  0.00    -0.111 Cl
ENDBRANCH   9  11
ENDBRANCH   1   9
BRANCH   7  18
HETATM   18  C9  UNL     1      22.104   2.373  52.268  1.00  0.00     0.133 C 
BRANCH  18  19
HETATM   19  C10 UNL     1      21.305   1.072  52.807  1.00  0.00     0.015 A 
HETATM   20  C11 UNL     1      22.289   0.805  53.328  1.00  0.00     0.016 A 
HETATM   21  C12 UNL     1      22.243  -0.474  54.129  1.00  0.00    -0.012 A 
HETATM   22  O1  UNL     1      20.793   1.213  52.535  1.00  0.00     0.000 OA
HETATM   23  C15 UNL     1      20.610   0.271  53.060  1.00  0.00     0.036 A 
HETATM   24  C13 UNL     1      21.296  -1.409  54.383  1.00  0.00     0.017 A 
HETATM   25  C14 UNL     1      20.123  -1.103  53.758  1.00  0.00     0.023 A 
HETATM   26 CL1  UNL     1      18.466  -1.562  53.453  1.00  0.00    -0.088 Cl
ENDBRANCH  18  19
ENDBRANCH   7  18
TORSDOF 5
ENDMDL
MODEL 4
REMARK VINA RESULT:      -8.4      4.512      8.552
REMARK  5 active torsions:
REMARK  status: ('A' for Active; 'I' for Inactive)
REMARK    1  A    between atoms: C4_5  and  N1_6 
REMARK    2  A    between atoms: N1_6  and  C5_7 
REMARK    3  A    between atoms: N4_13  and  C9_14 
REMARK    4  A    between atoms: C9_14  and  C10_15 
REMARK    5  A    between atoms: C15_21  and  O1_22 
ROOT
HETATM    1  C5  UNL     1      26.833   2.271  51.778  1.00  0.00     0.157 A 
HETATM    2  N2  UNL     1      27.931   2.526  52.405  1.00  0.00    -0.222 NA
HETATM    3  C6  UNL     1      28.487   2.218  53.530  1.00  0.00     0.235 A 
HETATM    4  N3  UNL     1      27.700   1.387  54.275  1.00  0.00    -0.252 NA
HETATM    5  C7  UNL     1      26.463   1.028  53.712  1.00  0.00     0.151 A 
HETATM    6  C8  UNL     1      25.845   1.415  52.374  1.00  0.00     0.092 A 
HETATM    7  N4  UNL     1      24.907   0.602  52.943  1.00  0.00    -0.385 N 
HETATM    8  H6  UNL     1      24.390   1.029  52.102  1.00  0.00     0.159 HD
ENDROOT
BRANCH   1   9
HETATM    9  N1  UNL     1      25.989   2.430  50.667  1.00  0.00    -0.341 N 
HETATM   10  H3  UNL     1      25.102   1.877  50.491  1.00  0.00     0.167 HD
BRANCH   9  11
HETATM   11  C4  UNL     1      26.635   3.507  49.897  1.00  0.00     0.036 C 
HETATM   12  C3  UNL     1      27.236   4.397  49.243  1.00  0.00     0.030 C 
HETATM   13  C2  UNL     1      26.789   5.610  48.652  1.00  0.00     0.042 C 
HETATM   14  C1  UNL     1      25.574   5.464  49.033  1.00  0.00     0.118 C 
HETATM   15  F1  UNL     1      24.516   6.304  48.809  1.00  0.00    -0.209 F 
HETATM   16  C16 UNL     1      25.352   4.300  49.895  1.00  0.00     0.194 C 
HETATM   17 CL2  UNL     1      23.931   3.453  49.297  1.00  0.00    -0.111 Cl
ENDBRANCH   9  11
ENDBRANCH   1   9
BRANCH   7  18
HETATM   18  C9  UNL     1      23.902  -0.239  53.511  1.00  0.00     0.133 C 
BRANCH  18  19
HETATM   19  C10 UNL     1      22.356  -0.162  53.037  1.00  0.00     0.015 A 
HETATM   20  C11 UNL     1      22.142  -0.795  53.968  1.00  0.00     0.016 A 
HETATM   21  C12 UNL     1      20.685  -1.135  54.169  1.00  0.00    -0.012 A 
HETATM   22  O1  UNL     1      22.470   0.168  52.554  1.00  0.00     0.000 OA
HETATM   23  C15 UNL     1      21.389  -0.002  52.559  1.00  0.00     0.036 A 
HETATM   24  C13 UNL     1      19.540  -0.869  53.494  1.00  0.00     0.017 A 
HETATM   25  C14 UNL     1      19.788  -0.122  52.380  1.00  0.00     0.023 A 
HETATM   26 CL1  UNL     1      19.120   0.681  50.981  1.00  0.00    -0.088 Cl
ENDBRANCH  18  19
ENDBRANCH   7  18
TORSDOF 5
ENDMDL
MODEL 5
REMARK VINA RESULT:      -8.3      3.290      4.185
REMARK  5 active torsions:
REMARK  status: ('A' for Active; 'I' for Inactive)
REMARK    1  A    between atoms: C4_5  and  N1_6 
REMARK    2  A    between atoms: N1_6  and  C5_7 
REMARK    3  A    between atoms: N4_13  and  C9_14 
REMARK    4  A    between atoms: C9_14  and  C10_15 
REMARK    5  A    between atoms: C15_21  and  O1_22 
ROOT
HETATM    1  C5  UNL     1      25.795   0.838  52.927  1.00  0.00     0.157 A 
HETATM    2  N2  UNL     1      26.871   0.773  53.636  1.00  0.00    -0.222 NA
HETATM    3  C6  UNL     1      28.027   1.349  53.682  1.00  0.00     0.235 A 
HETATM    4  N3  UNL     1      28.160   2.298  52.709  1.00  0.00    -0.252 NA
HETATM    5  C7  UNL     1      27.058   2.473  51.853  1.00  0.00     0.151 A 
HETATM    6  C8  UNL     1      25.707   1.770  51.837  1.00  0.00     0.092 A 
HETATM    7  N4  UNL     1      25.625   2.656  50.801  1.00  0.00    -0.385 N 
HETATM    8  H6  UNL     1      24.762   2.029  50.663  1.00  0.00     0.159 HD
ENDROOT
BRANCH   1   9
HETATM    9  N1  UNL     1      24.496   0.400  52.626  1.00  0.00    -0.341 N 
HETATM   10  H3  UNL     1      23.979   0.602  51.723  1.00  0.00     0.167 HD
BRANCH   9  11
HETATM   11  C4  UNL     1      24.107  -0.369  53.820  1.00  0.00     0.036 C 
HETATM   12  C3  UNL     1      23.829  -1.019  54.861  1.00  0.00     0.030 C 
HETATM   13  C2  UNL     1      22.622  -1.616  55.316  1.00  0.00     0.042 C 
HETATM   14  C1  UNL     1      21.942  -1.260  54.290  1.00  0.00     0.118 C 
HETATM   15  F1  UNL     1      20.619  -1.506  54.032  1.00  0.00    -0.209 F 
HETATM   16  C16 UNL     1      22.732  -0.600  53.247  1.00  0.00     0.194 C 
HETATM   17 CL2  UNL     1      21.860   0.843  52.746  1.00  0.00    -0.111 Cl
ENDBRANCH   9  11
ENDBRANCH   1   9
BRANCH   7  18
HETATM   18  C9  UNL     1      25.508   3.566  49.707  1.00  0.00     0.133 C 
BRANCH  18  19
HETATM   19  C10 UNL     1      26.789   4.361  49.118  1.00  0.00     0.015 A 
HETATM   20  C11 UNL     1      26.080   5.259  49.058  1.00  0.00     0.016 A 
HETATM   21  C12 UNL     1      26.714   6.520  48.522  1.00  0.00    -0.012 A 
HETATM   22  O1  UNL     1      27.157   3.893  49.150  1.00  0.00     0.000 OA
HETATM   23  C15 UNL     1      27.749   4.717  48.740  1.00  0.00     0.036 A 
HETATM   24  C13 UNL     1      27.951   6.853  48.078  1.00  0.00     0.017 A 
HETATM   25  C14 UNL     1      28.799   5.787  48.137  1.00  0.00     0.023 A 
HETATM   26 CL1  UNL     1      30.414   5.186  47.854  1.00  0.00    -0.088 Cl
ENDBRANCH  18  19
ENDBRANCH   7  18
TORSDOF 5
ENDMDL
MODEL 6
REMARK VINA RESULT:      -8.3      5.226      9.140
REMARK  5 active torsions:
REMARK  status: ('A' for Active; 'I' for Inactive)
REMARK    1  A    between atoms: C4_5  and  N1_6 
REMARK    2  A    between atoms: N1_6  and  C5_7 
REMARK    3  A    between atoms: N4_13  and  C9_14 
REMARK    4  A    between atoms: C9_14  and  C10_15 
REMARK    5  A    between atoms: C15_21  and  O1_22 
ROOT
HETATM    1  C5  UNL     1      26.110   0.870  52.785  1.00  0.00     0.157 A 
HETATM    2  N2  UNL     1      27.332   0.918  53.196  1.00  0.00    -0.222 NA
HETATM    3  C6  UNL     1      28.030   0.472  54.188  1.00  0.00     0.235 A 
HETATM    4  N3  UNL     1      27.269  -0.259  55.055  1.00  0.00    -0.252 NA
HETATM    5  C7  UNL     1      25.906  -0.390  54.732  1.00  0.00     0.151 A 
HETATM    6  C8  UNL     1      25.124   0.153  53.544  1.00  0.00     0.092 A 
HETATM    7  N4  UNL     1      24.187  -0.528  54.268  1.00  0.00    -0.385 N 
HETATM    8  H6  UNL     1      23.600   0.016  53.549  1.00  0.00     0.159 HD
ENDROOT
BRANCH   1   9
HETATM    9  N1  UNL     1      25.113   1.214  51.859  1.00  0.00    -0.341 N 
HETATM   10  H3  UNL     1      24.888   0.671  50.976  1.00  0.00     0.167 HD
BRANCH   9  11
HETATM   11  C4  UNL     1      24.515   2.431  52.433  1.00  0.00     0.036 C 
HETATM   12  C3  UNL     1      24.013   3.448  52.976  1.00  0.00     0.030 C 
HETATM   13  C2  UNL     1      23.482   4.652  52.437  1.00  0.00     0.042 C 
HETATM   14  C1  UNL     1      23.694   4.316  51.218  1.00  0.00     0.118 C 
HETATM   15  F1  UNL     1      23.414   5.036  50.087  1.00  0.00    -0.209 F 
HETATM   16  C16 UNL     1      24.205   2.953  51.052  1.00  0.00     0.194 C 
HETATM   17 CL2  UNL     1      25.565   3.022  49.939  1.00  0.00    -0.111 Cl
ENDBRANCH   9  11
ENDBRANCH   1   9
BRANCH   7  18
HETATM   18  C9  UNL     1      23.181  -1.226  55.002  1.00  0.00     0.133 C 
BRANCH  18  19
HETATM   19  C10 UNL     1      21.653  -1.325  54.476  1.00  0.00     0.015 A 
HETATM   20  C11 UNL     1      21.867  -0.319  53.970  1.00  0.00     0.016 A 
HETATM   21  C12 UNL     1      20.704   0.244  53.189  1.00  0.00    -0.012 A 
HETATM   22  O1  UNL     1      21.544  -1.848  54.741  1.00  0.00     0.000 OA
HETATM   23  C15 UNL     1      20.619  -1.566  54.229  1.00  0.00     0.036 A 
HETATM   24  C13 UNL     1      19.434  -0.160  52.941  1.00  0.00     0.017 A 
HETATM   25  C14 UNL     1      19.169  -1.352  53.548  1.00  0.00     0.023 A 
HETATM   26 CL1  UNL     1      17.999  -2.614  53.842  1.00  0.00    -0.088 Cl
ENDBRANCH  18  19
ENDBRANCH   7  18
TORSDOF 5
ENDMDL
MODEL 7
REMARK VINA RESULT:      -8.2      4.725      6.969
REMARK  5 active torsions:
REMARK  status: ('A' for Active; 'I' for Inactive)
REMARK    1  A    between atoms: C4_5  and  N1_6 
REMARK    2  A    between atoms: N1_6  and  C5_7 
REMARK    3  A    between atoms: N4_13  and  C9_14 
REMARK    4  A    between atoms: C9_14  and  C10_15 
REMARK    5  A    between atoms: C15_21  and  O1_22 
ROOT
HETATM    1  C5  UNL     1      22.048   1.266  52.990  1.00  0.00     0.157 A 
HETATM    2  N2  UNL     1      20.917   0.762  53.355  1.00  0.00    -0.222 NA
HETATM    3  C6  UNL     1      20.470  -0.357  53.821  1.00  0.00     0.235 A 
HETATM    4  N3  UNL     1      21.468  -1.276  53.975  1.00  0.00    -0.252 NA
HETATM    5  C7  UNL     1      22.761  -0.862  53.609  1.00  0.00     0.151 A 
HETATM    6  C8  UNL     1      23.245   0.475  53.064  1.00  0.00     0.092 A 
HETATM    7  N4  UNL     1      24.382  -0.278  53.134  1.00  0.00    -0.385 N 
HETATM    8  H6  UNL     1      24.688   0.583  52.568  1.00  0.00     0.159 HD
ENDROOT
BRANCH   1   9
HETATM    9  N1  UNL     1      22.810   2.329  52.480  1.00  0.00    -0.341 N 
HETATM   10  H3  UNL     1      23.360   3.021  53.066  1.00  0.00     0.167 HD
BRANCH   9  11
HETATM   11  C4  UNL     1      22.649   2.199  51.022  1.00  0.00     0.036 C 
HETATM   12  C3  UNL     1      22.471   2.045  49.787  1.00  0.00     0.030 C 
HETATM   13  C2  UNL     1      23.023   2.707  48.656  1.00  0.00     0.042 C 
HETATM   14  C1  UNL     1      23.758   3.495  49.351  1.00  0.00     0.118 C 
HETATM   15  F1  UNL     1      24.613   4.464  48.899  1.00  0.00    -0.209 F 
HETATM   16  C16 UNL     1      23.727   3.227  50.792  1.00  0.00     0.194 C 
HETATM   17 CL2  UNL     1      23.504   4.764  51.618  1.00  0.00    -0.111 Cl
ENDBRANCH   9  11
ENDBRANCH   1   9
BRANCH   7  18
HETATM   18  C9  UNL     1      25.588  -1.040  53.189  1.00  0.00     0.133 C 
BRANCH  18  19
HETATM   19  C10 UNL     1      27.018  -0.352  53.513  1.00  0.00     0.015 A 
HETATM   20  C11 UNL     1      27.465  -1.342  53.148  1.00  0.00     0.016 A 
HETATM   21  C12 UNL     1      28.973  -1.394  53.183  1.00  0.00    -0.012 A 
HETATM   22  O1  UNL     1      26.783   0.162  53.702  1.00  0.00     0.000 OA
HETATM   23  C15 UNL     1      27.868   0.271  53.794  1.00  0.00     0.036 A 
HETATM   24  C13 UNL     1      29.951  -0.533  53.557  1.00  0.00     0.017 A 
HETATM   25  C14 UNL     1      29.426   0.645  54.001  1.00  0.00     0.023 A 
HETATM   26 CL1  UNL     1      29.744   2.241  54.634  1.00  0.00    -0.088 Cl
ENDBRANCH  18  19
ENDBRANCH   7  18
TORSDOF 5
ENDMDL
MODEL 8
REMARK VINA RESULT:      -8.0      4.137      5.716
REMARK  5 active torsions:
REMARK  status: ('A' for Active; 'I' for Inactive)
REMARK    1  A    between atoms: C4_5  and  N1_6 
REMARK    2  A    between atoms: N1_6  and  C5_7 
REMARK    3  A    between atoms: N4_13  and  C9_14 
REMARK    4  A    between atoms: C9_14  and  C10_15 
REMARK    5  A    between atoms: C15_21  and  O1_22 
ROOT
HETATM    1  C5  UNL     1      25.749  -0.149  53.555  1.00  0.00     0.157 A 
HETATM    2  N2  UNL     1      26.532  -0.304  54.568  1.00  0.00    -0.222 NA
HETATM    3  C6  UNL     1      27.619   0.218  55.031  1.00  0.00     0.235 A 
HETATM    4  N3  UNL     1      28.081   1.220  54.227  1.00  0.00    -0.252 NA
HETATM    5  C7  UNL     1      27.324   1.496  53.074  1.00  0.00     0.151 A 
HETATM    6  C8  UNL     1      26.040   0.853  52.568  1.00  0.00     0.092 A 
HETATM    7  N4  UNL     1      26.319   1.806  51.630  1.00  0.00    -0.385 N 
HETATM    8  H6  UNL     1      25.537   1.227  51.173  1.00  0.00     0.159 HD
ENDROOT
BRANCH   1   9
HETATM    9  N1  UNL     1      24.612  -0.512  52.816  1.00  0.00    -0.341 N 
HETATM   10  H3  UNL     1      24.578  -0.615  51.761  1.00  0.00     0.167 HD
BRANCH   9  11
HETATM   11  C4  UNL     1      23.579  -0.708  53.847  1.00  0.00     0.036 C 
HETATM   12  C3  UNL     1      22.740  -0.882  54.768  1.00  0.00     0.030 C 
HETATM   13  C2  UNL     1      21.318  -0.867  54.776  1.00  0.00     0.042 C 
HETATM   14  C1  UNL     1      21.215  -0.625  53.521  1.00  0.00     0.118 C 
HETATM   15  F1  UNL     1      20.069  -0.471  52.786  1.00  0.00    -0.209 F 
HETATM   16  C16 UNL     1      22.494  -0.618  52.805  1.00  0.00     0.194 C 
HETATM   17 CL2  UNL     1      22.530   0.816  51.786  1.00  0.00    -0.111 Cl
ENDBRANCH   9  11
ENDBRANCH   1   9
BRANCH   7  18
HETATM   18  C9  UNL     1      26.584   2.788  50.628  1.00  0.00     0.133 C 
BRANCH  18  19
HETATM   19  C10 UNL     1      25.391   3.578  49.870  1.00  0.00     0.015 A 
HETATM   20  C11 UNL     1      26.161   4.416  49.741  1.00  0.00     0.016 A 
HETATM   21  C12 UNL     1      25.644   5.629  49.006  1.00  0.00    -0.012 A 
HETATM   22  O1  UNL     1      24.992   3.140  49.939  1.00  0.00     0.000 OA
HETATM   23  C15 UNL     1      24.475   3.944  49.405  1.00  0.00     0.036 A 
HETATM   24  C13 UNL     1      24.457   5.978  48.453  1.00  0.00     0.017 A 
HETATM   25  C14 UNL     1      23.531   4.988  48.611  1.00  0.00     0.023 A 
HETATM   26 CL1  UNL     1      21.895   4.457  48.315  1.00  0.00    -0.088 Cl
ENDBRANCH  18  19
ENDBRANCH   7  18
TORSDOF 5
ENDMDL
MODEL 9
REMARK VINA RESULT:      -7.6      3.444      4.303
REMARK  5 active torsions:
REMARK  status: ('A' for Active; 'I' for Inactive)
REMARK    1  A    between atoms: C4_5  and  N1_6 
REMARK    2  A    between atoms: N1_6  and  C5_7 
REMARK    3  A    between atoms: N4_13  and  C9_14 
REMARK    4  A    between atoms: C9_14  and  C10_15 
REMARK    5  A    between atoms: C15_21  and  O1_22 
ROOT
HETATM    1  C5  UNL     1      22.304   1.230  50.783  1.00  0.00     0.157 A 
HETATM    2  N2  UNL     1      21.505   0.877  49.834  1.00  0.00    -0.222 NA
HETATM    3  C6  UNL     1      20.996   1.394  48.765  1.00  0.00     0.235 A 
HETATM    4  N3  UNL     1      21.416   2.679  48.575  1.00  0.00    -0.252 NA
HETATM    5  C7  UNL     1      22.293   3.200  49.543  1.00  0.00     0.151 A 
HETATM    6  C8  UNL     1      22.872   2.549  50.793  1.00  0.00     0.092 A 
HETATM    7  N4  UNL     1      23.409   3.804  50.800  1.00  0.00    -0.385 N 
HETATM    8  H6  UNL     1      23.655   3.422  51.775  1.00  0.00     0.159 HD
ENDROOT
BRANCH   1   9
HETATM    9  N1  UNL     1      22.988   0.953  51.978  1.00  0.00    -0.341 N 
HETATM   10  H3  UNL     1      23.941   1.339  52.238  1.00  0.00     0.167 HD
BRANCH   9  11
HETATM   11  C4  UNL     1      22.065   0.065  52.705  1.00  0.00     0.036 C 
HETATM   12  C3  UNL     1      21.237  -0.684  53.283  1.00  0.00     0.030 C 
HETATM   13  C2  UNL     1      21.323  -1.459  54.473  1.00  0.00     0.042 C 
HETATM   14  C1  UNL     1      22.528  -1.109  54.732  1.00  0.00     0.118 C 
HETATM   15  F1  UNL     1      23.305  -1.492  55.793  1.00  0.00    -0.209 F 
HETATM   16  C16 UNL     1      23.069  -0.100  53.817  1.00  0.00     0.194 C 
HETATM   17 CL2  UNL     1      24.674  -0.628  53.326  1.00  0.00    -0.111 Cl
ENDBRANCH   9  11
ENDBRANCH   1   9
BRANCH   7  18
HETATM   18  C9  UNL     1      23.985   5.111  50.842  1.00  0.00     0.133 C 
BRANCH  18  19
HETATM   19  C10 UNL     1      25.242   5.520  49.908  1.00  0.00     0.015 A 
HETATM   20  C11 UNL     1      25.599   4.446  50.087  1.00  0.00     0.016 A 
HETATM   21  C12 UNL     1      26.899   4.099  49.403  1.00  0.00    -0.012 A 
HETATM   22  O1  UNL     1      25.055   6.078  49.816  1.00  0.00     0.000 OA
HETATM   23  C15 UNL     1      25.999   5.980  49.272  1.00  0.00     0.036 A 
HETATM   24  C13 UNL     1      27.771   4.770  48.611  1.00  0.00     0.017 A 
HETATM   25  C14 UNL     1      27.357   6.052  48.400  1.00  0.00     0.023 A 
HETATM   26 CL1  UNL     1      27.683   7.584  47.628  1.00  0.00    -0.088 Cl
ENDBRANCH  18  19
ENDBRANCH   7  18
TORSDOF 5
ENDMDL
