MODEL 1
REMARK VINA RESULT:      -8.3      0.000      0.000
REMARK  6 active torsions:
REMARK  status: ('A' for Active; 'I' for Inactive)
REMARK    1  A    between atoms: C6_6  and  C7_7 
REMARK    2  A    between atoms: C10_10  and  C11_11 
REMARK    3  A    between atoms: C11_11  and  N1_12 
REMARK    4  A    between atoms: C12_13  and  C13_14 
REMARK    5  A    between atoms: C13_14  and  O1_15 
REMARK    6  A    between atoms: C16_19  and  O2_20 
ROOT
HETATM    1  C7  UNL     1      25.564   1.287  52.266  1.00  0.00     0.014 A 
HETATM    2  C8  UNL     1      24.372   0.834  52.620  1.00  0.00     0.004 A 
HETATM    3  C9  UNL     1      23.989  -0.041  53.607  1.00  0.00     0.024 A 
HETATM    4  C10 UNL     1      22.667  -0.381  53.806  1.00  0.00    -0.021 A 
HETATM    5  C12 UNL     1      21.681   0.167  52.995  1.00  0.00    -0.025 A 
HETATM    6  C14 UNL     1      22.073   1.057  51.991  1.00  0.00     0.042 A 
HETATM    7  C15 UNL     1      23.412   1.373  51.825  1.00  0.00     0.066 A 
HETATM    8  N2  UNL     1      23.913   2.164  50.957  1.00  0.00    -0.253 NA
HETATM    9  C16 UNL     1      25.339   2.216  51.120  1.00  0.00     0.277 A 
ENDROOT
BRANCH   1  10
HETATM   10  C6  UNL     1      26.884   1.011  52.803  1.00  0.00    -0.024 A 
HETATM   11  C5  UNL     1      27.568   2.075  53.341  1.00  0.00     0.012 A 
HETATM   12  C4  UNL     1      28.827   1.966  53.888  1.00  0.00     0.001 A 
HETATM   13  C3  UNL     1      29.460   0.732  53.910  1.00  0.00     0.007 A 
HETATM   14  C2  UNL     1      28.790  -0.331  53.377  1.00  0.00    -0.061 A 
HETATM   15  C1  UNL     1      29.455  -1.665  53.392  1.00  0.00     0.048 C 
HETATM   16  C17 UNL     1      27.529  -0.206  52.834  1.00  0.00     0.019 A 
ENDBRANCH   1  10
BRANCH   9  17
HETATM   17  O2  UNL     1      25.675   3.506  51.569  1.00  0.00    -0.371 OA
HETATM   18  H17 UNL     1      24.901   3.979  51.925  1.00  0.00     0.212 HD
ENDBRANCH   9  17
BRANCH   4  19
HETATM   19  C11 UNL     1      22.223  -1.337  54.877  1.00  0.00     0.305 C 
BRANCH  19  20
HETATM   20  N1  UNL     1      23.304  -1.644  55.782  1.00  0.00     0.082 N 
HETATM   21  H10 UNL     1      23.039  -2.353  56.489  1.00  0.00     0.313 HD
HETATM   22  H11 UNL     1      23.830  -0.829  56.119  1.00  0.00     0.313 HD
ENDBRANCH  19  20
ENDBRANCH   4  19
BRANCH   5  23
HETATM   23  C13 UNL     1      20.241  -0.162  53.160  1.00  0.00     0.203 C 
BRANCH  23  24
HETATM   24  O1  UNL     1      19.590  -0.035  51.932  1.00  0.00    -0.396 OA
HETATM   25  H14 UNL     1      18.797   0.565  52.002  1.00  0.00     0.209 HD
ENDBRANCH  23  24
ENDBRANCH   5  23
TORSDOF 6
ENDMDL
MODEL 2
REMARK VINA RESULT:      -7.7      2.196      6.744
REMARK  6 active torsions:
REMARK  status: ('A' for Active; 'I' for Inactive)
REMARK    1  A    between atoms: C6_6  and  C7_7 
REMARK    2  A    between atoms: C10_10  and  C11_11 
REMARK    3  A    between atoms: C11_11  and  N1_12 
REMARK    4  A    between atoms: C12_13  and  C13_14 
REMARK    5  A    between atoms: C13_14  and  O1_15 
REMARK    6  A    between atoms: C16_19  and  O2_20 
ROOT
HETATM    1  C7  UNL     1      22.295  -0.381  53.269  1.00  0.00     0.014 A 
HETATM    2  C8  UNL     1      23.590  -0.143  53.411  1.00  0.00     0.004 A 
HETATM    3  C9  UNL     1      24.469   0.581  52.644  1.00  0.00     0.024 A 
HETATM    4  C10 UNL     1      25.802   0.701  52.982  1.00  0.00    -0.021 A 
HETATM    5  C12 UNL     1      26.285   0.079  54.126  1.00  0.00    -0.025 A 
HETATM    6  C14 UNL     1      25.388  -0.657  54.905  1.00  0.00     0.042 A 
HETATM    7  C15 UNL     1      24.057  -0.752  54.531  1.00  0.00     0.066 A 
HETATM    8  N2  UNL     1      23.131  -1.385  55.141  1.00  0.00    -0.253 NA
HETATM    9  C16 UNL     1      21.895  -1.235  54.425  1.00  0.00     0.277 A 
ENDROOT
BRANCH   1  10
HETATM   10  C6  UNL     1      21.357   0.045  52.247  1.00  0.00    -0.024 A 
HETATM   11  C5  UNL     1      20.021  -0.062  52.550  1.00  0.00     0.012 A 
HETATM   12  C4  UNL     1      19.016   0.303  51.682  1.00  0.00     0.001 A 
HETATM   13  C3  UNL     1      19.341   0.807  50.432  1.00  0.00     0.007 A 
HETATM   14  C2  UNL     1      20.665   0.916  50.120  1.00  0.00    -0.061 A 
HETATM   15  C1  UNL     1      21.034   1.455  48.780  1.00  0.00     0.048 C 
HETATM   16  C17 UNL     1      21.660   0.547  51.001  1.00  0.00     0.019 A 
ENDBRANCH   1  10
BRANCH   9  17
HETATM   17  O2  UNL     1      21.027  -0.464  55.221  1.00  0.00    -0.371 OA
HETATM   18  H17 UNL     1      20.177  -0.300  54.775  1.00  0.00     0.212 HD
ENDBRANCH   9  17
BRANCH   4  19
HETATM   19  C11 UNL     1      26.784   1.485  52.158  1.00  0.00     0.305 C 
BRANCH  19  20
HETATM   20  N1  UNL     1      26.303   2.823  51.906  1.00  0.00     0.082 N 
HETATM   21  H10 UNL     1      25.644   2.862  51.109  1.00  0.00     0.313 HD
HETATM   22  H11 UNL     1      27.020   3.555  51.951  1.00  0.00     0.313 HD
ENDBRANCH  19  20
ENDBRANCH   4  19
BRANCH   5  23
HETATM   23  C13 UNL     1      27.710   0.172  54.540  1.00  0.00     0.203 C 
BRANCH  23  24
HETATM   24  O1  UNL     1      28.383  -0.988  54.155  1.00  0.00    -0.396 OA
HETATM   25  H14 UNL     1      27.939  -1.423  53.375  1.00  0.00     0.209 HD
ENDBRANCH  23  24
ENDBRANCH   5  23
TORSDOF 6
ENDMDL
MODEL 3
REMARK VINA RESULT:      -7.7      2.187      3.767
REMARK  6 active torsions:
REMARK  status: ('A' for Active; 'I' for Inactive)
REMARK    1  A    between atoms: C6_6  and  C7_7 
REMARK    2  A    between atoms: C10_10  and  C11_11 
REMARK    3  A    between atoms: C11_11  and  N1_12 
REMARK    4  A    between atoms: C12_13  and  C13_14 
REMARK    5  A    between atoms: C13_14  and  O1_15 
REMARK    6  A    between atoms: C16_19  and  O2_20 
ROOT
HETATM    1  C7  UNL     1      24.416  -0.586  54.380  1.00  0.00     0.014 A 
HETATM    2  C8  UNL     1      23.219  -0.467  53.828  1.00  0.00     0.004 A 
HETATM    3  C9  UNL     1      22.826   0.027  52.608  1.00  0.00     0.024 A 
HETATM    4  C10 UNL     1      21.500   0.058  52.228  1.00  0.00    -0.021 A 
HETATM    5  C12 UNL     1      20.521  -0.419  53.090  1.00  0.00    -0.025 A 
HETATM    6  C14 UNL     1      20.923  -0.921  54.330  1.00  0.00     0.042 A 
HETATM    7  C15 UNL     1      22.265  -0.935  54.675  1.00  0.00     0.066 A 
HETATM    8  N2  UNL     1      22.774  -1.360  55.765  1.00  0.00    -0.253 NA
HETATM    9  C16 UNL     1      24.201  -1.197  55.724  1.00  0.00     0.277 A 
ENDROOT
BRANCH   1  10
HETATM   10  C6  UNL     1      25.732  -0.233  53.881  1.00  0.00    -0.024 A 
HETATM   11  C5  UNL     1      26.390  -1.186  53.141  1.00  0.00     0.012 A 
HETATM   12  C4  UNL     1      27.643  -0.994  52.603  1.00  0.00     0.001 A 
HETATM   13  C3  UNL     1      28.296   0.212  52.801  1.00  0.00     0.007 A 
HETATM   14  C2  UNL     1      27.653   1.165  53.536  1.00  0.00    -0.061 A 
HETATM   15  C1  UNL     1      28.341   2.468  53.761  1.00  0.00     0.048 C 
HETATM   16  C17 UNL     1      26.397   0.959  54.068  1.00  0.00     0.019 A 
ENDBRANCH   1  10
BRANCH   9  17
HETATM   17  O2  UNL     1      24.781  -2.478  55.688  1.00  0.00    -0.371 OA
HETATM   18  H17 UNL     1      25.292  -2.621  54.871  1.00  0.00     0.212 HD
ENDBRANCH   9  17
BRANCH   4  19
HETATM   19  C11 UNL     1      21.045   0.594  50.900  1.00  0.00     0.305 C 
BRANCH  19  20
HETATM   20  N1  UNL     1      22.126   1.254  50.207  1.00  0.00     0.082 N 
HETATM   21  H10 UNL     1      21.931   2.257  50.035  1.00  0.00     0.313 HD
HETATM   22  H11 UNL     1      22.529   0.721  49.428  1.00  0.00     0.313 HD
ENDBRANCH  19  20
ENDBRANCH   4  19
BRANCH   5  23
HETATM   23  C13 UNL     1      19.077  -0.411  52.736  1.00  0.00     0.203 C 
BRANCH  23  24
HETATM   24  O1  UNL     1      18.356  -1.105  53.708  1.00  0.00    -0.396 OA
HETATM   25  H14 UNL     1      18.722  -0.937  54.620  1.00  0.00     0.209 HD
ENDBRANCH  23  24
ENDBRANCH   5  23
TORSDOF 6
ENDMDL
MODEL 4
REMARK VINA RESULT:      -7.4      1.901      6.254
REMARK  6 active torsions:
REMARK  status: ('A' for Active; 'I' for Inactive)
REMARK    1  A    between atoms: C6_6  and  C7_7 
REMARK    2  A    between atoms: C10_10  and  C11_11 
REMARK    3  A    between atoms: C11_11  and  N1_12 
REMARK    4  A    between atoms: C12_13  and  C13_14 
REMARK    5  A    between atoms: C13_14  and  O1_15 
REMARK    6  A    between atoms: C16_19  and  O2_20 
ROOT
HETATM    1  C7  UNL     1      22.577   1.358  51.682  1.00  0.00     0.014 A 
HETATM    2  C8  UNL     1      23.807   1.331  52.168  1.00  0.00     0.004 A 
HETATM    3  C9  UNL     1      24.350   0.652  53.232  1.00  0.00     0.024 A 
HETATM    4  C10 UNL     1      25.682   0.771  53.568  1.00  0.00    -0.021 A 
HETATM    5  C12 UNL     1      26.514   1.596  52.822  1.00  0.00    -0.025 A 
HETATM    6  C14 UNL     1      25.960   2.286  51.740  1.00  0.00     0.042 A 
HETATM    7  C15 UNL     1      24.617   2.139  51.435  1.00  0.00     0.066 A 
HETATM    8  N2  UNL     1      23.979   2.702  50.483  1.00  0.00    -0.253 NA
HETATM    9  C16 UNL     1      22.605   2.283  50.512  1.00  0.00     0.277 A 
ENDROOT
BRANCH   1  10
HETATM   10  C6  UNL     1      21.370   0.674  52.111  1.00  0.00    -0.024 A 
HETATM   11  C5  UNL     1      21.415   0.047  53.333  1.00  0.00     0.012 A 
HETATM   12  C4  UNL     1      20.349  -0.640  53.871  1.00  0.00     0.001 A 
HETATM   13  C3  UNL     1      19.159  -0.718  53.165  1.00  0.00     0.007 A 
HETATM   14  C2  UNL     1      19.103  -0.099  51.949  1.00  0.00    -0.061 A 
HETATM   15  C1  UNL     1      17.831  -0.173  51.176  1.00  0.00     0.048 C 
HETATM   16  C17 UNL     1      20.179   0.586  51.425  1.00  0.00     0.019 A 
ENDBRANCH   1  10
BRANCH   9  17
HETATM   17  O2  UNL     1      22.368   1.500  49.367  1.00  0.00    -0.371 OA
HETATM   18  H17 UNL     1      21.766   1.945  48.744  1.00  0.00     0.212 HD
ENDBRANCH   9  17
BRANCH   4  19
HETATM   19  C11 UNL     1      26.299   0.041  54.728  1.00  0.00     0.305 C 
BRANCH  19  20
HETATM   20  N1  UNL     1      25.424  -1.000  55.213  1.00  0.00     0.082 N 
HETATM   21  H10 UNL     1      25.668  -1.307  56.171  1.00  0.00     0.313 HD
HETATM   22  H11 UNL     1      25.210  -1.736  54.530  1.00  0.00     0.313 HD
ENDBRANCH  19  20
ENDBRANCH   4  19
BRANCH   5  23
HETATM   23  C13 UNL     1      27.957   1.766  53.137  1.00  0.00     0.203 C 
BRANCH  23  24
HETATM   24  O1  UNL     1      28.120   2.844  54.008  1.00  0.00    -0.396 OA
HETATM   25  H14 UNL     1      27.422   2.843  54.721  1.00  0.00     0.209 HD
ENDBRANCH  23  24
ENDBRANCH   5  23
TORSDOF 6
ENDMDL
MODEL 5
REMARK VINA RESULT:      -7.3      2.460      4.253
REMARK  6 active torsions:
REMARK  status: ('A' for Active; 'I' for Inactive)
REMARK    1  A    between atoms: C6_6  and  C7_7 
REMARK    2  A    between atoms: C10_10  and  C11_11 
REMARK    3  A    between atoms: C11_11  and  N1_12 
REMARK    4  A    between atoms: C12_13  and  C13_14 
REMARK    5  A    between atoms: C13_14  and  O1_15 
REMARK    6  A    between atoms: C16_19  and  O2_20 
ROOT
HETATM    1  C7  UNL     1      22.551   0.067  53.359  1.00  0.00     0.014 A 
HETATM    2  C8  UNL     1      21.603   0.326  52.473  1.00  0.00     0.004 A 
HETATM    3  C9  UNL     1      21.669   0.763  51.173  1.00  0.00     0.024 A 
HETATM    4  C10 UNL     1      20.535   0.972  50.416  1.00  0.00    -0.021 A 
HETATM    5  C12 UNL     1      19.282   0.738  50.967  1.00  0.00    -0.025 A 
HETATM    6  C14 UNL     1      19.217   0.293  52.290  1.00  0.00     0.042 A 
HETATM    7  C15 UNL     1      20.380   0.095  53.017  1.00  0.00     0.066 A 
HETATM    8  N2  UNL     1      20.472  -0.306  54.225  1.00  0.00    -0.253 NA
HETATM    9  C16 UNL     1      21.857  -0.377  54.603  1.00  0.00     0.277 A 
ENDROOT
BRANCH   1  10
HETATM   10  C6  UNL     1      23.997   0.158  53.259  1.00  0.00    -0.024 A 
HETATM   11  C5  UNL     1      24.549   1.409  53.388  1.00  0.00     0.012 A 
HETATM   12  C4  UNL     1      25.903   1.650  53.317  1.00  0.00     0.001 A 
HETATM   13  C3  UNL     1      26.776   0.594  53.104  1.00  0.00     0.007 A 
HETATM   14  C2  UNL     1      26.238  -0.654  52.973  1.00  0.00    -0.061 A 
HETATM   15  C1  UNL     1      27.161  -1.801  52.743  1.00  0.00     0.048 C 
HETATM   16  C17 UNL     1      24.879  -0.878  53.048  1.00  0.00     0.019 A 
ENDBRANCH   1  10
BRANCH   9  17
HETATM   17  O2  UNL     1      22.183  -1.733  54.790  1.00  0.00    -0.371 OA
HETATM   18  H17 UNL     1      23.138  -1.859  54.935  1.00  0.00     0.212 HD
ENDBRANCH   9  17
BRANCH   4  19
HETATM   19  C11 UNL     1      20.581   1.452  48.993  1.00  0.00     0.305 C 
BRANCH  19  20
HETATM   20  N1  UNL     1      21.878   1.214  48.405  1.00  0.00     0.082 N 
HETATM   21  H10 UNL     1      22.510   2.028  48.498  1.00  0.00     0.313 HD
HETATM   22  H11 UNL     1      21.858   0.745  47.491  1.00  0.00     0.313 HD
ENDBRANCH  19  20
ENDBRANCH   4  19
BRANCH   5  23
HETATM   23  C13 UNL     1      18.025   0.945  50.202  1.00  0.00     0.203 C 
BRANCH  23  24
HETATM   24  O1  UNL     1      17.568  -0.280  49.716  1.00  0.00    -0.396 OA
HETATM   25  H14 UNL     1      16.758  -0.166  49.146  1.00  0.00     0.209 HD
ENDBRANCH  23  24
ENDBRANCH   5  23
TORSDOF 6
ENDMDL
MODEL 6
REMARK VINA RESULT:      -7.3      2.425      4.335
REMARK  6 active torsions:
REMARK  status: ('A' for Active; 'I' for Inactive)
REMARK    1  A    between atoms: C6_6  and  C7_7 
REMARK    2  A    between atoms: C10_10  and  C11_11 
REMARK    3  A    between atoms: C11_11  and  N1_12 
REMARK    4  A    between atoms: C12_13  and  C13_14 
REMARK    5  A    between atoms: C13_14  and  O1_15 
REMARK    6  A    between atoms: C16_19  and  O2_20 
ROOT
HETATM    1  C7  UNL     1      25.172   1.933  51.972  1.00  0.00     0.014 A 
HETATM    2  C8  UNL     1      24.135   1.201  52.346  1.00  0.00     0.004 A 
HETATM    3  C9  UNL     1      22.831   1.183  51.913  1.00  0.00     0.024 A 
HETATM    4  C10 UNL     1      21.897   0.323  52.451  1.00  0.00    -0.021 A 
HETATM    5  C12 UNL     1      22.265  -0.557  53.461  1.00  0.00    -0.025 A 
HETATM    6  C14 UNL     1      23.592  -0.537  53.901  1.00  0.00     0.042 A 
HETATM    7  C15 UNL     1      24.500   0.342  53.333  1.00  0.00     0.066 A 
HETATM    8  N2  UNL     1      25.735   0.471  53.632  1.00  0.00    -0.253 NA
HETATM    9  C16 UNL     1      26.324   1.492  52.811  1.00  0.00     0.277 A 
ENDROOT
BRANCH   1  10
HETATM   10  C6  UNL     1      25.287   2.974  50.967  1.00  0.00    -0.024 A 
HETATM   11  C5  UNL     1      24.137   3.654  50.645  1.00  0.00     0.012 A 
HETATM   12  C4  UNL     1      24.093   4.666  49.712  1.00  0.00     0.001 A 
HETATM   13  C3  UNL     1      25.253   5.039  49.050  1.00  0.00     0.007 A 
HETATM   14  C2  UNL     1      26.401   4.369  49.362  1.00  0.00    -0.061 A 
HETATM   15  C1  UNL     1      27.657   4.756  48.660  1.00  0.00     0.048 C 
HETATM   16  C17 UNL     1      26.429   3.358  50.299  1.00  0.00     0.019 A 
ENDBRANCH   1  10
BRANCH   9  17
HETATM   17  O2  UNL     1      27.246   0.873  51.947  1.00  0.00    -0.371 OA
HETATM   18  H17 UNL     1      27.730   1.524  51.408  1.00  0.00     0.212 HD
ENDBRANCH   9  17
BRANCH   4  19
HETATM   19  C11 UNL     1      20.465   0.286  51.996  1.00  0.00     0.305 C 
BRANCH  19  20
HETATM   20  N1  UNL     1      19.871   1.600  52.036  1.00  0.00     0.082 N 
HETATM   21  H10 UNL     1      19.968   2.049  52.964  1.00  0.00     0.313 HD
HETATM   22  H11 UNL     1      18.955   1.675  51.578  1.00  0.00     0.313 HD
ENDBRANCH  19  20
ENDBRANCH   4  19
BRANCH   5  23
HETATM   23  C13 UNL     1      21.303  -1.505  54.081  1.00  0.00     0.203 C 
BRANCH  23  24
HETATM   24  O1  UNL     1      21.862  -2.046  55.239  1.00  0.00    -0.396 OA
HETATM   25  H14 UNL     1      22.030  -3.024  55.139  1.00  0.00     0.209 HD
ENDBRANCH  23  24
ENDBRANCH   5  23
TORSDOF 6
ENDMDL
MODEL 7
REMARK VINA RESULT:      -7.2      2.933      6.439
REMARK  6 active torsions:
REMARK  status: ('A' for Active; 'I' for Inactive)
REMARK    1  A    between atoms: C6_6  and  C7_7 
REMARK    2  A    between atoms: C10_10  and  C11_11 
REMARK    3  A    between atoms: C11_11  and  N1_12 
REMARK    4  A    between atoms: C12_13  and  C13_14 
REMARK    5  A    between atoms: C13_14  and  O1_15 
REMARK    6  A    between atoms: C16_19  and  O2_20 
ROOT
HETATM    1  C7  UNL     1      24.467   1.180  52.310  1.00  0.00     0.014 A 
HETATM    2  C8  UNL     1      24.852   2.115  51.456  1.00  0.00     0.004 A 
HETATM    3  C9  UNL     1      24.134   3.025  50.719  1.00  0.00     0.024 A 
HETATM    4  C10 UNL     1      24.749   3.927  49.876  1.00  0.00    -0.021 A 
HETATM    5  C12 UNL     1      26.133   3.929  49.755  1.00  0.00    -0.025 A 
HETATM    6  C14 UNL     1      26.862   3.003  50.505  1.00  0.00     0.042 A 
HETATM    7  C15 UNL     1      26.206   2.114  51.342  1.00  0.00     0.066 A 
HETATM    8  N2  UNL     1      26.738   1.220  52.082  1.00  0.00    -0.253 NA
HETATM    9  C16 UNL     1      25.710   0.511  52.792  1.00  0.00     0.277 A 
ENDROOT
BRANCH   1  10
HETATM   10  C6  UNL     1      23.143   0.793  52.762  1.00  0.00    -0.024 A 
HETATM   11  C5  UNL     1      22.136   1.713  52.590  1.00  0.00     0.012 A 
HETATM   12  C4  UNL     1      20.832   1.487  52.969  1.00  0.00     0.001 A 
HETATM   13  C3  UNL     1      20.489   0.279  53.556  1.00  0.00     0.007 A 
HETATM   14  C2  UNL     1      21.481  -0.642  53.733  1.00  0.00    -0.061 A 
HETATM   15  C1  UNL     1      21.131  -1.946  54.363  1.00  0.00     0.048 C 
HETATM   16  C17 UNL     1      22.783  -0.401  53.347  1.00  0.00     0.019 A 
ENDBRANCH   1  10
BRANCH   9  17
HETATM   17  O2  UNL     1      25.837   0.822  54.159  1.00  0.00    -0.371 OA
HETATM   18  H17 UNL     1      25.930   1.781  54.304  1.00  0.00     0.212 HD
ENDBRANCH   9  17
BRANCH   4  19
HETATM   19  C11 UNL     1      23.985   4.929  49.058  1.00  0.00     0.305 C 
BRANCH  19  20
HETATM   20  N1  UNL     1      22.939   4.291  48.295  1.00  0.00     0.082 N 
HETATM   21  H10 UNL     1      23.303   3.796  47.462  1.00  0.00     0.313 HD
HETATM   22  H11 UNL     1      22.093   4.859  48.163  1.00  0.00     0.313 HD
ENDBRANCH  19  20
ENDBRANCH   4  19
BRANCH   5  23
HETATM   23  C13 UNL     1      26.851   4.876  48.861  1.00  0.00     0.203 C 
BRANCH  23  24
HETATM   24  O1  UNL     1      28.195   4.938  49.234  1.00  0.00    -0.396 OA
HETATM   25  H14 UNL     1      28.663   4.078  49.046  1.00  0.00     0.209 HD
ENDBRANCH  23  24
ENDBRANCH   5  23
TORSDOF 6
ENDMDL
MODEL 8
REMARK VINA RESULT:      -7.1      3.039      6.087
REMARK  6 active torsions:
REMARK  status: ('A' for Active; 'I' for Inactive)
REMARK    1  A    between atoms: C6_6  and  C7_7 
REMARK    2  A    between atoms: C10_10  and  C11_11 
REMARK    3  A    between atoms: C11_11  and  N1_12 
REMARK    4  A    between atoms: C12_13  and  C13_14 
REMARK    5  A    between atoms: C13_14  and  O1_15 
REMARK    6  A    between atoms: C16_19  and  O2_20 
ROOT
HETATM    1  C7  UNL     1      22.337   1.242  51.020  1.00  0.00     0.014 A 
HETATM    2  C8  UNL     1      23.276   0.903  51.889  1.00  0.00     0.004 A 
HETATM    3  C9  UNL     1      24.600   1.256  51.980  1.00  0.00     0.024 A 
HETATM    4  C10 UNL     1      25.414   0.776  52.985  1.00  0.00    -0.021 A 
HETATM    5  C12 UNL     1      24.898  -0.090  53.941  1.00  0.00    -0.025 A 
HETATM    6  C14 UNL     1      23.550  -0.448  53.846  1.00  0.00     0.042 A 
HETATM    7  C15 UNL     1      22.766   0.056  52.822  1.00  0.00     0.066 A 
HETATM    8  N2  UNL     1      21.529  -0.181  52.612  1.00  0.00    -0.253 NA
HETATM    9  C16 UNL     1      21.093   0.536  51.446  1.00  0.00     0.277 A 
ENDROOT
BRANCH   1  10
HETATM   10  C6  UNL     1      22.386   2.111  49.858  1.00  0.00    -0.024 A 
HETATM   11  C5  UNL     1      21.919   1.590  48.676  1.00  0.00     0.012 A 
HETATM   12  C4  UNL     1      21.902   2.295  47.493  1.00  0.00     0.001 A 
HETATM   13  C3  UNL     1      22.374   3.598  47.465  1.00  0.00     0.007 A 
HETATM   14  C2  UNL     1      22.841   4.125  48.634  1.00  0.00    -0.061 A 
HETATM   15  C1  UNL     1      23.354   5.525  48.624  1.00  0.00     0.048 C 
HETATM   16  C17 UNL     1      22.850   3.407  49.811  1.00  0.00     0.019 A 
ENDBRANCH   1  10
BRANCH   9  17
HETATM   17  O2  UNL     1      20.184   1.526  51.864  1.00  0.00    -0.371 OA
HETATM   18  H17 UNL     1      19.365   1.511  51.337  1.00  0.00     0.212 HD
ENDBRANCH   9  17
BRANCH   4  19
HETATM   19  C11 UNL     1      26.865   1.146  53.105  1.00  0.00     0.305 C 
BRANCH  19  20
HETATM   20  N1  UNL     1      27.113   2.463  52.570  1.00  0.00     0.082 N 
HETATM   21  H10 UNL     1      27.389   3.142  53.302  1.00  0.00     0.313 HD
HETATM   22  H11 UNL     1      26.427   2.783  51.876  1.00  0.00     0.313 HD
ENDBRANCH  19  20
ENDBRANCH   4  19
BRANCH   5  23
HETATM   23  C13 UNL     1      25.726  -0.640  55.046  1.00  0.00     0.203 C 
BRANCH  23  24
HETATM   24  O1  UNL     1      24.940  -1.468  55.848  1.00  0.00    -0.396 OA
HETATM   25  H14 UNL     1      25.096  -2.431  55.639  1.00  0.00     0.209 HD
ENDBRANCH  23  24
ENDBRANCH   5  23
TORSDOF 6
ENDMDL
MODEL 9
REMARK VINA RESULT:      -7.1      2.658      3.476
REMARK  6 active torsions:
REMARK  status: ('A' for Active; 'I' for Inactive)
REMARK    1  A    between atoms: C6_6  and  C7_7 
REMARK    2  A    between atoms: C10_10  and  C11_11 
REMARK    3  A    between atoms: C11_11  and  N1_12 
REMARK    4  A    between atoms: C12_13  and  C13_14 
REMARK    5  A    between atoms: C13_14  and  O1_15 
REMARK    6  A    between atoms: C16_19  and  O2_20 
ROOT
HETATM    1  C7  UNL     1      23.502   3.312  52.247  1.00  0.00     0.014 A 
HETATM    2  C8  UNL     1      22.235   2.956  52.099  1.00  0.00     0.004 A 
HETATM    3  C9  UNL     1      21.636   1.721  52.067  1.00  0.00     0.024 A 
HETATM    4  C10 UNL     1      20.275   1.576  51.899  1.00  0.00    -0.021 A 
HETATM    5  C12 UNL     1      19.471   2.700  51.757  1.00  0.00    -0.025 A 
HETATM    6  C14 UNL     1      20.082   3.956  51.790  1.00  0.00     0.042 A 
HETATM    7  C15 UNL     1      21.453   4.059  51.961  1.00  0.00     0.066 A 
HETATM    8  N2  UNL     1      22.143   5.131  52.011  1.00  0.00    -0.253 NA
HETATM    9  C16 UNL     1      23.529   4.803  52.199  1.00  0.00     0.277 A 
ENDROOT
BRANCH   1  10
HETATM   10  C6  UNL     1      24.699   2.512  52.428  1.00  0.00    -0.024 A 
HETATM   11  C5  UNL     1      25.574   2.458  51.370  1.00  0.00     0.012 A 
HETATM   12  C4  UNL     1      26.749   1.741  51.395  1.00  0.00     0.001 A 
HETATM   13  C3  UNL     1      27.092   1.028  52.534  1.00  0.00     0.007 A 
HETATM   14  C2  UNL     1      26.230   1.073  53.590  1.00  0.00    -0.061 A 
HETATM   15  C1  UNL     1      26.581   0.312  54.823  1.00  0.00     0.048 C 
HETATM   16  C17 UNL     1      25.056   1.797  53.550  1.00  0.00     0.019 A 
ENDBRANCH   1  10
BRANCH   9  17
HETATM   17  O2  UNL     1      23.908   5.246  53.479  1.00  0.00    -0.371 OA
HETATM   18  H17 UNL     1      24.831   5.013  53.685  1.00  0.00     0.212 HD
ENDBRANCH   9  17
BRANCH   4  19
HETATM   19  C11 UNL     1      19.597   0.235  51.859  1.00  0.00     0.305 C 
BRANCH  19  20
HETATM   20  N1  UNL     1      19.659  -0.419  53.144  1.00  0.00     0.082 N 
HETATM   21  H10 UNL     1      19.068   0.048  53.854  1.00  0.00     0.313 HD
HETATM   22  H11 UNL     1      20.601  -0.702  53.438  1.00  0.00     0.313 HD
ENDBRANCH  19  20
ENDBRANCH   4  19
BRANCH   5  23
HETATM   23  C13 UNL     1      17.999   2.606  51.572  1.00  0.00     0.203 C 
BRANCH  23  24
HETATM   24  O1  UNL     1      17.397   3.782  52.025  1.00  0.00    -0.396 OA
HETATM   25  H14 UNL     1      18.074   4.422  52.380  1.00  0.00     0.209 HD
ENDBRANCH  23  24
ENDBRANCH   5  23
TORSDOF 6
ENDMDL
