MODEL 1
REMARK VINA RESULT:      -7.3      0.000      0.000
REMARK  7 active torsions:
REMARK  status: ('A' for Active; 'I' for Inactive)
REMARK    1  A    between atoms: N1_1  and  C1_2 
REMARK    2  A    between atoms: C2_3  and  C3_4 
REMARK    3  A    between atoms: C3_4  and  N2_5 
REMARK    4  A    between atoms: C4_6  and  C5_7 
REMARK    5  A    between atoms: C6_9  and  C7_10 
REMARK    6  A    between atoms: C11_15  and  S1_16 
REMARK    7  A    between atoms: N4_17  and  C12_18 
ROOT
HETATM    1  C5  UNL     1      25.710   2.865  51.217  1.00  0.00     0.142 A 
HETATM    2  N3  UNL     1      24.464   2.910  51.504  1.00  0.00    -0.244 NA
HETATM    3  C6  UNL     1      24.573   2.092  52.694  1.00  0.00     0.232 A 
HETATM    4  N4  UNL     1      26.013   2.066  52.327  1.00  0.00    -0.335 N 
ENDROOT
BRANCH   1   5
HETATM    5  C4  UNL     1      26.631   3.380  50.185  1.00  0.00     0.160 C 
HETATM    6  N2  UNL     1      26.579   4.521  49.586  1.00  0.00    -0.294 NA
BRANCH   6   7
HETATM    7  C3  UNL     1      27.593   4.825  48.599  1.00  0.00     0.177 C 
BRANCH   7   8
HETATM    8  C2  UNL     1      27.715   6.315  48.425  1.00  0.00     0.011 C 
HETATM    9  C1  UNL     1      26.950   7.315  48.858  1.00  0.00     0.078 C 
BRANCH   9  10
HETATM   10  N1  UNL     1      26.961   8.736  48.761  1.00  0.00    -0.408 N 
HETATM   11  H1  UNL     1      27.637   9.327  49.315  1.00  0.00     0.155 HD
HETATM   12  H2  UNL     1      26.343   9.347  48.167  1.00  0.00     0.155 HD
ENDBRANCH   9  10
ENDBRANCH   7   8
ENDBRANCH   6   7
ENDBRANCH   1   5
BRANCH   4  13
HETATM   13  C12 UNL     1      26.966   1.361  53.113  1.00  0.00     0.088 C 
HETATM   14  C13 UNL     1      28.195   2.257  53.324  1.00  0.00     0.025 C 
HETATM   15  C14 UNL     1      29.122   1.689  54.346  1.00  0.00     0.002 C 
HETATM   16  C15 UNL     1      28.672   0.309  54.714  1.00  0.00     0.000 C 
HETATM   17  C16 UNL     1      28.459  -0.534  53.478  1.00  0.00     0.002 C 
HETATM   18  C17 UNL     1      27.454   0.092  52.513  1.00  0.00     0.025 C 
ENDBRANCH   4  13
BRANCH   3  19
HETATM   19  C7  UNL     1      24.028   0.733  52.573  1.00  0.00     0.070 A 
HETATM   20  C8  UNL     1      22.950   0.753  53.738  1.00  0.00     0.077 A 
HETATM   21  C9  UNL     1      21.803  -0.398  54.367  1.00  0.00     0.116 A 
HETATM   22  S1  UNL     1      23.066  -0.305  53.066  1.00  0.00    -0.194 SA
HETATM   23  C10 UNL     1      21.490  -1.925  53.911  1.00  0.00     0.190 A 
HETATM   24  C11 UNL     1      22.226  -1.182  53.510  1.00  0.00     0.001 A 
HETATM   25  F1  UNL     1      20.693  -1.677  54.888  1.00  0.00    -0.232 F 
ENDBRANCH   3  19
TORSDOF 7
ENDMDL
MODEL 2
REMARK VINA RESULT:      -7.0      3.980      7.088
REMARK  7 active torsions:
REMARK  status: ('A' for Active; 'I' for Inactive)
REMARK    1  A    between atoms: N1_1  and  C1_2 
REMARK    2  A    between atoms: C2_3  and  C3_4 
REMARK    3  A    between atoms: C3_4  and  N2_5 
REMARK    4  A    between atoms: C4_6  and  C5_7 
REMARK    5  A    between atoms: C6_9  and  C7_10 
REMARK    6  A    between atoms: C11_15  and  S1_16 
REMARK    7  A    between atoms: N4_17  and  C12_18 
ROOT
HETATM    1  C5  UNL     1      22.505  -0.437  53.599  1.00  0.00     0.142 A 
HETATM    2  N3  UNL     1      23.360  -0.768  54.493  1.00  0.00    -0.244 NA
HETATM    3  C6  UNL     1      24.412   0.093  53.993  1.00  0.00     0.232 A 
HETATM    4  N4  UNL     1      23.390   0.452  52.976  1.00  0.00    -0.335 N 
ENDROOT
BRANCH   1   5
HETATM    5  C4  UNL     1      21.114  -0.753  53.224  1.00  0.00     0.160 C 
HETATM    6  N2  UNL     1      20.094   0.035  53.254  1.00  0.00    -0.294 NA
BRANCH   6   7
HETATM    7  C3  UNL     1      18.810  -0.487  52.838  1.00  0.00     0.177 C 
BRANCH   7   8
HETATM    8  C2  UNL     1      18.555  -0.147  51.394  1.00  0.00     0.011 C 
HETATM    9  C1  UNL     1      18.891   0.921  50.673  1.00  0.00     0.078 C 
BRANCH   9  10
HETATM   10  N1  UNL     1      18.711   1.350  49.326  1.00  0.00    -0.408 N 
HETATM   11  H1  UNL     1      19.217   2.191  48.937  1.00  0.00     0.155 HD
HETATM   12  H2  UNL     1      18.096   0.920  48.589  1.00  0.00     0.155 HD
ENDBRANCH   9  10
ENDBRANCH   7   8
ENDBRANCH   6   7
ENDBRANCH   1   5
BRANCH   4  13
HETATM   13  C12 UNL     1      23.667   1.395  51.948  1.00  0.00     0.088 C 
HETATM   14  C13 UNL     1      23.641   2.807  52.549  1.00  0.00     0.025 C 
HETATM   15  C14 UNL     1      24.171   3.823  51.594  1.00  0.00     0.002 C 
HETATM   16  C15 UNL     1      24.383   3.185  50.256  1.00  0.00     0.000 C 
HETATM   17  C16 UNL     1      23.142   2.448  49.810  1.00  0.00     0.002 C 
HETATM   18  C17 UNL     1      22.701   1.389  50.818  1.00  0.00     0.025 C 
ENDBRANCH   4  13
BRANCH   3  19
HETATM   19  C7  UNL     1      25.525  -0.598  53.326  1.00  0.00     0.070 A 
HETATM   20  C8  UNL     1      26.749  -0.055  54.176  1.00  0.00     0.077 A 
HETATM   21  C9  UNL     1      28.474  -0.306  54.141  1.00  0.00     0.116 A 
HETATM   22  S1  UNL     1      26.998  -0.857  53.238  1.00  0.00    -0.194 SA
HETATM   23  C10 UNL     1      29.381  -1.228  53.159  1.00  0.00     0.190 A 
HETATM   24  C11 UNL     1      28.273  -1.064  53.185  1.00  0.00     0.001 A 
HETATM   25  F1  UNL     1      30.200  -0.666  53.974  1.00  0.00    -0.232 F 
ENDBRANCH   3  19
TORSDOF 7
ENDMDL
MODEL 3
REMARK VINA RESULT:      -7.0      3.710      7.446
REMARK  7 active torsions:
REMARK  status: ('A' for Active; 'I' for Inactive)
REMARK    1  A    between atoms: N1_1  and  C1_2 
REMARK    2  A    between atoms: C2_3  and  C3_4 
REMARK    3  A    between atoms: C3_4  and  N2_5 
REMARK    4  A    between atoms: C4_6  and  C5_7 
REMARK    5  A    between atoms: C6_9  and  C7_10 
REMARK    6  A    between atoms: C11_15  and  S1_16 
REMARK    7  A    between atoms: N4_17  and  C12_18 
ROOT
HETATM    1  C5  UNL     1      22.527   0.443  52.468  1.00  0.00     0.142 A 
HETATM    2  N3  UNL     1      23.199  -0.094  53.416  1.00  0.00    -0.244 NA
HETATM    3  C6  UNL     1      24.319   0.819  53.317  1.00  0.00     0.232 A 
HETATM    4  N4  UNL     1      23.506   1.414  52.224  1.00  0.00    -0.335 N 
ENDROOT
BRANCH   1   5
HETATM    5  C4  UNL     1      21.236   0.256  51.779  1.00  0.00     0.160 C 
HETATM    6  N2  UNL     1      20.093   0.756  52.105  1.00  0.00    -0.294 NA
BRANCH   6   7
HETATM    7  C3  UNL     1      18.945   0.440  51.281  1.00  0.00     0.177 C 
BRANCH   7   8
HETATM    8  C2  UNL     1      18.043  -0.528  51.998  1.00  0.00     0.011 C 
HETATM    9  C1  UNL     1      18.217  -1.220  53.123  1.00  0.00     0.078 C 
BRANCH   9  10
HETATM   10  N1  UNL     1      17.453  -2.148  53.887  1.00  0.00    -0.408 N 
HETATM   11  H1  UNL     1      17.241  -1.988  54.908  1.00  0.00     0.155 HD
HETATM   12  H2  UNL     1      17.027  -3.055  53.563  1.00  0.00     0.155 HD
ENDBRANCH   9  10
ENDBRANCH   7   8
ENDBRANCH   6   7
ENDBRANCH   1   5
BRANCH   4  13
HETATM   13  C12 UNL     1      23.966   2.542  51.489  1.00  0.00     0.088 C 
HETATM   14  C13 UNL     1      23.244   3.796  52.001  1.00  0.00     0.025 C 
HETATM   15  C14 UNL     1      23.855   5.044  51.459  1.00  0.00     0.002 C 
HETATM   16  C15 UNL     1      24.868   4.689  50.414  1.00  0.00     0.000 C 
HETATM   17  C16 UNL     1      24.276   3.749  49.391  1.00  0.00     0.002 C 
HETATM   18  C17 UNL     1      23.725   2.473  50.024  1.00  0.00     0.025 C 
ENDBRANCH   4  13
BRANCH   3  19
HETATM   19  C7  UNL     1      25.544   0.248  52.740  1.00  0.00     0.070 A 
HETATM   20  C8  UNL     1      26.503   0.293  54.005  1.00  0.00     0.077 A 
HETATM   21  C9  UNL     1      28.156  -0.168  54.307  1.00  0.00     0.116 A 
HETATM   22  S1  UNL     1      26.971  -0.169  52.931  1.00  0.00    -0.194 SA
HETATM   23  C10 UNL     1      29.263  -0.819  53.314  1.00  0.00     0.190 A 
HETATM   24  C11 UNL     1      28.201  -0.521  53.123  1.00  0.00     0.001 A 
HETATM   25  F1  UNL     1      29.843  -0.688  54.452  1.00  0.00    -0.232 F 
ENDBRANCH   3  19
TORSDOF 7
ENDMDL
MODEL 4
REMARK VINA RESULT:      -7.0      3.763      7.382
REMARK  7 active torsions:
REMARK  status: ('A' for Active; 'I' for Inactive)
REMARK    1  A    between atoms: N1_1  and  C1_2 
REMARK    2  A    between atoms: C2_3  and  C3_4 
REMARK    3  A    between atoms: C3_4  and  N2_5 
REMARK    4  A    between atoms: C4_6  and  C5_7 
REMARK    5  A    between atoms: C6_9  and  C7_10 
REMARK    6  A    between atoms: C11_15  and  S1_16 
REMARK    7  A    between atoms: N4_17  and  C12_18 
ROOT
HETATM    1  C5  UNL     1      22.681   1.686  51.491  1.00  0.00     0.142 A 
HETATM    2  N3  UNL     1      22.496   2.325  50.397  1.00  0.00    -0.244 NA
HETATM    3  C6  UNL     1      23.890   2.669  50.209  1.00  0.00     0.232 A 
HETATM    4  N4  UNL     1      24.062   1.917  51.479  1.00  0.00    -0.335 N 
ENDROOT
BRANCH   1   5
HETATM    5  C4  UNL     1      21.888   0.944  52.489  1.00  0.00     0.160 C 
HETATM    6  N2  UNL     1      21.776  -0.335  52.611  1.00  0.00    -0.294 NA
BRANCH   6   7
HETATM    7  C3  UNL     1      20.938  -0.854  53.671  1.00  0.00     0.177 C 
BRANCH   7   8
HETATM    8  C2  UNL     1      21.788  -1.295  54.833  1.00  0.00     0.011 C 
HETATM    9  C1  UNL     1      23.101  -1.216  55.039  1.00  0.00     0.078 C 
BRANCH   9  10
HETATM   10  N1  UNL     1      24.004  -1.590  56.076  1.00  0.00    -0.408 N 
HETATM   11  H1  UNL     1      24.120  -1.010  56.950  1.00  0.00     0.155 HD
HETATM   12  H2  UNL     1      24.632  -2.433  56.111  1.00  0.00     0.155 HD
ENDBRANCH   9  10
ENDBRANCH   7   8
ENDBRANCH   6   7
ENDBRANCH   1   5
BRANCH   4  13
HETATM   13  C12 UNL     1      25.342   1.756  52.078  1.00  0.00     0.088 C 
HETATM   14  C13 UNL     1      25.650   0.257  52.196  1.00  0.00     0.025 C 
HETATM   15  C14 UNL     1      27.072   0.015  52.576  1.00  0.00     0.002 C 
HETATM   16  C15 UNL     1      27.723   1.317  52.926  1.00  0.00     0.000 C 
HETATM   17  C16 UNL     1      26.893   2.078  53.934  1.00  0.00     0.002 C 
HETATM   18  C17 UNL     1      25.470   2.332  53.442  1.00  0.00     0.025 C 
ENDBRANCH   4  13
BRANCH   3  19
HETATM   19  C7  UNL     1      24.225   4.080  50.444  1.00  0.00     0.070 A 
HETATM   20  C8  UNL     1      25.369   4.286  49.363  1.00  0.00     0.077 A 
HETATM   21  C9  UNL     1      26.375   5.625  48.882  1.00  0.00     0.116 A 
HETATM   22  S1  UNL     1      25.059   5.272  50.082  1.00  0.00    -0.194 SA
HETATM   23  C10 UNL     1      26.436   7.148  49.444  1.00  0.00     0.190 A 
HETATM   24  C11 UNL     1      25.791   6.285  49.749  1.00  0.00     0.001 A 
HETATM   25  F1  UNL     1      27.318   7.079  48.512  1.00  0.00    -0.232 F 
ENDBRANCH   3  19
TORSDOF 7
ENDMDL
MODEL 5
REMARK VINA RESULT:      -6.6      4.522      7.635
REMARK  7 active torsions:
REMARK  status: ('A' for Active; 'I' for Inactive)
REMARK    1  A    between atoms: N1_1  and  C1_2 
REMARK    2  A    between atoms: C2_3  and  C3_4 
REMARK    3  A    between atoms: C3_4  and  N2_5 
REMARK    4  A    between atoms: C4_6  and  C5_7 
REMARK    5  A    between atoms: C6_9  and  C7_10 
REMARK    6  A    between atoms: C11_15  and  S1_16 
REMARK    7  A    between atoms: N4_17  and  C12_18 
ROOT
HETATM    1  C5  UNL     1      24.054   2.897  52.505  1.00  0.00     0.142 A 
HETATM    2  N3  UNL     1      23.786   3.993  53.110  1.00  0.00    -0.244 NA
HETATM    3  C6  UNL     1      22.800   4.437  52.147  1.00  0.00     0.232 A 
HETATM    4  N4  UNL     1      23.139   3.155  51.477  1.00  0.00    -0.335 N 
ENDROOT
BRANCH   1   5
HETATM    5  C4  UNL     1      24.932   1.723  52.672  1.00  0.00     0.160 C 
HETATM    6  N2  UNL     1      24.590   0.529  53.015  1.00  0.00    -0.294 NA
BRANCH   6   7
HETATM    7  C3  UNL     1      25.623  -0.479  53.119  1.00  0.00     0.177 C 
BRANCH   7   8
HETATM    8  C2  UNL     1      26.943   0.164  53.449  1.00  0.00     0.011 C 
HETATM    9  C1  UNL     1      27.586   0.302  54.607  1.00  0.00     0.078 C 
BRANCH   9  10
HETATM   10  N1  UNL     1      28.815   0.880  55.038  1.00  0.00    -0.408 N 
HETATM   11  H1  UNL     1      28.956   1.925  55.080  1.00  0.00     0.155 HD
HETATM   12  H2  UNL     1      29.687   0.381  55.353  1.00  0.00     0.155 HD
ENDBRANCH   9  10
ENDBRANCH   7   8
ENDBRANCH   6   7
ENDBRANCH   1   5
BRANCH   4  13
HETATM   13  C12 UNL     1      22.507   2.763  50.264  1.00  0.00     0.088 C 
HETATM   14  C13 UNL     1      22.029   1.311  50.400  1.00  0.00     0.025 C 
HETATM   15  C14 UNL     1      21.137   0.916  49.271  1.00  0.00     0.002 C 
HETATM   16  C15 UNL     1      21.139   1.997  48.234  1.00  0.00     0.000 C 
HETATM   17  C16 UNL     1      22.552   2.374  47.855  1.00  0.00     0.002 C 
HETATM   18  C17 UNL     1      23.378   2.819  49.060  1.00  0.00     0.025 C 
ENDBRANCH   4  13
BRANCH   3  19
HETATM   19  C7  UNL     1      23.224   5.550  51.284  1.00  0.00     0.070 A 
HETATM   20  C8  UNL     1      21.851   6.332  51.133  1.00  0.00     0.077 A 
HETATM   21  C9  UNL     1      21.349   7.777  50.300  1.00  0.00     0.116 A 
HETATM   22  S1  UNL     1      22.860   6.800  50.543  1.00  0.00    -0.194 SA
HETATM   23  C10 UNL     1      22.200   8.807  49.376  1.00  0.00     0.190 A 
HETATM   24  C11 UNL     1      22.519   7.877  49.913  1.00  0.00     0.001 A 
HETATM   25  F1  UNL     1      21.000   9.263  49.400  1.00  0.00    -0.232 F 
ENDBRANCH   3  19
TORSDOF 7
ENDMDL
MODEL 6
REMARK VINA RESULT:      -6.6      3.721      5.773
REMARK  7 active torsions:
REMARK  status: ('A' for Active; 'I' for Inactive)
REMARK    1  A    between atoms: N1_1  and  C1_2 
REMARK    2  A    between atoms: C2_3  and  C3_4 
REMARK    3  A    between atoms: C3_4  and  N2_5 
REMARK    4  A    between atoms: C4_6  and  C5_7 
REMARK    5  A    between atoms: C6_9  and  C7_10 
REMARK    6  A    between atoms: C11_15  and  S1_16 
REMARK    7  A    between atoms: N4_17  and  C12_18 
ROOT
HETATM    1  C5  UNL     1      24.602   4.156  50.544  1.00  0.00     0.142 A 
HETATM    2  N3  UNL     1      25.859   3.915  50.519  1.00  0.00    -0.244 NA
HETATM    3  C6  UNL     1      25.740   2.549  50.984  1.00  0.00     0.232 A 
HETATM    4  N4  UNL     1      24.289   2.868  50.996  1.00  0.00    -0.335 N 
ENDROOT
BRANCH   1   5
HETATM    5  C4  UNL     1      23.679   5.269  50.249  1.00  0.00     0.160 C 
HETATM    6  N2  UNL     1      23.300   6.207  51.048  1.00  0.00    -0.294 NA
BRANCH   6   7
HETATM    7  C3  UNL     1      22.382   7.208  50.547  1.00  0.00     0.177 C 
BRANCH   7   8
HETATM    8  C2  UNL     1      21.088   6.562  50.131  1.00  0.00     0.011 C 
HETATM    9  C1  UNL     1      19.966   7.082  49.639  1.00  0.00     0.078 C 
BRANCH   9  10
HETATM   10  N1  UNL     1      18.700   6.585  49.216  1.00  0.00    -0.408 N 
HETATM   11  H1  UNL     1      18.514   5.552  49.110  1.00  0.00     0.155 HD
HETATM   12  H2  UNL     1      17.839   7.138  48.970  1.00  0.00     0.155 HD
ENDBRANCH   9  10
ENDBRANCH   7   8
ENDBRANCH   6   7
ENDBRANCH   1   5
BRANCH   4  13
HETATM   13  C12 UNL     1      23.321   1.904  51.394  1.00  0.00     0.088 C 
HETATM   14  C13 UNL     1      22.317   1.708  50.249  1.00  0.00     0.025 C 
HETATM   15  C14 UNL     1      21.429   0.534  50.491  1.00  0.00     0.002 C 
HETATM   16  C15 UNL     1      21.652   0.019  51.880  1.00  0.00     0.000 C 
HETATM   17  C16 UNL     1      21.552   1.137  52.890  1.00  0.00     0.002 C 
HETATM   18  C17 UNL     1      22.534   2.271  52.600  1.00  0.00     0.025 C 
ENDBRANCH   4  13
BRANCH   3  19
HETATM   19  C7  UNL     1      26.186   2.315  52.365  1.00  0.00     0.070 A 
HETATM   20  C8  UNL     1      27.105   1.038  52.156  1.00  0.00     0.077 A 
HETATM   21  C9  UNL     1      28.066   0.034  53.207  1.00  0.00     0.116 A 
HETATM   22  S1  UNL     1      26.991   1.493  53.325  1.00  0.00    -0.194 SA
HETATM   23  C10 UNL     1      28.312   0.124  54.810  1.00  0.00     0.190 A 
HETATM   24  C11 UNL     1      27.695   0.767  54.131  1.00  0.00     0.001 A 
HETATM   25  F1  UNL     1      28.994  -0.885  54.404  1.00  0.00    -0.232 F 
ENDBRANCH   3  19
TORSDOF 7
ENDMDL
MODEL 7
REMARK VINA RESULT:      -6.5      3.015      5.321
REMARK  7 active torsions:
REMARK  status: ('A' for Active; 'I' for Inactive)
REMARK    1  A    between atoms: N1_1  and  C1_2 
REMARK    2  A    between atoms: C2_3  and  C3_4 
REMARK    3  A    between atoms: C3_4  and  N2_5 
REMARK    4  A    between atoms: C4_6  and  C5_7 
REMARK    5  A    between atoms: C6_9  and  C7_10 
REMARK    6  A    between atoms: C11_15  and  S1_16 
REMARK    7  A    between atoms: N4_17  and  C12_18 
ROOT
HETATM    1  C5  UNL     1      26.722   5.064  49.068  1.00  0.00     0.142 A 
HETATM    2  N3  UNL     1      27.434   4.002  49.126  1.00  0.00    -0.244 NA
HETATM    3  C6  UNL     1      26.405   3.186  49.736  1.00  0.00     0.232 A 
HETATM    4  N4  UNL     1      25.611   4.440  49.648  1.00  0.00    -0.335 N 
ENDROOT
BRANCH   1   5
HETATM    5  C4  UNL     1      26.849   6.461  48.610  1.00  0.00     0.160 C 
HETATM    6  N2  UNL     1      27.736   6.948  47.812  1.00  0.00    -0.294 NA
BRANCH   6   7
HETATM    7  C3  UNL     1      27.674   8.359  47.493  1.00  0.00     0.177 C 
BRANCH   7   8
HETATM    8  C2  UNL     1      28.849   9.079  48.096  1.00  0.00     0.011 C 
HETATM    9  C1  UNL     1      29.172   9.321  49.365  1.00  0.00     0.078 C 
BRANCH   9  10
HETATM   10  N1  UNL     1      30.236   9.979  50.048  1.00  0.00    -0.408 N 
HETATM   11  H1  UNL     1      30.663   9.581  50.927  1.00  0.00     0.155 HD
HETATM   12  H2  UNL     1      30.707  10.883  49.790  1.00  0.00     0.155 HD
ENDBRANCH   9  10
ENDBRANCH   7   8
ENDBRANCH   6   7
ENDBRANCH   1   5
BRANCH   4  13
HETATM   13  C12 UNL     1      24.267   4.499  50.109  1.00  0.00     0.088 C 
HETATM   14  C13 UNL     1      23.340   4.734  48.908  1.00  0.00     0.025 C 
HETATM   15  C14 UNL     1      21.905   4.554  49.275  1.00  0.00     0.002 C 
HETATM   16  C15 UNL     1      21.788   4.394  50.759  1.00  0.00     0.000 C 
HETATM   17  C16 UNL     1      22.515   5.507  51.478  1.00  0.00     0.002 C 
HETATM   18  C17 UNL     1      23.989   5.585  51.087  1.00  0.00     0.025 C 
ENDBRANCH   4  13
BRANCH   3  19
HETATM   19  C7  UNL     1      26.620   2.859  51.153  1.00  0.00     0.070 A 
HETATM   20  C8  UNL     1      26.406   1.287  51.118  1.00  0.00     0.077 A 
HETATM   21  C9  UNL     1      26.457   0.017  52.310  1.00  0.00     0.116 A 
HETATM   22  S1  UNL     1      26.678   1.817  52.228  1.00  0.00    -0.194 SA
HETATM   23  C10 UNL     1      26.758   0.084  53.905  1.00  0.00     0.190 A 
HETATM   24  C11 UNL     1      26.723   0.897  53.136  1.00  0.00     0.001 A 
HETATM   25  F1  UNL     1      26.547  -1.155  53.636  1.00  0.00    -0.232 F 
ENDBRANCH   3  19
TORSDOF 7
ENDMDL
MODEL 8
REMARK VINA RESULT:      -6.4      4.355      7.927
REMARK  7 active torsions:
REMARK  status: ('A' for Active; 'I' for Inactive)
REMARK    1  A    between atoms: N1_1  and  C1_2 
REMARK    2  A    between atoms: C2_3  and  C3_4 
REMARK    3  A    between atoms: C3_4  and  N2_5 
REMARK    4  A    between atoms: C4_6  and  C5_7 
REMARK    5  A    between atoms: C6_9  and  C7_10 
REMARK    6  A    between atoms: C11_15  and  S1_16 
REMARK    7  A    between atoms: N4_17  and  C12_18 
ROOT
HETATM    1  C5  UNL     1      20.559   0.209  52.959  1.00  0.00     0.142 A 
HETATM    2  N3  UNL     1      21.289   0.101  54.005  1.00  0.00    -0.244 NA
HETATM    3  C6  UNL     1      22.451   0.738  53.419  1.00  0.00     0.232 A 
HETATM    4  N4  UNL     1      21.570   0.845  52.228  1.00  0.00    -0.335 N 
ENDROOT
BRANCH   1   5
HETATM    5  C4  UNL     1      19.192  -0.134  52.521  1.00  0.00     0.160 C 
HETATM    6  N2  UNL     1      18.342  -0.894  53.122  1.00  0.00    -0.294 NA
BRANCH   6   7
HETATM    7  C3  UNL     1      17.046  -1.095  52.509  1.00  0.00     0.177 C 
BRANCH   7   8
HETATM    8  C2  UNL     1      16.925  -0.254  51.267  1.00  0.00     0.011 C 
HETATM    9  C1  UNL     1      16.526  -0.561  50.035  1.00  0.00     0.078 C 
BRANCH   9  10
HETATM   10  N1  UNL     1      16.371   0.133  48.800  1.00  0.00    -0.408 N 
HETATM   11  H1  UNL     1      17.193   0.551  48.289  1.00  0.00     0.155 HD
HETATM   12  H2  UNL     1      15.481   0.309  48.267  1.00  0.00     0.155 HD
ENDBRANCH   9  10
ENDBRANCH   7   8
ENDBRANCH   6   7
ENDBRANCH   1   5
BRANCH   4  13
HETATM   13  C12 UNL     1      22.024   1.448  51.022  1.00  0.00     0.088 C 
HETATM   14  C13 UNL     1      21.612   2.928  51.023  1.00  0.00     0.025 C 
HETATM   15  C14 UNL     1      22.270   3.683  49.917  1.00  0.00     0.002 C 
HETATM   16  C15 UNL     1      22.981   2.723  49.013  1.00  0.00     0.000 C 
HETATM   17  C16 UNL     1      22.059   1.605  48.587  1.00  0.00     0.002 C 
HETATM   18  C17 UNL     1      21.474   0.848  49.779  1.00  0.00     0.025 C 
ENDBRANCH   4  13
BRANCH   3  19
HETATM   19  C7  UNL     1      23.568  -0.164  53.104  1.00  0.00     0.070 A 
HETATM   20  C8  UNL     1      24.799   0.802  53.369  1.00  0.00     0.077 A 
HETATM   21  C9  UNL     1      26.531   0.638  53.266  1.00  0.00     0.116 A 
HETATM   22  S1  UNL     1      25.048  -0.373  52.993  1.00  0.00    -0.194 SA
HETATM   23  C10 UNL     1      27.442  -0.637  52.840  1.00  0.00     0.190 A 
HETATM   24  C11 UNL     1      26.329  -0.527  52.906  1.00  0.00     0.001 A 
HETATM   25  F1  UNL     1      28.265   0.310  53.114  1.00  0.00    -0.232 F 
ENDBRANCH   3  19
TORSDOF 7
ENDMDL
MODEL 9
REMARK VINA RESULT:      -6.3      7.482     10.461
REMARK  7 active torsions:
REMARK  status: ('A' for Active; 'I' for Inactive)
REMARK    1  A    between atoms: N1_1  and  C1_2 
REMARK    2  A    between atoms: C2_3  and  C3_4 
REMARK    3  A    between atoms: C3_4  and  N2_5 
REMARK    4  A    between atoms: C4_6  and  C5_7 
REMARK    5  A    between atoms: C6_9  and  C7_10 
REMARK    6  A    between atoms: C11_15  and  S1_16 
REMARK    7  A    between atoms: N4_17  and  C12_18 
ROOT
HETATM    1  C5  UNL     1      29.029   6.192  48.277  1.00  0.00     0.142 A 
HETATM    2  N3  UNL     1      29.763   5.164  48.486  1.00  0.00    -0.244 NA
HETATM    3  C6  UNL     1      31.020   5.874  48.366  1.00  0.00     0.232 A 
HETATM    4  N4  UNL     1      30.132   7.042  48.129  1.00  0.00    -0.335 N 
ENDROOT
BRANCH   1   5
HETATM    5  C4  UNL     1      27.596   6.532  48.191  1.00  0.00     0.160 C 
HETATM    6  N2  UNL     1      26.999   7.550  48.709  1.00  0.00    -0.294 NA
BRANCH   6   7
HETATM    7  C3  UNL     1      25.574   7.692  48.499  1.00  0.00     0.177 C 
BRANCH   7   8
HETATM    8  C2  UNL     1      24.858   7.743  49.821  1.00  0.00     0.011 C 
HETATM    9  C1  UNL     1      24.802   6.867  50.823  1.00  0.00     0.078 C 
BRANCH   9  10
HETATM   10  N1  UNL     1      24.171   6.803  52.099  1.00  0.00    -0.408 N 
HETATM   11  H1  UNL     1      24.298   7.561  52.822  1.00  0.00     0.155 HD
HETATM   12  H2  UNL     1      23.539   6.047  52.468  1.00  0.00     0.155 HD
ENDBRANCH   9  10
ENDBRANCH   7   8
ENDBRANCH   6   7
ENDBRANCH   1   5
BRANCH   4  13
HETATM   13  C12 UNL     1      30.663   8.339  47.887  1.00  0.00     0.088 C 
HETATM   14  C13 UNL     1      30.148   9.296  48.972  1.00  0.00     0.025 C 
HETATM   15  C14 UNL     1      30.861  10.606  48.935  1.00  0.00     0.002 C 
HETATM   16  C15 UNL     1      31.727  10.666  47.715  1.00  0.00     0.000 C 
HETATM   17  C16 UNL     1      30.938  10.312  46.477  1.00  0.00     0.002 C 
HETATM   18  C17 UNL     1      30.289   8.932  46.576  1.00  0.00     0.025 C 
ENDBRANCH   4  13
BRANCH   3  19
HETATM   19  C7  UNL     1      31.781   5.599  47.138  1.00  0.00     0.070 A 
HETATM   20  C8  UNL     1      32.950   4.700  47.723  1.00  0.00     0.077 A 
HETATM   21  C9  UNL     1      34.338   3.897  47.039  1.00  0.00     0.116 A 
HETATM   22  S1  UNL     1      32.955   4.936  46.486  1.00  0.00    -0.194 SA
HETATM   23  C10 UNL     1      34.867   3.837  45.505  1.00  0.00     0.190 A 
HETATM   24  C11 UNL     1      33.977   4.352  45.948  1.00  0.00     0.001 A 
HETATM   25  F1  UNL     1      35.699   3.142  46.193  1.00  0.00    -0.232 F 
ENDBRANCH   3  19
TORSDOF 7
ENDMDL
