MODEL 1
REMARK VINA RESULT:     -10.1      0.000      0.000
REMARK  3 active torsions:
REMARK  status: ('A' for Active; 'I' for Inactive)
REMARK    1  A    between atoms: C9_10  and  O2_11 
REMARK    2  A    between atoms: O2_11  and  C10_12 
REMARK    3  A    between atoms: C10_12  and  C11_13 
ROOT
HETATM    1  C1  UNL     1      24.881  -1.015  55.270  1.00  0.00     0.048 C 
HETATM    2  C2  UNL     1      25.214  -0.403  54.115  1.00  0.00     0.071 C 
HETATM    3  O1  UNL     1      23.988  -0.259  53.948  1.00  0.00    -0.349 OA
HETATM    4  C3  UNL     1      22.685  -0.105  53.770  1.00  0.00     0.128 C 
HETATM    5  C4  UNL     1      21.810  -1.226  54.328  1.00  0.00     0.040 C 
HETATM    6  C5  UNL     1      22.372   0.102  52.290  1.00  0.00     0.016 C 
HETATM    7  C6  UNL     1      20.890   0.042  52.014  1.00  0.00     0.013 C 
HETATM    8  C7  UNL     1      23.005   1.346  51.852  1.00  0.00     0.039 C 
HETATM    9  C8  UNL     1      22.899   2.553  51.245  1.00  0.00     0.032 C 
HETATM   10  C9  UNL     1      24.182   3.279  51.224  1.00  0.00     0.044 C 
HETATM   11  C17 UNL     1      25.311   2.884  51.725  1.00  0.00     0.012 C 
HETATM   12  C18 UNL     1      26.221   2.011  52.410  1.00  0.00     0.033 C 
HETATM   13  C19 UNL     1      26.852   1.072  53.057  1.00  0.00     0.043 C 
HETATM   14  C20 UNL     1      28.198   1.656  53.102  1.00  0.00     0.285 C 
HETATM   15  N1  UNL     1      29.132   0.625  53.560  1.00  0.00     0.112 N 
HETATM   16  C21 UNL     1      28.755   0.096  54.834  1.00  0.00     0.538 C 
HETATM   17  N2  UNL     1      27.399  -0.317  54.932  1.00  0.00     0.123 N 
HETATM   18  C22 UNL     1      26.628  -0.246  53.712  1.00  0.00     0.289 C 
HETATM   19  H24 UNL     1      30.057   1.095  53.652  1.00  0.00     0.318 HD
HETATM   20  H27 UNL     1      26.863   0.046  55.751  1.00  0.00     0.319 HD
ENDROOT
BRANCH  10  21
HETATM   21  O2  UNL     1      24.502   4.513  50.689  1.00  0.00    -0.351 OA
BRANCH  21  22
HETATM   22  C10 UNL     1      24.466   4.797  49.318  1.00  0.00     0.213 C 
BRANCH  22  23
HETATM   23  C11 UNL     1      25.819   5.305  48.928  1.00  0.00    -0.034 A 
HETATM   24  C12 UNL     1      25.920   6.624  48.541  1.00  0.00     0.009 A 
HETATM   25  C13 UNL     1      27.144   7.183  48.155  1.00  0.00     0.001 A 
HETATM   26  C14 UNL     1      28.240   6.347  48.183  1.00  0.00     0.000 A 
HETATM   27  C15 UNL     1      28.154   5.012  48.571  1.00  0.00     0.001 A 
HETATM   28  C16 UNL     1      26.937   4.485  48.947  1.00  0.00     0.009 A 
ENDBRANCH  22  23
ENDBRANCH  21  22
ENDBRANCH  10  21
TORSDOF 3
ENDMDL
MODEL 2
REMARK VINA RESULT:      -9.4      3.868      6.469
REMARK  3 active torsions:
REMARK  status: ('A' for Active; 'I' for Inactive)
REMARK    1  A    between atoms: C9_10  and  O2_11 
REMARK    2  A    between atoms: O2_11  and  C10_12 
REMARK    3  A    between atoms: C10_12  and  C11_13 
ROOT
HETATM    1  C1  UNL     1      19.174   2.732  50.950  1.00  0.00     0.048 C 
HETATM    2  C2  UNL     1      20.198   2.707  51.827  1.00  0.00     0.071 C 
HETATM    3  O1  UNL     1      19.910   1.506  51.984  1.00  0.00    -0.349 OA
HETATM    4  C3  UNL     1      19.605   0.228  52.152  1.00  0.00     0.128 C 
HETATM    5  C4  UNL     1      18.120  -0.112  52.025  1.00  0.00     0.040 C 
HETATM    6  C5  UNL     1      20.134  -0.273  53.493  1.00  0.00     0.016 C 
HETATM    7  C6  UNL     1      19.605  -1.646  53.830  1.00  0.00     0.013 C 
HETATM    8  C7  UNL     1      21.594  -0.190  53.475  1.00  0.00     0.039 C 
HETATM    9  C8  UNL     1      22.795  -0.792  53.658  1.00  0.00     0.032 C 
HETATM   10  C9  UNL     1      23.921   0.122  53.391  1.00  0.00     0.044 C 
HETATM   11  C17 UNL     1      23.849   1.358  53.004  1.00  0.00     0.012 C 
HETATM   12  C18 UNL     1      23.219   2.585  52.608  1.00  0.00     0.033 C 
HETATM   13  C19 UNL     1      22.438   3.576  52.281  1.00  0.00     0.043 C 
HETATM   14  C20 UNL     1      23.444   4.608  51.996  1.00  0.00     0.285 C 
HETATM   15  N1  UNL     1      22.759   5.895  51.865  1.00  0.00     0.112 N 
HETATM   16  C21 UNL     1      21.752   5.860  50.850  1.00  0.00     0.538 C 
HETATM   17  N2  UNL     1      20.846   4.769  50.944  1.00  0.00     0.123 N 
HETATM   18  C22 UNL     1      21.001   3.919  52.103  1.00  0.00     0.289 C 
HETATM   19  H24 UNL     1      23.489   6.583  51.589  1.00  0.00     0.318 HD
HETATM   20  H27 UNL     1      20.698   4.213  50.073  1.00  0.00     0.319 HD
ENDROOT
BRANCH  10  21
HETATM   21  O2  UNL     1      25.284  -0.089  53.479  1.00  0.00    -0.351 OA
BRANCH  21  22
HETATM   22  C10 UNL     1      25.982  -1.001  52.676  1.00  0.00     0.213 C 
BRANCH  22  23
HETATM   23  C11 UNL     1      27.433  -0.890  53.027  1.00  0.00    -0.034 A 
HETATM   24  C12 UNL     1      27.913   0.353  53.378  1.00  0.00     0.009 A 
HETATM   25  C13 UNL     1      29.256   0.551  53.717  1.00  0.00     0.001 A 
HETATM   26  C14 UNL     1      30.072  -0.560  53.679  1.00  0.00     0.000 A 
HETATM   27  C15 UNL     1      29.602  -1.822  53.325  1.00  0.00     0.001 A 
HETATM   28  C16 UNL     1      28.274  -1.992  52.997  1.00  0.00     0.009 A 
ENDBRANCH  22  23
ENDBRANCH  21  22
ENDBRANCH  10  21
TORSDOF 3
ENDMDL
MODEL 3
REMARK VINA RESULT:      -9.2      2.830      6.449
REMARK  3 active torsions:
REMARK  status: ('A' for Active; 'I' for Inactive)
REMARK    1  A    between atoms: C9_10  and  O2_11 
REMARK    2  A    between atoms: O2_11  and  C10_12 
REMARK    3  A    between atoms: C10_12  and  C11_13 
ROOT
HETATM    1  C1  UNL     1      20.411   3.622  51.899  1.00  0.00     0.048 C 
HETATM    2  C2  UNL     1      21.446   2.807  51.614  1.00  0.00     0.071 C 
HETATM    3  O1  UNL     1      21.941   3.792  51.035  1.00  0.00    -0.349 OA
HETATM    4  C3  UNL     1      22.466   4.840  50.418  1.00  0.00     0.128 C 
HETATM    5  C4  UNL     1      21.462   5.784  49.759  1.00  0.00     0.040 C 
HETATM    6  C5  UNL     1      23.498   4.387  49.388  1.00  0.00     0.016 C 
HETATM    7  C6  UNL     1      23.945   5.523  48.501  1.00  0.00     0.013 C 
HETATM    8  C7  UNL     1      24.594   3.721  50.092  1.00  0.00     0.039 C 
HETATM    9  C8  UNL     1      25.924   3.605  50.328  1.00  0.00     0.032 C 
HETATM   10  C9  UNL     1      26.224   2.545  51.308  1.00  0.00     0.044 C 
HETATM   11  C17 UNL     1      25.370   1.790  51.928  1.00  0.00     0.012 C 
HETATM   12  C18 UNL     1      24.082   1.278  52.298  1.00  0.00     0.033 C 
HETATM   13  C19 UNL     1      22.826   0.982  52.479  1.00  0.00     0.043 C 
HETATM   14  C20 UNL     1      22.960  -0.111  53.450  1.00  0.00     0.285 C 
HETATM   15  N1  UNL     1      21.659  -0.769  53.585  1.00  0.00     0.112 N 
HETATM   16  C21 UNL     1      20.637   0.150  53.979  1.00  0.00     0.538 C 
HETATM   17  N2  UNL     1      20.568   1.337  53.200  1.00  0.00     0.123 N 
HETATM   18  C22 UNL     1      21.458   1.398  52.063  1.00  0.00     0.289 C 
HETATM   19  H24 UNL     1      21.775  -1.483  54.334  1.00  0.00     0.318 HD
HETATM   20  H27 UNL     1      20.551   2.237  53.728  1.00  0.00     0.319 HD
ENDROOT
BRANCH  10  21
HETATM   21  O2  UNL     1      27.436   2.100  51.800  1.00  0.00    -0.351 OA
BRANCH  21  22
HETATM   22  C10 UNL     1      27.662   1.794  53.149  1.00  0.00     0.213 C 
BRANCH  22  23
HETATM   23  C11 UNL     1      28.198   0.397  53.210  1.00  0.00    -0.034 A 
HETATM   24  C12 UNL     1      29.505   0.232  53.612  1.00  0.00     0.009 A 
HETATM   25  C13 UNL     1      30.092  -1.036  53.694  1.00  0.00     0.001 A 
HETATM   26  C14 UNL     1      29.294  -2.109  53.351  1.00  0.00     0.000 A 
HETATM   27  C15 UNL     1      27.972  -1.956  52.942  1.00  0.00     0.001 A 
HETATM   28  C16 UNL     1      27.416  -0.697  52.870  1.00  0.00     0.009 A 
ENDBRANCH  22  23
ENDBRANCH  21  22
ENDBRANCH  10  21
TORSDOF 3
ENDMDL
MODEL 4
REMARK VINA RESULT:      -8.7      4.562      7.768
REMARK  3 active torsions:
REMARK  status: ('A' for Active; 'I' for Inactive)
REMARK    1  A    between atoms: C9_10  and  O2_11 
REMARK    2  A    between atoms: O2_11  and  C10_12 
REMARK    3  A    between atoms: C10_12  and  C11_13 
ROOT
HETATM    1  C1  UNL     1      17.580   1.740  49.634  1.00  0.00     0.048 C 
HETATM    2  C2  UNL     1      18.519   0.941  50.178  1.00  0.00     0.071 C 
HETATM    3  O1  UNL     1      19.342   1.651  49.571  1.00  0.00    -0.349 OA
HETATM    4  C3  UNL     1      20.217   2.407  48.925  1.00  0.00     0.128 C 
HETATM    5  C4  UNL     1      19.739   2.960  47.583  1.00  0.00     0.040 C 
HETATM    6  C5  UNL     1      21.529   1.652  48.731  1.00  0.00     0.016 C 
HETATM    7  C6  UNL     1      22.465   2.379  47.797  1.00  0.00     0.013 C 
HETATM    8  C7  UNL     1      22.104   1.376  50.047  1.00  0.00     0.039 C 
HETATM    9  C8  UNL     1      23.165   1.440  50.888  1.00  0.00     0.032 C 
HETATM   10  C9  UNL     1      22.861   0.863  52.211  1.00  0.00     0.044 C 
HETATM   11  C17 UNL     1      21.732   0.358  52.602  1.00  0.00     0.012 C 
HETATM   12  C18 UNL     1      20.358  -0.045  52.502  1.00  0.00     0.033 C 
HETATM   13  C19 UNL     1      19.125  -0.321  52.184  1.00  0.00     0.043 C 
HETATM   14  C20 UNL     1      18.673  -0.941  53.436  1.00  0.00     0.285 C 
HETATM   15  N1  UNL     1      17.373  -1.571  53.195  1.00  0.00     0.112 N 
HETATM   16  C21 UNL     1      16.411  -0.633  52.706  1.00  0.00     0.538 C 
HETATM   17  N2  UNL     1      16.847   0.152  51.604  1.00  0.00     0.123 N 
HETATM   18  C22 UNL     1      18.148  -0.181  51.069  1.00  0.00     0.289 C 
HETATM   19  H24 UNL     1      17.052  -1.931  54.117  1.00  0.00     0.318 HD
HETATM   20  H27 UNL     1      16.716   1.184  51.690  1.00  0.00     0.319 HD
ENDROOT
BRANCH  10  21
HETATM   21  O2  UNL     1      23.662   0.716  53.328  1.00  0.00    -0.351 OA
BRANCH  21  22
HETATM   22  C10 UNL     1      24.125  -0.522  53.792  1.00  0.00     0.213 C 
BRANCH  22  23
HETATM   23  C11 UNL     1      25.620  -0.453  53.841  1.00  0.00    -0.034 A 
HETATM   24  C12 UNL     1      26.324  -1.123  52.864  1.00  0.00     0.009 A 
HETATM   25  C13 UNL     1      27.723  -1.118  52.833  1.00  0.00     0.001 A 
HETATM   26  C14 UNL     1      28.359  -0.408  53.831  1.00  0.00     0.000 A 
HETATM   27  C15 UNL     1      27.661   0.273  54.825  1.00  0.00     0.001 A 
HETATM   28  C16 UNL     1      26.283   0.253  54.833  1.00  0.00     0.009 A 
ENDBRANCH  22  23
ENDBRANCH  21  22
ENDBRANCH  10  21
TORSDOF 3
ENDMDL
MODEL 5
REMARK VINA RESULT:      -8.7      4.092      9.095
REMARK  3 active torsions:
REMARK  status: ('A' for Active; 'I' for Inactive)
REMARK    1  A    between atoms: C9_10  and  O2_11 
REMARK    2  A    between atoms: O2_11  and  C10_12 
REMARK    3  A    between atoms: C10_12  and  C11_13 
ROOT
HETATM    1  C1  UNL     1      24.303   3.252  50.881  1.00  0.00     0.048 C 
HETATM    2  C2  UNL     1      23.514   2.160  50.823  1.00  0.00     0.071 C 
HETATM    3  O1  UNL     1      24.038   1.840  51.907  1.00  0.00    -0.349 OA
HETATM    4  C3  UNL     1      24.596   1.499  53.058  1.00  0.00     0.128 C 
HETATM    5  C4  UNL     1      26.054   1.922  53.231  1.00  0.00     0.040 C 
HETATM    6  C5  UNL     1      24.467  -0.005  53.286  1.00  0.00     0.016 C 
HETATM    7  C6  UNL     1      25.292  -0.469  54.461  1.00  0.00     0.013 C 
HETATM    8  C7  UNL     1      23.047  -0.337  53.393  1.00  0.00     0.039 C 
HETATM    9  C8  UNL     1      22.041  -0.933  54.080  1.00  0.00     0.032 C 
HETATM   10  C9  UNL     1      20.739  -0.777  53.404  1.00  0.00     0.044 C 
HETATM   11  C17 UNL     1      20.504  -0.142  52.298  1.00  0.00     0.012 C 
HETATM   12  C18 UNL     1      20.804   0.638  51.132  1.00  0.00     0.033 C 
HETATM   13  C19 UNL     1      21.306   1.345  50.158  1.00  0.00     0.043 C 
HETATM   14  C20 UNL     1      20.096   1.572  49.359  1.00  0.00     0.285 C 
HETATM   15  N1  UNL     1      20.495   2.128  48.065  1.00  0.00     0.112 N 
HETATM   16  C21 UNL     1      21.249   3.334  48.216  1.00  0.00     0.538 C 
HETATM   17  N2  UNL     1      22.334   3.251  49.130  1.00  0.00     0.123 N 
HETATM   18  C22 UNL     1      22.587   1.943  49.691  1.00  0.00     0.289 C 
HETATM   19  H24 UNL     1      19.612   2.345  47.560  1.00  0.00     0.318 HD
HETATM   20  H27 UNL     1      22.386   4.000  49.855  1.00  0.00     0.319 HD
ENDROOT
BRANCH  10  21
HETATM   21  O2  UNL     1      19.488  -1.245  53.757  1.00  0.00    -0.351 OA
BRANCH  21  22
HETATM   22  C10 UNL     1      18.295  -0.779  53.187  1.00  0.00     0.213 C 
BRANCH  22  23
HETATM   23  C11 UNL     1      17.360  -1.943  53.085  1.00  0.00    -0.034 A 
HETATM   24  C12 UNL     1      17.738  -3.122  53.689  1.00  0.00     0.009 A 
HETATM   25  C13 UNL     1      16.929  -4.263  53.640  1.00  0.00     0.001 A 
HETATM   26  C14 UNL     1      15.736  -4.145  52.957  1.00  0.00     0.000 A 
HETATM   27  C15 UNL     1      15.341  -2.960  52.341  1.00  0.00     0.001 A 
HETATM   28  C16 UNL     1      16.155  -1.850  52.404  1.00  0.00     0.009 A 
ENDBRANCH  22  23
ENDBRANCH  21  22
ENDBRANCH  10  21
TORSDOF 3
ENDMDL
MODEL 6
REMARK VINA RESULT:      -8.6      1.800      2.365
REMARK  3 active torsions:
REMARK  status: ('A' for Active; 'I' for Inactive)
REMARK    1  A    between atoms: C9_10  and  O2_11 
REMARK    2  A    between atoms: O2_11  and  C10_12 
REMARK    3  A    between atoms: C10_12  and  C11_13 
ROOT
HETATM    1  C1  UNL     1      24.715  -1.256  55.331  1.00  0.00     0.048 C 
HETATM    2  C2  UNL     1      24.915  -0.475  54.250  1.00  0.00     0.071 C 
HETATM    3  O1  UNL     1      23.673  -0.408  54.186  1.00  0.00    -0.349 OA
HETATM    4  C3  UNL     1      22.352  -0.336  54.118  1.00  0.00     0.128 C 
HETATM    5  C4  UNL     1      21.604  -1.587  54.577  1.00  0.00     0.040 C 
HETATM    6  C5  UNL     1      21.913   0.035  52.704  1.00  0.00     0.016 C 
HETATM    7  C6  UNL     1      20.421  -0.106  52.523  1.00  0.00     0.013 C 
HETATM    8  C7  UNL     1      22.422   1.371  52.397  1.00  0.00     0.039 C 
HETATM    9  C8  UNL     1      22.185   2.635  51.966  1.00  0.00     0.032 C 
HETATM   10  C9  UNL     1      23.409   3.457  51.958  1.00  0.00     0.044 C 
HETATM   11  C17 UNL     1      24.598   3.092  52.325  1.00  0.00     0.012 C 
HETATM   12  C18 UNL     1      25.617   2.212  52.823  1.00  0.00     0.033 C 
HETATM   13  C19 UNL     1      26.359   1.250  53.293  1.00  0.00     0.043 C 
HETATM   14  C20 UNL     1      27.661   1.928  53.327  1.00  0.00     0.285 C 
HETATM   15  N1  UNL     1      28.697   0.925  53.578  1.00  0.00     0.112 N 
HETATM   16  C21 UNL     1      28.457   0.206  54.791  1.00  0.00     0.538 C 
HETATM   17  N2  UNL     1      27.145  -0.322  54.923  1.00  0.00     0.123 N 
HETATM   18  C22 UNL     1      26.279  -0.155  53.778  1.00  0.00     0.289 C 
HETATM   19  H24 UNL     1      29.591   1.450  53.670  1.00  0.00     0.318 HD
HETATM   20  H27 UNL     1      26.649  -0.112  55.817  1.00  0.00     0.319 HD
ENDROOT
BRANCH  10  21
HETATM   21  O2  UNL     1      23.600   4.771  51.575  1.00  0.00    -0.351 OA
BRANCH  21  22
HETATM   22  C10 UNL     1      24.499   5.165  50.574  1.00  0.00     0.213 C 
BRANCH  22  23
HETATM   23  C11 UNL     1      23.692   5.621  49.398  1.00  0.00    -0.034 A 
HETATM   24  C12 UNL     1      23.245   4.660  48.518  1.00  0.00     0.009 A 
HETATM   25  C13 UNL     1      22.489   4.995  47.389  1.00  0.00     0.001 A 
HETATM   26  C14 UNL     1      22.215   6.334  47.205  1.00  0.00     0.000 A 
HETATM   27  C15 UNL     1      22.660   7.317  48.086  1.00  0.00     0.001 A 
HETATM   28  C16 UNL     1      23.402   6.961  49.192  1.00  0.00     0.009 A 
ENDBRANCH  22  23
ENDBRANCH  21  22
ENDBRANCH  10  21
TORSDOF 3
ENDMDL
MODEL 7
REMARK VINA RESULT:      -8.6      3.200      7.486
REMARK  3 active torsions:
REMARK  status: ('A' for Active; 'I' for Inactive)
REMARK    1  A    between atoms: C9_10  and  O2_11 
REMARK    2  A    between atoms: O2_11  and  C10_12 
REMARK    3  A    between atoms: C10_12  and  C11_13 
ROOT
HETATM    1  C1  UNL     1      22.339   6.164  49.920  1.00  0.00     0.048 C 
HETATM    2  C2  UNL     1      22.506   4.827  49.968  1.00  0.00     0.071 C 
HETATM    3  O1  UNL     1      23.726   5.071  49.914  1.00  0.00    -0.349 OA
HETATM    4  C3  UNL     1      25.023   5.330  49.856  1.00  0.00     0.128 C 
HETATM    5  C4  UNL     1      25.409   6.561  49.037  1.00  0.00     0.040 C 
HETATM    6  C5  UNL     1      25.786   4.112  49.342  1.00  0.00     0.016 C 
HETATM    7  C6  UNL     1      27.226   4.438  49.034  1.00  0.00     0.013 C 
HETATM    8  C7  UNL     1      25.618   3.021  50.302  1.00  0.00     0.039 C 
HETATM    9  C8  UNL     1      26.178   2.069  51.089  1.00  0.00     0.032 C 
HETATM   10  C9  UNL     1      25.165   1.301  51.836  1.00  0.00     0.044 C 
HETATM   11  C17 UNL     1      23.879   1.473  51.811  1.00  0.00     0.012 C 
HETATM   12  C18 UNL     1      22.631   2.068  51.426  1.00  0.00     0.033 C 
HETATM   13  C19 UNL     1      21.638   2.758  50.941  1.00  0.00     0.043 C 
HETATM   14  C20 UNL     1      20.513   2.078  51.597  1.00  0.00     0.285 C 
HETATM   15  N1  UNL     1      19.271   2.535  50.972  1.00  0.00     0.112 N 
HETATM   16  C21 UNL     1      19.131   3.957  51.046  1.00  0.00     0.538 C 
HETATM   17  N2  UNL     1      20.264   4.693  50.606  1.00  0.00     0.123 N 
HETATM   18  C22 UNL     1      21.345   3.913  50.049  1.00  0.00     0.289 C 
HETATM   19  H24 UNL     1      18.498   2.094  51.511  1.00  0.00     0.318 HD
HETATM   20  H27 UNL     1      20.614   5.434  51.252  1.00  0.00     0.319 HD
ENDROOT
BRANCH  10  21
HETATM   21  O2  UNL     1      25.313   0.246  52.716  1.00  0.00    -0.351 OA
BRANCH  21  22
HETATM   22  C10 UNL     1      25.915   0.365  53.976  1.00  0.00     0.213 C 
BRANCH  22  23
HETATM   23  C11 UNL     1      27.359   0.002  53.820  1.00  0.00    -0.034 A 
HETATM   24  C12 UNL     1      27.654  -1.238  53.297  1.00  0.00     0.009 A 
HETATM   25  C13 UNL     1      28.975  -1.664  53.121  1.00  0.00     0.001 A 
HETATM   26  C14 UNL     1      29.964  -0.779  53.498  1.00  0.00     0.000 A 
HETATM   27  C15 UNL     1      29.682   0.476  54.029  1.00  0.00     0.001 A 
HETATM   28  C16 UNL     1      28.372   0.873  54.192  1.00  0.00     0.009 A 
ENDBRANCH  22  23
ENDBRANCH  21  22
ENDBRANCH  10  21
TORSDOF 3
ENDMDL
MODEL 8
REMARK VINA RESULT:      -8.5      2.511      7.188
REMARK  3 active torsions:
REMARK  status: ('A' for Active; 'I' for Inactive)
REMARK    1  A    between atoms: C9_10  and  O2_11 
REMARK    2  A    between atoms: O2_11  and  C10_12 
REMARK    3  A    between atoms: C10_12  and  C11_13 
ROOT
HETATM    1  C1  UNL     1      26.603   2.610  50.734  1.00  0.00     0.048 C 
HETATM    2  C2  UNL     1      25.699   2.392  51.711  1.00  0.00     0.071 C 
HETATM    3  O1  UNL     1      25.033   3.292  51.166  1.00  0.00    -0.349 OA
HETATM    4  C3  UNL     1      24.325   4.249  50.588  1.00  0.00     0.128 C 
HETATM    5  C4  UNL     1      25.140   5.362  49.931  1.00  0.00     0.040 C 
HETATM    6  C5  UNL     1      23.338   4.855  51.583  1.00  0.00     0.016 C 
HETATM    7  C6  UNL     1      22.683   6.101  51.040  1.00  0.00     0.013 C 
HETATM    8  C7  UNL     1      22.390   3.816  51.986  1.00  0.00     0.039 C 
HETATM    9  C8  UNL     1      21.105   3.414  52.145  1.00  0.00     0.032 C 
HETATM   10  C9  UNL     1      21.015   2.039  52.670  1.00  0.00     0.044 C 
HETATM   11  C17 UNL     1      22.001   1.243  52.949  1.00  0.00     0.012 C 
HETATM   12  C18 UNL     1      23.368   0.823  53.073  1.00  0.00     0.033 C 
HETATM   13  C19 UNL     1      24.661   0.665  53.097  1.00  0.00     0.043 C 
HETATM   14  C20 UNL     1      24.739  -0.699  53.635  1.00  0.00     0.285 C 
HETATM   15  N1  UNL     1      26.132  -0.973  53.994  1.00  0.00     0.112 N 
HETATM   16  C21 UNL     1      27.010  -0.807  52.878  1.00  0.00     0.538 C 
HETATM   17  N2  UNL     1      26.861   0.421  52.177  1.00  0.00     0.123 N 
HETATM   18  C22 UNL     1      25.928   1.364  52.750  1.00  0.00     0.289 C 
HETATM   19  H24 UNL     1      26.160  -1.968  54.297  1.00  0.00     0.318 HD
HETATM   20  H27 UNL     1      26.755   0.353  51.141  1.00  0.00     0.319 HD
ENDROOT
BRANCH  10  21
HETATM   21  O2  UNL     1      19.909   1.274  52.989  1.00  0.00    -0.351 OA
BRANCH  21  22
HETATM   22  C10 UNL     1      19.837  -0.110  52.784  1.00  0.00     0.213 C 
BRANCH  22  23
HETATM   23  C11 UNL     1      18.499  -0.406  52.180  1.00  0.00    -0.034 A 
HETATM   24  C12 UNL     1      18.241   0.093  50.922  1.00  0.00     0.009 A 
HETATM   25  C13 UNL     1      17.016  -0.130  50.282  1.00  0.00     0.001 A 
HETATM   26  C14 UNL     1      16.084  -0.874  50.975  1.00  0.00     0.000 A 
HETATM   27  C15 UNL     1      16.331  -1.384  52.247  1.00  0.00     0.001 A 
HETATM   28  C16 UNL     1      17.545  -1.152  52.856  1.00  0.00     0.009 A 
ENDBRANCH  22  23
ENDBRANCH  21  22
ENDBRANCH  10  21
TORSDOF 3
ENDMDL
MODEL 9
REMARK VINA RESULT:      -8.5      2.591      4.658
REMARK  3 active torsions:
REMARK  status: ('A' for Active; 'I' for Inactive)
REMARK    1  A    between atoms: C9_10  and  O2_11 
REMARK    2  A    between atoms: O2_11  and  C10_12 
REMARK    3  A    between atoms: C10_12  and  C11_13 
ROOT
HETATM    1  C1  UNL     1      21.906  -1.239  54.136  1.00  0.00     0.048 C 
HETATM    2  C2  UNL     1      22.082  -0.000  53.633  1.00  0.00     0.071 C 
HETATM    3  O1  UNL     1      23.295  -0.189  53.842  1.00  0.00    -0.349 OA
HETATM    4  C3  UNL     1      24.585  -0.390  54.064  1.00  0.00     0.128 C 
HETATM    5  C4  UNL     1      24.914  -1.251  55.283  1.00  0.00     0.040 C 
HETATM    6  C5  UNL     1      25.321   0.943  54.164  1.00  0.00     0.016 C 
HETATM    7  C6  UNL     1      26.738   0.770  54.652  1.00  0.00     0.013 C 
HETATM    8  C7  UNL     1      25.219   1.627  52.875  1.00  0.00     0.039 C 
HETATM    9  C8  UNL     1      25.830   2.254  51.840  1.00  0.00     0.032 C 
HETATM   10  C9  UNL     1      24.869   2.695  50.813  1.00  0.00     0.044 C 
HETATM   11  C17 UNL     1      23.583   2.522  50.819  1.00  0.00     0.012 C 
HETATM   12  C18 UNL     1      22.311   2.078  51.313  1.00  0.00     0.033 C 
HETATM   13  C19 UNL     1      21.287   1.584  51.948  1.00  0.00     0.043 C 
HETATM   14  C20 UNL     1      20.208   1.972  51.031  1.00  0.00     0.285 C 
HETATM   15  N1  UNL     1      18.927   1.741  51.701  1.00  0.00     0.112 N 
HETATM   16  C21 UNL     1      18.785   0.381  52.120  1.00  0.00     0.538 C 
HETATM   17  N2  UNL     1      19.885  -0.136  52.856  1.00  0.00     0.123 N 
HETATM   18  C22 UNL     1      20.934   0.808  53.169  1.00  0.00     0.289 C 
HETATM   19  H24 UNL     1      18.191   1.954  50.996  1.00  0.00     0.318 HD
HETATM   20  H27 UNL     1      20.270  -1.050  52.532  1.00  0.00     0.319 HD
ENDROOT
BRANCH  10  21
HETATM   21  O2  UNL     1      25.077   3.379  49.630  1.00  0.00    -0.351 OA
BRANCH  21  22
HETATM   22  C10 UNL     1      24.831   4.750  49.472  1.00  0.00     0.213 C 
BRANCH  22  23
HETATM   23  C11 UNL     1      26.079   5.370  48.923  1.00  0.00    -0.034 A 
HETATM   24  C12 UNL     1      27.219   4.598  48.899  1.00  0.00     0.009 A 
HETATM   25  C13 UNL     1      28.432   5.096  48.409  1.00  0.00     0.001 A 
HETATM   26  C14 UNL     1      28.424   6.398  47.952  1.00  0.00     0.000 A 
HETATM   27  C15 UNL     1      27.280   7.191  47.972  1.00  0.00     0.001 A 
HETATM   28  C16 UNL     1      26.097   6.677  48.459  1.00  0.00     0.009 A 
ENDBRANCH  22  23
ENDBRANCH  21  22
ENDBRANCH  10  21
TORSDOF 3
ENDMDL
