MODEL 1
REMARK VINA RESULT:      -7.7      0.000      0.000
REMARK  8 active torsions:
REMARK  status: ('A' for Active; 'I' for Inactive)
REMARK    1  A    between atoms: N1_1  and  C1_2 
REMARK    2  A    between atoms: C1_2  and  C2_3 
REMARK    3  A    between atoms: C2_3  and  C3_4 
REMARK    4  A    between atoms: C5_6  and  N2_7 
REMARK    5  A    between atoms: N2_7  and  C6_8 
REMARK    6  A    between atoms: C8_11  and  N4_12 
REMARK    7  A    between atoms: N4_12  and  N5_13 
REMARK    8  A    between atoms: N5_13  and  C9_14 
ROOT
HETATM    1  C6  UNL     1      22.907   1.880  51.948  1.00  0.00     0.127 C 
HETATM    2  C7  UNL     1      23.034   3.203  52.069  1.00  0.00     0.119 A 
HETATM    3  N3  UNL     1      24.277   3.925  52.007  1.00  0.00    -0.214 NA
HETATM    4  C8  UNL     1      23.674   5.054  52.187  1.00  0.00     0.188 A 
HETATM    5  S1  UNL     1      21.952   4.601  52.328  1.00  0.00    -0.029 SA
ENDROOT
BRANCH   1   6
HETATM    6  N2  UNL     1      24.082   1.106  51.742  1.00  0.00    -0.363 N 
HETATM    7  H4  UNL     1      24.421   0.929  50.782  1.00  0.00     0.165 HD
BRANCH   6   8
HETATM    8  C5  UNL     1      24.802   0.568  52.848  1.00  0.00     0.035 A 
HETATM    9  C4  UNL     1      26.095   0.896  53.104  1.00  0.00     0.061 A 
HETATM   10  C3  UNL     1      26.833   0.402  54.162  1.00  0.00     0.067 A 
HETATM   11  N6  UNL     1      26.216  -0.477  55.003  1.00  0.00    -0.260 NA
HETATM   12  C16 UNL     1      24.923  -0.836  54.791  1.00  0.00     0.119 A 
HETATM   13  C15 UNL     1      24.217  -0.310  53.708  1.00  0.00     0.048 A 
BRANCH  10  14
HETATM   14  C2  UNL     1      28.238   0.778  54.412  1.00  0.00     0.107 C 
BRANCH  14  15
HETATM   15  C1  UNL     1      28.677   1.743  53.620  1.00  0.00    -0.023 C 
BRANCH  15  16
HETATM   16  N1  UNL     1      29.036   2.880  53.141  1.00  0.00    -0.258 NA
HETATM   17  H1  UNL     1      28.484   3.755  53.347  1.00  0.00     0.197 HD
ENDBRANCH  15  16
ENDBRANCH  14  15
ENDBRANCH  10  14
ENDBRANCH   6   8
ENDBRANCH   1   6
BRANCH   4  18
HETATM   18  N4  UNL     1      24.276   6.351  52.253  1.00  0.00    -0.278 N 
HETATM   19  H6  UNL     1      24.449   6.885  53.152  1.00  0.00     0.189 HD
BRANCH  18  20
HETATM   20  N5  UNL     1      24.750   7.173  51.224  1.00  0.00    -0.299 N 
HETATM   21  H7  UNL     1      24.325   8.096  51.069  1.00  0.00     0.187 HD
BRANCH  20  22
HETATM   22  C9  UNL     1      25.759   7.082  50.224  1.00  0.00     0.048 A 
HETATM   23  C10 UNL     1      25.870   5.844  49.619  1.00  0.00     0.031 A 
HETATM   24  C11 UNL     1      26.789   5.609  48.648  1.00  0.00     0.002 A 
HETATM   25  C12 UNL     1      27.618   6.661  48.280  1.00  0.00     0.000 A 
HETATM   26  C13 UNL     1      27.512   7.898  48.881  1.00  0.00     0.002 A 
HETATM   27  C14 UNL     1      26.576   8.137  49.870  1.00  0.00     0.031 A 
ENDBRANCH  20  22
ENDBRANCH  18  20
ENDBRANCH   4  18
TORSDOF 8
ENDMDL
MODEL 2
REMARK VINA RESULT:      -7.6      1.464      2.070
REMARK  8 active torsions:
REMARK  status: ('A' for Active; 'I' for Inactive)
REMARK    1  A    between atoms: N1_1  and  C1_2 
REMARK    2  A    between atoms: C1_2  and  C2_3 
REMARK    3  A    between atoms: C2_3  and  C3_4 
REMARK    4  A    between atoms: C5_6  and  N2_7 
REMARK    5  A    between atoms: N2_7  and  C6_8 
REMARK    6  A    between atoms: C8_11  and  N4_12 
REMARK    7  A    between atoms: N4_12  and  N5_13 
REMARK    8  A    between atoms: N5_13  and  C9_14 
ROOT
HETATM    1  C6  UNL     1      23.391   2.264  51.321  1.00  0.00     0.127 C 
HETATM    2  C7  UNL     1      23.363   3.586  51.501  1.00  0.00     0.119 A 
HETATM    3  N3  UNL     1      24.523   4.435  51.586  1.00  0.00    -0.214 NA
HETATM    4  C8  UNL     1      23.787   5.486  51.747  1.00  0.00     0.188 A 
HETATM    5  S1  UNL     1      22.119   4.851  51.706  1.00  0.00    -0.029 SA
ENDROOT
BRANCH   1   6
HETATM    6  N2  UNL     1      24.657   1.626  51.201  1.00  0.00    -0.363 N 
HETATM    7  H4  UNL     1      25.240   1.791  50.364  1.00  0.00     0.165 HD
BRANCH   6   8
HETATM    8  C5  UNL     1      25.133   0.758  52.226  1.00  0.00     0.035 A 
HETATM    9  C4  UNL     1      26.419   0.322  52.273  1.00  0.00     0.061 A 
HETATM   10  C3  UNL     1      26.926  -0.518  53.244  1.00  0.00     0.067 A 
HETATM   11  N6  UNL     1      26.073  -0.938  54.221  1.00  0.00    -0.260 NA
HETATM   12  C16 UNL     1      24.776  -0.530  54.220  1.00  0.00     0.119 A 
HETATM   13  C15 UNL     1      24.309   0.320  53.217  1.00  0.00     0.048 A 
BRANCH  10  14
HETATM   14  C2  UNL     1      28.330  -0.973  53.265  1.00  0.00     0.107 C 
BRANCH  14  15
HETATM   15  C1  UNL     1      28.472  -2.265  53.020  1.00  0.00    -0.023 C 
BRANCH  15  16
HETATM   16  N1  UNL     1      28.668  -3.530  53.136  1.00  0.00    -0.258 NA
HETATM   17  H1  UNL     1      27.860  -4.210  53.117  1.00  0.00     0.197 HD
ENDBRANCH  15  16
ENDBRANCH  14  15
ENDBRANCH  10  14
ENDBRANCH   6   8
ENDBRANCH   1   6
BRANCH   4  18
HETATM   18  N4  UNL     1      24.238   6.834  51.918  1.00  0.00    -0.278 N 
HETATM   19  H6  UNL     1      24.143   7.387  52.818  1.00  0.00     0.189 HD
BRANCH  18  20
HETATM   20  N5  UNL     1      24.867   7.691  51.008  1.00  0.00    -0.299 N 
HETATM   21  H7  UNL     1      24.546   8.662  50.913  1.00  0.00     0.187 HD
BRANCH  20  22
HETATM   22  C9  UNL     1      25.940   7.586  50.078  1.00  0.00     0.048 A 
HETATM   23  C10 UNL     1      26.821   8.650  50.081  1.00  0.00     0.031 A 
HETATM   24  C11 UNL     1      27.892   8.687  49.248  1.00  0.00     0.002 A 
HETATM   25  C12 UNL     1      28.073   7.612  48.386  1.00  0.00     0.000 A 
HETATM   26  C13 UNL     1      27.196   6.548  48.379  1.00  0.00     0.002 A 
HETATM   27  C14 UNL     1      26.105   6.510  49.227  1.00  0.00     0.031 A 
ENDBRANCH  20  22
ENDBRANCH  18  20
ENDBRANCH   4  18
TORSDOF 8
ENDMDL
MODEL 3
REMARK VINA RESULT:      -7.5      2.509      7.266
REMARK  8 active torsions:
REMARK  status: ('A' for Active; 'I' for Inactive)
REMARK    1  A    between atoms: N1_1  and  C1_2 
REMARK    2  A    between atoms: C1_2  and  C2_3 
REMARK    3  A    between atoms: C2_3  and  C3_4 
REMARK    4  A    between atoms: C5_6  and  N2_7 
REMARK    5  A    between atoms: N2_7  and  C6_8 
REMARK    6  A    between atoms: C8_11  and  N4_12 
REMARK    7  A    between atoms: N4_12  and  N5_13 
REMARK    8  A    between atoms: N5_13  and  C9_14 
ROOT
HETATM    1  C6  UNL     1      24.763   3.838  50.087  1.00  0.00     0.127 C 
HETATM    2  C7  UNL     1      24.868   3.330  51.317  1.00  0.00     0.119 A 
HETATM    3  N3  UNL     1      26.048   2.712  51.859  1.00  0.00    -0.214 NA
HETATM    4  C8  UNL     1      25.457   2.486  52.987  1.00  0.00     0.188 A 
HETATM    5  S1  UNL     1      23.815   3.147  52.749  1.00  0.00    -0.029 SA
ENDROOT
BRANCH   1   6
HETATM    6  N2  UNL     1      25.897   3.771  49.231  1.00  0.00    -0.363 N 
HETATM    7  H4  UNL     1      26.184   2.865  48.825  1.00  0.00     0.165 HD
BRANCH   6   8
HETATM    8  C5  UNL     1      26.647   4.943  48.924  1.00  0.00     0.035 A 
HETATM    9  C4  UNL     1      27.967   4.902  48.605  1.00  0.00     0.061 A 
HETATM   10  C3  UNL     1      28.734   6.009  48.301  1.00  0.00     0.067 A 
HETATM   11  N6  UNL     1      28.120   7.226  48.325  1.00  0.00    -0.260 NA
HETATM   12  C16 UNL     1      26.800   7.322  48.638  1.00  0.00     0.119 A 
HETATM   13  C15 UNL     1      26.065   6.175  48.938  1.00  0.00     0.048 A 
BRANCH  10  14
HETATM   14  C2  UNL     1      30.167   5.929  47.959  1.00  0.00     0.107 C 
BRANCH  14  15
HETATM   15  C1  UNL     1      30.964   5.920  49.014  1.00  0.00    -0.023 C 
BRANCH  15  16
HETATM   16  N1  UNL     1      31.636   5.569  50.052  1.00  0.00    -0.258 NA
HETATM   17  H1  UNL     1      31.236   4.892  50.755  1.00  0.00     0.197 HD
ENDBRANCH  15  16
ENDBRANCH  14  15
ENDBRANCH  10  14
ENDBRANCH   6   8
ENDBRANCH   1   6
BRANCH   4  18
HETATM   18  N4  UNL     1      26.017   1.849  54.140  1.00  0.00    -0.278 N 
HETATM   19  H6  UNL     1      25.502   1.709  55.056  1.00  0.00     0.189 HD
BRANCH  18  20
HETATM   20  N5  UNL     1      27.288   1.296  54.330  1.00  0.00    -0.299 N 
HETATM   21  H7  UNL     1      27.989   1.800  54.888  1.00  0.00     0.187 HD
BRANCH  20  22
HETATM   22  C9  UNL     1      27.958   0.107  53.923  1.00  0.00     0.048 A 
HETATM   23  C10 UNL     1      27.159  -0.821  53.281  1.00  0.00     0.031 A 
HETATM   24  C11 UNL     1      27.660  -2.002  52.836  1.00  0.00     0.002 A 
HETATM   25  C12 UNL     1      29.012  -2.247  53.050  1.00  0.00     0.000 A 
HETATM   26  C13 UNL     1      29.812  -1.325  53.690  1.00  0.00     0.002 A 
HETATM   27  C14 UNL     1      29.302  -0.123  54.143  1.00  0.00     0.031 A 
ENDBRANCH  20  22
ENDBRANCH  18  20
ENDBRANCH   4  18
TORSDOF 8
ENDMDL
MODEL 4
REMARK VINA RESULT:      -7.4      3.798      7.311
REMARK  8 active torsions:
REMARK  status: ('A' for Active; 'I' for Inactive)
REMARK    1  A    between atoms: N1_1  and  C1_2 
REMARK    2  A    between atoms: C1_2  and  C2_3 
REMARK    3  A    between atoms: C2_3  and  C3_4 
REMARK    4  A    between atoms: C5_6  and  N2_7 
REMARK    5  A    between atoms: N2_7  and  C6_8 
REMARK    6  A    between atoms: C8_11  and  N4_12 
REMARK    7  A    between atoms: N4_12  and  N5_13 
REMARK    8  A    between atoms: N5_13  and  C9_14 
ROOT
HETATM    1  C6  UNL     1      22.816   2.300  51.654  1.00  0.00     0.127 C 
HETATM    2  C7  UNL     1      24.094   2.376  52.034  1.00  0.00     0.119 A 
HETATM    3  N3  UNL     1      24.549   2.446  53.398  1.00  0.00    -0.214 NA
HETATM    4  C8  UNL     1      25.785   2.494  53.022  1.00  0.00     0.188 A 
HETATM    5  S1  UNL     1      25.692   2.430  51.240  1.00  0.00    -0.029 SA
ENDROOT
BRANCH   1   6
HETATM    6  N2  UNL     1      21.813   2.284  52.662  1.00  0.00    -0.363 N 
HETATM    7  H4  UNL     1      21.519   3.167  53.111  1.00  0.00     0.165 HD
BRANCH   6   8
HETATM    8  C5  UNL     1      21.204   1.060  53.063  1.00  0.00     0.035 A 
HETATM    9  C4  UNL     1      19.949   0.709  52.680  1.00  0.00     0.061 A 
HETATM   10  C3  UNL     1      19.319  -0.464  53.042  1.00  0.00     0.067 A 
HETATM   11  N6  UNL     1      20.008  -1.328  53.842  1.00  0.00    -0.260 NA
HETATM   12  C16 UNL     1      21.267  -1.025  54.253  1.00  0.00     0.119 A 
HETATM   13  C15 UNL     1      21.864   0.174  53.861  1.00  0.00     0.048 A 
BRANCH  10  14
HETATM   14  C2  UNL     1      17.952  -0.815  52.608  1.00  0.00     0.107 C 
BRANCH  14  15
HETATM   15  C1  UNL     1      17.508  -1.950  53.120  1.00  0.00    -0.023 C 
BRANCH  15  16
HETATM   16  N1  UNL     1      17.347  -2.998  53.847  1.00  0.00    -0.258 NA
HETATM   17  H1  UNL     1      16.383  -3.312  54.142  1.00  0.00     0.197 HD
ENDBRANCH  15  16
ENDBRANCH  14  15
ENDBRANCH  10  14
ENDBRANCH   6   8
ENDBRANCH   1   6
BRANCH   4  18
HETATM   18  N4  UNL     1      26.938   2.581  53.865  1.00  0.00    -0.278 N 
HETATM   19  H6  UNL     1      27.278   3.474  54.326  1.00  0.00     0.189 HD
BRANCH  18  20
HETATM   20  N5  UNL     1      27.837   1.583  54.260  1.00  0.00    -0.299 N 
HETATM   21  H7  UNL     1      28.470   1.748  55.053  1.00  0.00     0.187 HD
BRANCH  20  22
HETATM   22  C9  UNL     1      28.157   0.266  53.826  1.00  0.00     0.048 A 
HETATM   23  C10 UNL     1      29.487  -0.086  53.963  1.00  0.00     0.031 A 
HETATM   24  C11 UNL     1      29.939  -1.311  53.592  1.00  0.00     0.002 A 
HETATM   25  C12 UNL     1      29.014  -2.205  53.066  1.00  0.00     0.000 A 
HETATM   26  C13 UNL     1      27.686  -1.858  52.927  1.00  0.00     0.002 A 
HETATM   27  C14 UNL     1      27.226  -0.611  53.305  1.00  0.00     0.031 A 
ENDBRANCH  20  22
ENDBRANCH  18  20
ENDBRANCH   4  18
TORSDOF 8
ENDMDL
MODEL 5
REMARK VINA RESULT:      -7.3      3.031      5.953
REMARK  8 active torsions:
REMARK  status: ('A' for Active; 'I' for Inactive)
REMARK    1  A    between atoms: N1_1  and  C1_2 
REMARK    2  A    between atoms: C1_2  and  C2_3 
REMARK    3  A    between atoms: C2_3  and  C3_4 
REMARK    4  A    between atoms: C5_6  and  N2_7 
REMARK    5  A    between atoms: N2_7  and  C6_8 
REMARK    6  A    between atoms: C8_11  and  N4_12 
REMARK    7  A    between atoms: N4_12  and  N5_13 
REMARK    8  A    between atoms: N5_13  and  C9_14 
ROOT
HETATM    1  C6  UNL     1      25.585   2.999  50.921  1.00  0.00     0.127 C 
HETATM    2  C7  UNL     1      24.308   3.225  50.605  1.00  0.00     0.119 A 
HETATM    3  N3  UNL     1      23.222   3.289  51.547  1.00  0.00    -0.214 NA
HETATM    4  C8  UNL     1      22.368   3.517  50.603  1.00  0.00     0.188 A 
HETATM    5  S1  UNL     1      23.362   3.524  49.120  1.00  0.00    -0.029 SA
ENDROOT
BRANCH   1   6
HETATM    6  N2  UNL     1      25.918   2.805  52.290  1.00  0.00    -0.363 N 
HETATM    7  H4  UNL     1      26.014   3.620  52.918  1.00  0.00     0.165 HD
BRANCH   6   8
HETATM    8  C5  UNL     1      26.121   1.494  52.810  1.00  0.00     0.035 A 
HETATM    9  C4  UNL     1      27.349   0.913  52.863  1.00  0.00     0.061 A 
HETATM   10  C3  UNL     1      27.595  -0.352  53.357  1.00  0.00     0.067 A 
HETATM   11  N6  UNL     1      26.529  -1.065  53.822  1.00  0.00    -0.260 NA
HETATM   12  C16 UNL     1      25.281  -0.529  53.792  1.00  0.00     0.119 A 
HETATM   13  C15 UNL     1      25.080   0.755  53.283  1.00  0.00     0.048 A 
BRANCH  10  14
HETATM   14  C2  UNL     1      28.942  -0.954  53.400  1.00  0.00     0.107 C 
BRANCH  14  15
HETATM   15  C1  UNL     1      28.950  -2.253  53.151  1.00  0.00    -0.023 C 
BRANCH  15  16
HETATM   16  N1  UNL     1      28.683  -3.510  53.140  1.00  0.00    -0.258 NA
HETATM   17  H1  UNL     1      27.957  -3.906  52.484  1.00  0.00     0.197 HD
ENDBRANCH  15  16
ENDBRANCH  14  15
ENDBRANCH  10  14
ENDBRANCH   6   8
ENDBRANCH   1   6
BRANCH   4  18
HETATM   18  N4  UNL     1      20.958   3.715  50.747  1.00  0.00    -0.278 N 
HETATM   19  H6  UNL     1      20.374   4.342  50.123  1.00  0.00     0.189 HD
BRANCH  18  20
HETATM   20  N5  UNL     1      20.067   3.169  51.678  1.00  0.00    -0.299 N 
HETATM   21  H7  UNL     1      19.459   3.787  52.230  1.00  0.00     0.187 HD
BRANCH  20  22
HETATM   22  C9  UNL     1      19.730   1.860  52.126  1.00  0.00     0.048 A 
HETATM   23  C10 UNL     1      20.544   1.357  53.123  1.00  0.00     0.031 A 
HETATM   24  C11 UNL     1      20.343   0.121  53.648  1.00  0.00     0.002 A 
HETATM   25  C12 UNL     1      19.284  -0.625  53.146  1.00  0.00     0.000 A 
HETATM   26  C13 UNL     1      18.469  -0.128  52.151  1.00  0.00     0.002 A 
HETATM   27  C14 UNL     1      18.673   1.130  51.616  1.00  0.00     0.031 A 
ENDBRANCH  20  22
ENDBRANCH  18  20
ENDBRANCH   4  18
TORSDOF 8
ENDMDL
MODEL 6
REMARK VINA RESULT:      -7.3      1.894      2.855
REMARK  8 active torsions:
REMARK  status: ('A' for Active; 'I' for Inactive)
REMARK    1  A    between atoms: N1_1  and  C1_2 
REMARK    2  A    between atoms: C1_2  and  C2_3 
REMARK    3  A    between atoms: C2_3  and  C3_4 
REMARK    4  A    between atoms: C5_6  and  N2_7 
REMARK    5  A    between atoms: N2_7  and  C6_8 
REMARK    6  A    between atoms: C8_11  and  N4_12 
REMARK    7  A    between atoms: N4_12  and  N5_13 
REMARK    8  A    between atoms: N5_13  and  C9_14 
ROOT
HETATM    1  C6  UNL     1      23.888   2.501  52.946  1.00  0.00     0.127 C 
HETATM    2  C7  UNL     1      23.523   3.286  51.930  1.00  0.00     0.119 A 
HETATM    3  N3  UNL     1      24.302   4.375  51.403  1.00  0.00    -0.214 NA
HETATM    4  C8  UNL     1      23.398   4.643  50.519  1.00  0.00     0.188 A 
HETATM    5  S1  UNL     1      22.125   3.429  50.828  1.00  0.00    -0.029 SA
ENDROOT
BRANCH   1   6
HETATM    6  N2  UNL     1      25.142   2.747  53.571  1.00  0.00    -0.363 N 
HETATM    7  H4  UNL     1      25.271   3.590  54.154  1.00  0.00     0.165 HD
BRANCH   6   8
HETATM    8  C5  UNL     1      26.229   1.841  53.401  1.00  0.00     0.035 A 
HETATM    9  C4  UNL     1      26.052   0.558  52.993  1.00  0.00     0.061 A 
HETATM   10  C3  UNL     1      27.072  -0.355  52.814  1.00  0.00     0.067 A 
HETATM   11  N6  UNL     1      28.345   0.066  53.066  1.00  0.00    -0.260 NA
HETATM   12  C16 UNL     1      28.576   1.341  53.475  1.00  0.00     0.119 A 
HETATM   13  C15 UNL     1      27.512   2.229  53.642  1.00  0.00     0.048 A 
BRANCH  10  14
HETATM   14  C2  UNL     1      26.845  -1.744  52.371  1.00  0.00     0.107 C 
BRANCH  14  15
HETATM   15  C1  UNL     1      27.669  -2.619  52.924  1.00  0.00    -0.023 C 
BRANCH  15  16
HETATM   16  N1  UNL     1      28.710  -3.290  53.265  1.00  0.00    -0.258 NA
HETATM   17  H1  UNL     1      28.764  -4.331  53.098  1.00  0.00     0.197 HD
ENDBRANCH  15  16
ENDBRANCH  14  15
ENDBRANCH  10  14
ENDBRANCH   6   8
ENDBRANCH   1   6
BRANCH   4  18
HETATM   18  N4  UNL     1      23.438   5.681  49.534  1.00  0.00    -0.278 N 
HETATM   19  H6  UNL     1      22.593   6.029  48.996  1.00  0.00     0.189 HD
BRANCH  18  20
HETATM   20  N5  UNL     1      24.521   6.436  49.071  1.00  0.00    -0.299 N 
HETATM   21  H7  UNL     1      24.397   7.434  48.859  1.00  0.00     0.187 HD
BRANCH  20  22
HETATM   22  C9  UNL     1      25.892   6.186  48.779  1.00  0.00     0.048 A 
HETATM   23  C10 UNL     1      26.602   7.283  48.329  1.00  0.00     0.031 A 
HETATM   24  C11 UNL     1      27.919   7.195  48.011  1.00  0.00     0.002 A 
HETATM   25  C12 UNL     1      28.532   5.956  48.154  1.00  0.00     0.000 A 
HETATM   26  C13 UNL     1      27.828   4.858  48.602  1.00  0.00     0.002 A 
HETATM   27  C14 UNL     1      26.487   4.948  48.926  1.00  0.00     0.031 A 
ENDBRANCH  20  22
ENDBRANCH  18  20
ENDBRANCH   4  18
TORSDOF 8
ENDMDL
MODEL 7
REMARK VINA RESULT:      -7.2      2.394      7.771
REMARK  8 active torsions:
REMARK  status: ('A' for Active; 'I' for Inactive)
REMARK    1  A    between atoms: N1_1  and  C1_2 
REMARK    2  A    between atoms: C1_2  and  C2_3 
REMARK    3  A    between atoms: C2_3  and  C3_4 
REMARK    4  A    between atoms: C5_6  and  N2_7 
REMARK    5  A    between atoms: N2_7  and  C6_8 
REMARK    6  A    between atoms: C8_11  and  N4_12 
REMARK    7  A    between atoms: N4_12  and  N5_13 
REMARK    8  A    between atoms: N5_13  and  C9_14 
ROOT
HETATM    1  C6  UNL     1      25.724   4.632  49.751  1.00  0.00     0.127 C 
HETATM    2  C7  UNL     1      25.325   3.681  50.600  1.00  0.00     0.119 A 
HETATM    3  N3  UNL     1      25.953   2.396  50.757  1.00  0.00    -0.214 NA
HETATM    4  C8  UNL     1      25.100   2.050  51.666  1.00  0.00     0.188 A 
HETATM    5  S1  UNL     1      24.030   3.472  51.811  1.00  0.00    -0.029 SA
ENDROOT
BRANCH   1   6
HETATM    6  N2  UNL     1      26.856   4.371  48.930  1.00  0.00    -0.363 N 
HETATM    7  H4  UNL     1      27.021   3.417  48.569  1.00  0.00     0.165 HD
BRANCH   6   8
HETATM    8  C5  UNL     1      27.769   5.413  48.599  1.00  0.00     0.035 A 
HETATM    9  C4  UNL     1      27.453   6.728  48.728  1.00  0.00     0.061 A 
HETATM   10  C3  UNL     1      28.304   7.771  48.420  1.00  0.00     0.067 A 
HETATM   11  N6  UNL     1      29.546   7.454  47.953  1.00  0.00    -0.260 NA
HETATM   12  C16 UNL     1      29.911   6.153  47.807  1.00  0.00     0.119 A 
HETATM   13  C15 UNL     1      29.017   5.132  48.131  1.00  0.00     0.048 A 
BRANCH  10  14
HETATM   14  C2  UNL     1      27.928   9.190  48.571  1.00  0.00     0.107 C 
BRANCH  14  15
HETATM   15  C1  UNL     1      27.849   9.586  49.830  1.00  0.00    -0.023 C 
BRANCH  15  16
HETATM   16  N1  UNL     1      27.609   9.654  51.091  1.00  0.00    -0.258 NA
HETATM   17  H1  UNL     1      27.166   8.845  51.604  1.00  0.00     0.197 HD
ENDBRANCH  15  16
ENDBRANCH  14  15
ENDBRANCH  10  14
ENDBRANCH   6   8
ENDBRANCH   1   6
BRANCH   4  18
HETATM   18  N4  UNL     1      25.053   0.807  52.374  1.00  0.00    -0.278 N 
HETATM   19  H6  UNL     1      24.304   0.068  52.238  1.00  0.00     0.189 HD
BRANCH  18  20
HETATM   20  N5  UNL     1      25.920   0.296  53.347  1.00  0.00    -0.299 N 
HETATM   21  H7  UNL     1      25.574   0.119  54.299  1.00  0.00     0.187 HD
BRANCH  20  22
HETATM   22  C9  UNL     1      27.290  -0.087  53.398  1.00  0.00     0.048 A 
HETATM   23  C10 UNL     1      28.163   0.919  53.769  1.00  0.00     0.031 A 
HETATM   24  C11 UNL     1      29.499   0.700  53.860  1.00  0.00     0.002 A 
HETATM   25  C12 UNL     1      29.963  -0.576  53.566  1.00  0.00     0.000 A 
HETATM   26  C13 UNL     1      29.096  -1.583  53.195  1.00  0.00     0.002 A 
HETATM   27  C14 UNL     1      27.735  -1.360  53.102  1.00  0.00     0.031 A 
ENDBRANCH  20  22
ENDBRANCH  18  20
ENDBRANCH   4  18
TORSDOF 8
ENDMDL
MODEL 8
REMARK VINA RESULT:      -7.2      4.456      5.552
REMARK  8 active torsions:
REMARK  status: ('A' for Active; 'I' for Inactive)
REMARK    1  A    between atoms: N1_1  and  C1_2 
REMARK    2  A    between atoms: C1_2  and  C2_3 
REMARK    3  A    between atoms: C2_3  and  C3_4 
REMARK    4  A    between atoms: C5_6  and  N2_7 
REMARK    5  A    between atoms: N2_7  and  C6_8 
REMARK    6  A    between atoms: C8_11  and  N4_12 
REMARK    7  A    between atoms: N4_12  and  N5_13 
REMARK    8  A    between atoms: N5_13  and  C9_14 
ROOT
HETATM    1  C6  UNL     1      26.007   4.686  49.287  1.00  0.00     0.127 C 
HETATM    2  C7  UNL     1      27.058   5.342  48.792  1.00  0.00     0.119 A 
HETATM    3  N3  UNL     1      28.365   4.775  48.583  1.00  0.00    -0.214 NA
HETATM    4  C8  UNL     1      28.818   5.895  48.123  1.00  0.00     0.188 A 
HETATM    5  S1  UNL     1      27.411   6.992  48.206  1.00  0.00    -0.029 SA
ENDROOT
BRANCH   1   6
HETATM    6  N2  UNL     1      26.171   3.318  49.642  1.00  0.00    -0.363 N 
HETATM    7  H4  UNL     1      26.462   2.631  48.926  1.00  0.00     0.165 HD
BRANCH   6   8
HETATM    8  C5  UNL     1      25.939   2.880  50.977  1.00  0.00     0.035 A 
HETATM    9  C4  UNL     1      26.861   2.176  51.685  1.00  0.00     0.061 A 
HETATM   10  C3  UNL     1      26.681   1.731  52.979  1.00  0.00     0.067 A 
HETATM   11  N6  UNL     1      25.494   2.020  53.586  1.00  0.00    -0.260 NA
HETATM   12  C16 UNL     1      24.539   2.722  52.921  1.00  0.00     0.119 A 
HETATM   13  C15 UNL     1      24.766   3.152  51.613  1.00  0.00     0.048 A 
BRANCH  10  14
HETATM   14  C2  UNL     1      27.704   0.967  53.719  1.00  0.00     0.107 C 
BRANCH  14  15
HETATM   15  C1  UNL     1      28.796   1.665  53.988  1.00  0.00    -0.023 C 
BRANCH  15  16
HETATM   16  N1  UNL     1      29.704   2.360  54.573  1.00  0.00    -0.258 NA
HETATM   17  H1  UNL     1      29.458   3.243  55.099  1.00  0.00     0.197 HD
ENDBRANCH  15  16
ENDBRANCH  14  15
ENDBRANCH  10  14
ENDBRANCH   6   8
ENDBRANCH   1   6
BRANCH   4  18
HETATM   18  N4  UNL     1      30.147   6.162  47.663  1.00  0.00    -0.278 N 
HETATM   19  H6  UNL     1      30.378   6.686  46.771  1.00  0.00     0.189 HD
BRANCH  18  20
HETATM   20  N5  UNL     1      31.379   5.821  48.234  1.00  0.00    -0.299 N 
HETATM   21  H7  UNL     1      31.679   6.267  49.110  1.00  0.00     0.187 HD
BRANCH  20  22
HETATM   22  C9  UNL     1      32.448   4.939  47.908  1.00  0.00     0.048 A 
HETATM   23  C10 UNL     1      32.087   3.841  47.150  1.00  0.00     0.031 A 
HETATM   24  C11 UNL     1      33.001   2.914  46.764  1.00  0.00     0.002 A 
HETATM   25  C12 UNL     1      34.319   3.109  47.159  1.00  0.00     0.000 A 
HETATM   26  C13 UNL     1      34.683   4.202  47.916  1.00  0.00     0.002 A 
HETATM   27  C14 UNL     1      33.753   5.146  48.309  1.00  0.00     0.031 A 
ENDBRANCH  20  22
ENDBRANCH  18  20
ENDBRANCH   4  18
TORSDOF 8
ENDMDL
MODEL 9
REMARK VINA RESULT:      -7.1      2.222      2.990
REMARK  8 active torsions:
REMARK  status: ('A' for Active; 'I' for Inactive)
REMARK    1  A    between atoms: N1_1  and  C1_2 
REMARK    2  A    between atoms: C1_2  and  C2_3 
REMARK    3  A    between atoms: C2_3  and  C3_4 
REMARK    4  A    between atoms: C5_6  and  N2_7 
REMARK    5  A    between atoms: N2_7  and  C6_8 
REMARK    6  A    between atoms: C8_11  and  N4_12 
REMARK    7  A    between atoms: N4_12  and  N5_13 
REMARK    8  A    between atoms: N5_13  and  C9_14 
ROOT
HETATM    1  C6  UNL     1      24.360   2.729  51.273  1.00  0.00     0.127 C 
HETATM    2  C7  UNL     1      24.380   3.704  50.362  1.00  0.00     0.119 A 
HETATM    3  N3  UNL     1      25.435   4.671  50.207  1.00  0.00    -0.214 NA
HETATM    4  C8  UNL     1      24.820   5.240  49.223  1.00  0.00     0.188 A 
HETATM    5  S1  UNL     1      23.321   4.285  49.047  1.00  0.00    -0.029 SA
ENDROOT
BRANCH   1   6
HETATM    6  N2  UNL     1      25.459   2.620  52.169  1.00  0.00    -0.363 N 
HETATM    7  H4  UNL     1      26.025   3.455  52.394  1.00  0.00     0.165 HD
BRANCH   6   8
HETATM    8  C5  UNL     1      25.791   1.369  52.765  1.00  0.00     0.035 A 
HETATM    9  C4  UNL     1      27.048   0.854  52.727  1.00  0.00     0.061 A 
HETATM   10  C3  UNL     1      27.417  -0.352  53.289  1.00  0.00     0.067 A 
HETATM   11  N6  UNL     1      26.449  -1.073  53.924  1.00  0.00    -0.260 NA
HETATM   12  C16 UNL     1      25.176  -0.602  53.990  1.00  0.00     0.119 A 
HETATM   13  C15 UNL     1      24.850   0.623  53.407  1.00  0.00     0.048 A 
BRANCH  10  14
HETATM   14  C2  UNL     1      28.793  -0.883  53.228  1.00  0.00     0.107 C 
BRANCH  14  15
HETATM   15  C1  UNL     1      28.847  -2.197  53.090  1.00  0.00    -0.023 C 
BRANCH  15  16
HETATM   16  N1  UNL     1      28.660  -3.462  53.220  1.00  0.00    -0.258 NA
HETATM   17  H1  UNL     1      29.077  -4.147  52.533  1.00  0.00     0.197 HD
ENDBRANCH  15  16
ENDBRANCH  14  15
ENDBRANCH  10  14
ENDBRANCH   6   8
ENDBRANCH   1   6
BRANCH   4  18
HETATM   18  N4  UNL     1      25.264   6.373  48.470  1.00  0.00    -0.278 N 
HETATM   19  H6  UNL     1      24.699   6.843  47.705  1.00  0.00     0.189 HD
BRANCH  18  20
HETATM   20  N5  UNL     1      26.465   7.087  48.549  1.00  0.00    -0.299 N 
HETATM   21  H7  UNL     1      26.460   8.067  48.858  1.00  0.00     0.187 HD
BRANCH  20  22
HETATM   22  C9  UNL     1      27.838   6.810  48.294  1.00  0.00     0.048 A 
HETATM   23  C10 UNL     1      28.616   7.920  48.019  1.00  0.00     0.031 A 
HETATM   24  C11 UNL     1      29.943   7.809  47.757  1.00  0.00     0.002 A 
HETATM   25  C12 UNL     1      30.497   6.535  47.774  1.00  0.00     0.000 A 
HETATM   26  C13 UNL     1      29.725   5.425  48.046  1.00  0.00     0.002 A 
HETATM   27  C14 UNL     1      28.374   5.537  48.314  1.00  0.00     0.031 A 
ENDBRANCH  20  22
ENDBRANCH  18  20
ENDBRANCH   4  18
TORSDOF 8
ENDMDL
