MODEL 1
REMARK VINA RESULT:      -7.8      0.000      0.000
REMARK  2 active torsions:
REMARK  status: ('A' for Active; 'I' for Inactive)
REMARK    1  A    between atoms: C6_8  and  N2_9 
REMARK    2  A    between atoms: N2_9  and  C7_10 
ROOT
HETATM    1  C1  UNL     1      29.183  -0.778  54.059  1.00  0.00     0.033 C 
HETATM    2  C2  UNL     1      28.287  -0.112  53.047  1.00  0.00     0.109 C 
HETATM    3  S1  UNL     1      26.852  -1.144  52.722  1.00  0.00    -0.141 SA
HETATM    4  C3  UNL     1      25.301  -0.361  53.231  1.00  0.00     0.123 C 
HETATM    5  C4  UNL     1      24.938  -0.760  54.638  1.00  0.00     0.141 C 
HETATM    6  N1  UNL     1      23.612  -1.365  54.743  1.00  0.00    -0.394 N 
HETATM    7  C5  UNL     1      22.301  -0.833  54.605  1.00  0.00     0.134 C 
HETATM    8  C6  UNL     1      21.566   0.014  53.864  1.00  0.00     0.144 C 
HETATM    9  N3  UNL     1      22.249   0.674  52.820  1.00  0.00    -0.223 NA
HETATM   10  C13 UNL     1      21.901   0.726  51.593  1.00  0.00     0.237 C 
HETATM   11  N4  UNL     1      22.781   1.463  50.760  1.00  0.00    -0.230 NA
HETATM   12  C14 UNL     1      23.878   2.003  51.116  1.00  0.00     0.259 C 
HETATM   13  O1  UNL     1      24.096   1.768  52.458  1.00  0.00    -0.307 OA
HETATM   14  C15 UNL     1      25.200   1.065  52.940  1.00  0.00     0.076 C 
HETATM   15  C16 UNL     1      26.167   1.957  53.087  1.00  0.00     0.080 C 
HETATM   16  S2  UNL     1      27.801   1.507  53.691  1.00  0.00    -0.124 SA
HETATM   17  H8  UNL     1      23.582  -2.412  54.956  1.00  0.00     0.159 HD
ENDROOT
BRANCH   8  18
HETATM   18  N2  UNL     1      20.187   0.277  54.077  1.00  0.00    -0.340 N 
HETATM   19  H10 UNL     1      19.874   1.052  54.702  1.00  0.00     0.167 HD
BRANCH  18  20
HETATM   20  C7  UNL     1      19.153  -0.477  53.471  1.00  0.00     0.035 A 
HETATM   21  C8  UNL     1      18.573   0.125  52.371  1.00  0.00     0.029 A 
HETATM   22  C9  UNL     1      17.553  -0.477  51.665  1.00  0.00     0.004 A 
HETATM   23  C10 UNL     1      17.064  -1.706  52.020  1.00  0.00     0.019 A 
HETATM   24  C11 UNL     1      17.645  -2.314  53.125  1.00  0.00     0.013 A 
HETATM   25 BR1  UNL     1      17.040  -4.025  53.704  1.00  0.00    -0.051 Br
HETATM   26  C12 UNL     1      18.668  -1.698  53.825  1.00  0.00     0.048 A 
ENDBRANCH  18  20
ENDBRANCH   8  18
TORSDOF 2
ENDMDL
MODEL 2
REMARK VINA RESULT:      -7.7      3.992      7.891
REMARK  2 active torsions:
REMARK  status: ('A' for Active; 'I' for Inactive)
REMARK    1  A    between atoms: C6_8  and  N2_9 
REMARK    2  A    between atoms: N2_9  and  C7_10 
ROOT
HETATM    1  C1  UNL     1      19.348   3.271  47.889  1.00  0.00     0.033 C 
HETATM    2  C2  UNL     1      19.423   2.288  49.029  1.00  0.00     0.109 C 
HETATM    3  S1  UNL     1      21.026   1.473  49.033  1.00  0.00    -0.141 SA
HETATM    4  C3  UNL     1      21.994   1.847  50.517  1.00  0.00     0.123 C 
HETATM    5  C4  UNL     1      22.893   3.033  50.283  1.00  0.00     0.141 C 
HETATM    6  N1  UNL     1      24.304   2.747  50.538  1.00  0.00    -0.394 N 
HETATM    7  C5  UNL     1      25.030   2.491  51.733  1.00  0.00     0.134 C 
HETATM    8  C6  UNL     1      24.957   1.838  52.906  1.00  0.00     0.144 C 
HETATM    9  N3  UNL     1      23.766   1.119  53.140  1.00  0.00    -0.223 NA
HETATM   10  C13 UNL     1      23.669  -0.107  53.484  1.00  0.00     0.237 C 
HETATM   11  N4  UNL     1      22.339  -0.570  53.650  1.00  0.00    -0.230 NA
HETATM   12  C14 UNL     1      21.277   0.098  53.435  1.00  0.00     0.259 C 
HETATM   13  O1  UNL     1      21.608   1.368  53.008  1.00  0.00    -0.307 OA
HETATM   14  C15 UNL     1      21.235   1.875  51.763  1.00  0.00     0.076 C 
HETATM   15  C16 UNL     1      20.031   2.400  51.927  1.00  0.00     0.080 C 
HETATM   16  S2  UNL     1      19.135   3.181  50.575  1.00  0.00    -0.124 SA
HETATM   17  H8  UNL     1      24.944   2.707  49.683  1.00  0.00     0.159 HD
ENDROOT
BRANCH   8  18
HETATM   18  N2  UNL     1      25.980   1.843  53.891  1.00  0.00    -0.340 N 
HETATM   19  H10 UNL     1      25.885   2.404  54.766  1.00  0.00     0.167 HD
BRANCH  18  20
HETATM   20  C7  UNL     1      27.181   1.105  53.763  1.00  0.00     0.035 A 
HETATM   21  C8  UNL     1      28.333   1.853  53.908  1.00  0.00     0.029 A 
HETATM   22  C9  UNL     1      29.587   1.286  53.814  1.00  0.00     0.004 A 
HETATM   23  C10 UNL     1      29.752  -0.052  53.571  1.00  0.00     0.019 A 
HETATM   24  C11 UNL     1      28.596  -0.807  53.425  1.00  0.00     0.013 A 
HETATM   25 BR1  UNL     1      28.711  -2.678  53.087  1.00  0.00    -0.051 Br
HETATM   26  C12 UNL     1      27.343  -0.224  53.522  1.00  0.00     0.048 A 
ENDBRANCH  18  20
ENDBRANCH   8  18
TORSDOF 2
ENDMDL
MODEL 3
REMARK VINA RESULT:      -7.4      5.118      7.926
REMARK  2 active torsions:
REMARK  status: ('A' for Active; 'I' for Inactive)
REMARK    1  A    between atoms: C6_8  and  N2_9 
REMARK    2  A    between atoms: N2_9  and  C7_10 
ROOT
HETATM    1  C1  UNL     1      22.539   7.300  46.411  1.00  0.00     0.033 C 
HETATM    2  C2  UNL     1      21.772   6.572  47.484  1.00  0.00     0.109 C 
HETATM    3  S1  UNL     1      22.418   4.906  47.681  1.00  0.00    -0.141 SA
HETATM    4  C3  UNL     1      23.147   4.629  49.314  1.00  0.00     0.123 C 
HETATM    5  C4  UNL     1      24.627   4.916  49.295  1.00  0.00     0.141 C 
HETATM    6  N1  UNL     1      25.439   3.786  49.742  1.00  0.00    -0.394 N 
HETATM    7  C5  UNL     1      25.621   3.180  51.015  1.00  0.00     0.134 C 
HETATM    8  C6  UNL     1      24.956   2.800  52.120  1.00  0.00     0.144 C 
HETATM    9  N3  UNL     1      23.568   3.056  52.125  1.00  0.00    -0.223 NA
HETATM   10  C13 UNL     1      22.638   2.217  52.372  1.00  0.00     0.237 C 
HETATM   11  N4  UNL     1      21.327   2.753  52.305  1.00  0.00    -0.230 NA
HETATM   12  C14 UNL     1      21.016   3.942  51.974  1.00  0.00     0.259 C 
HETATM   13  O1  UNL     1      22.160   4.656  51.682  1.00  0.00    -0.307 OA
HETATM   14  C15 UNL     1      22.412   5.216  50.430  1.00  0.00     0.076 C 
HETATM   15  C16 UNL     1      21.843   6.410  50.442  1.00  0.00     0.080 C 
HETATM   16  S2  UNL     1      21.906   7.515  49.022  1.00  0.00    -0.124 SA
HETATM   17  H8  UNL     1      26.018   3.290  48.993  1.00  0.00     0.159 HD
ENDROOT
BRANCH   8  18
HETATM   18  N2  UNL     1      25.561   2.183  53.247  1.00  0.00    -0.340 N 
HETATM   19  H10 UNL     1      25.476   2.598  54.201  1.00  0.00     0.167 HD
BRANCH  18  20
HETATM   20  C7  UNL     1      26.309   0.984  53.165  1.00  0.00     0.035 A 
HETATM   21  C8  UNL     1      25.582  -0.120  52.764  1.00  0.00     0.029 A 
HETATM   22  C9  UNL     1      26.160  -1.365  52.631  1.00  0.00     0.004 A 
HETATM   23  C10 UNL     1      27.490  -1.568  52.889  1.00  0.00     0.019 A 
HETATM   24  C11 UNL     1      28.224  -0.461  53.292  1.00  0.00     0.013 A 
HETATM   25 BR1  UNL     1      30.082  -0.632  53.676  1.00  0.00    -0.051 Br
HETATM   26  C12 UNL     1      27.630   0.784  53.422  1.00  0.00     0.048 A 
ENDBRANCH  18  20
ENDBRANCH   8  18
TORSDOF 2
ENDMDL
MODEL 4
REMARK VINA RESULT:      -7.3      4.451      8.033
REMARK  2 active torsions:
REMARK  status: ('A' for Active; 'I' for Inactive)
REMARK    1  A    between atoms: C6_8  and  N2_9 
REMARK    2  A    between atoms: N2_9  and  C7_10 
ROOT
HETATM    1  C1  UNL     1      21.775   5.060  46.081  1.00  0.00     0.033 C 
HETATM    2  C2  UNL     1      21.269   4.296  47.277  1.00  0.00     0.109 C 
HETATM    3  S1  UNL     1      22.416   2.977  47.695  1.00  0.00    -0.141 SA
HETATM    4  C3  UNL     1      23.172   3.201  49.325  1.00  0.00     0.123 C 
HETATM    5  C4  UNL     1      24.479   3.942  49.211  1.00  0.00     0.141 C 
HETATM    6  N1  UNL     1      25.607   3.216  49.792  1.00  0.00    -0.394 N 
HETATM    7  C5  UNL     1      25.956   2.901  51.134  1.00  0.00     0.134 C 
HETATM    8  C6  UNL     1      25.433   2.500  52.306  1.00  0.00     0.144 C 
HETATM    9  N3  UNL     1      24.037   2.293  52.322  1.00  0.00    -0.223 NA
HETATM   10  C13 UNL     1      23.425   1.247  52.722  1.00  0.00     0.237 C 
HETATM   11  N4  UNL     1      22.012   1.316  52.624  1.00  0.00    -0.230 NA
HETATM   12  C14 UNL     1      21.338   2.276  52.131  1.00  0.00     0.259 C 
HETATM   13  O1  UNL     1      22.195   3.268  51.696  1.00  0.00    -0.307 OA
HETATM   14  C15 UNL     1      22.270   3.682  50.367  1.00  0.00     0.076 C 
HETATM   15  C16 UNL     1      21.345   4.617  50.221  1.00  0.00     0.080 C 
HETATM   16  S2  UNL     1      21.068   5.454  48.652  1.00  0.00    -0.124 SA
HETATM   17  H8  UNL     1      26.326   2.825  49.105  1.00  0.00     0.159 HD
ENDROOT
BRANCH   8  18
HETATM   18  N2  UNL     1      26.188   2.289  53.490  1.00  0.00    -0.340 N 
HETATM   19  H10 UNL     1      25.968   2.804  54.370  1.00  0.00     0.167 HD
BRANCH  18  20
HETATM   20  C7  UNL     1      27.275   1.385  53.564  1.00  0.00     0.035 A 
HETATM   21  C8  UNL     1      28.460   1.945  54.000  1.00  0.00     0.029 A 
HETATM   22  C9  UNL     1      29.614   1.202  54.130  1.00  0.00     0.004 A 
HETATM   23  C10 UNL     1      29.642  -0.136  53.833  1.00  0.00     0.019 A 
HETATM   24  C11 UNL     1      28.453  -0.702  53.394  1.00  0.00     0.013 A 
HETATM   25 BR1  UNL     1      28.379  -2.554  52.955  1.00  0.00    -0.051 Br
HETATM   26  C12 UNL     1      27.301   0.057  53.268  1.00  0.00     0.048 A 
ENDBRANCH  18  20
ENDBRANCH   8  18
TORSDOF 2
ENDMDL
MODEL 5
REMARK VINA RESULT:      -7.2      4.036      5.899
REMARK  2 active torsions:
REMARK  status: ('A' for Active; 'I' for Inactive)
REMARK    1  A    between atoms: C6_8  and  N2_9 
REMARK    2  A    between atoms: N2_9  and  C7_10 
ROOT
HETATM    1  C1  UNL     1      26.026   9.370  49.072  1.00  0.00     0.033 C 
HETATM    2  C2  UNL     1      26.531   8.090  49.685  1.00  0.00     0.109 C 
HETATM    3  S1  UNL     1      25.253   7.356  50.716  1.00  0.00    -0.141 SA
HETATM    4  C3  UNL     1      24.695   5.749  50.097  1.00  0.00     0.123 C 
HETATM    5  C4  UNL     1      23.501   5.911  49.192  1.00  0.00     0.141 C 
HETATM    6  N1  UNL     1      22.342   5.129  49.621  1.00  0.00    -0.394 N 
HETATM    7  C5  UNL     1      22.081   3.732  49.639  1.00  0.00     0.134 C 
HETATM    8  C6  UNL     1      22.650   2.544  49.907  1.00  0.00     0.144 C 
HETATM    9  N3  UNL     1      23.998   2.584  50.323  1.00  0.00    -0.223 NA
HETATM   10  C13 UNL     1      24.492   2.038  51.366  1.00  0.00     0.237 C 
HETATM   11  N4  UNL     1      25.885   2.243  51.537  1.00  0.00    -0.230 NA
HETATM   12  C14 UNL     1      26.638   2.950  50.793  1.00  0.00     0.259 C 
HETATM   13  O1  UNL     1      25.893   3.503  49.772  1.00  0.00    -0.307 OA
HETATM   14  C15 UNL     1      25.751   4.879  49.589  1.00  0.00     0.076 C 
HETATM   15  C16 UNL     1      26.780   5.258  48.849  1.00  0.00     0.080 C 
HETATM   16  S2  UNL     1      27.023   6.971  48.352  1.00  0.00    -0.124 SA
HETATM   17  H8  UNL     1      21.513   5.681  50.009  1.00  0.00     0.159 HD
ENDROOT
BRANCH   8  18
HETATM   18  N2  UNL     1      21.989   1.293  49.788  1.00  0.00    -0.340 N 
HETATM   19  H10 UNL     1      22.075   0.716  48.922  1.00  0.00     0.167 HD
BRANCH  18  20
HETATM   20  C7  UNL     1      21.179   0.746  50.811  1.00  0.00     0.035 A 
HETATM   21  C8  UNL     1      19.821   0.811  50.566  1.00  0.00     0.029 A 
HETATM   22  C9  UNL     1      18.894   0.321  51.462  1.00  0.00     0.004 A 
HETATM   23  C10 UNL     1      19.276  -0.258  52.643  1.00  0.00     0.019 A 
HETATM   24  C11 UNL     1      20.640  -0.326  52.893  1.00  0.00     0.013 A 
HETATM   25 BR1  UNL     1      21.280  -1.113  54.505  1.00  0.00    -0.051 Br
HETATM   26  C12 UNL     1      21.560   0.171  51.984  1.00  0.00     0.048 A 
ENDBRANCH  18  20
ENDBRANCH   8  18
TORSDOF 2
ENDMDL
MODEL 6
REMARK VINA RESULT:      -7.2      5.408      8.559
REMARK  2 active torsions:
REMARK  status: ('A' for Active; 'I' for Inactive)
REMARK    1  A    between atoms: C6_8  and  N2_9 
REMARK    2  A    between atoms: N2_9  and  C7_10 
ROOT
HETATM    1  C1  UNL     1      18.038  -0.352  52.341  1.00  0.00     0.033 C 
HETATM    2  C2  UNL     1      19.533  -0.425  52.173  1.00  0.00     0.109 C 
HETATM    3  S1  UNL     1      20.074   0.771  50.945  1.00  0.00    -0.141 SA
HETATM    4  C3  UNL     1      21.149   2.050  51.643  1.00  0.00     0.123 C 
HETATM    5  C4  UNL     1      20.343   3.250  52.070  1.00  0.00     0.141 C 
HETATM    6  N1  UNL     1      20.788   4.496  51.448  1.00  0.00    -0.394 N 
HETATM    7  C5  UNL     1      21.960   5.283  51.610  1.00  0.00     0.134 C 
HETATM    8  C6  UNL     1      23.292   5.193  51.767  1.00  0.00     0.144 C 
HETATM    9  N3  UNL     1      23.823   3.886  51.804  1.00  0.00    -0.223 NA
HETATM   10  C13 UNL     1      24.784   3.432  51.096  1.00  0.00     0.237 C 
HETATM   11  N4  UNL     1      25.110   2.074  51.345  1.00  0.00    -0.230 NA
HETATM   12  C14 UNL     1      24.504   1.289  52.143  1.00  0.00     0.259 C 
HETATM   13  O1  UNL     1      23.461   1.960  52.749  1.00  0.00    -0.307 OA
HETATM   14  C15 UNL     1      22.127   1.576  52.616  1.00  0.00     0.076 C 
HETATM   15  C16 UNL     1      21.908   0.676  53.561  1.00  0.00     0.080 C 
HETATM   16  S2  UNL     1      20.305  -0.114  53.778  1.00  0.00    -0.124 SA
HETATM   17  H8  UNL     1      20.134   4.923  50.719  1.00  0.00     0.159 HD
ENDROOT
BRANCH   8  18
HETATM   18  N2  UNL     1      24.161   6.309  51.900  1.00  0.00    -0.340 N 
HETATM   19  H10 UNL     1      24.435   6.670  52.840  1.00  0.00     0.167 HD
BRANCH  18  20
HETATM   20  C7  UNL     1      24.708   7.000  50.793  1.00  0.00     0.035 A 
HETATM   21  C8  UNL     1      23.999   8.122  50.409  1.00  0.00     0.029 A 
HETATM   22  C9  UNL     1      24.398   8.910  49.350  1.00  0.00     0.004 A 
HETATM   23  C10 UNL     1      25.522   8.617  48.623  1.00  0.00     0.019 A 
HETATM   24  C11 UNL     1      26.237   7.490  49.006  1.00  0.00     0.013 A 
HETATM   25 BR1  UNL     1      27.817   6.993  48.064  1.00  0.00    -0.051 Br
HETATM   26  C12 UNL     1      25.824   6.708  50.072  1.00  0.00     0.048 A 
ENDBRANCH  18  20
ENDBRANCH   8  18
TORSDOF 2
ENDMDL
MODEL 7
REMARK VINA RESULT:      -7.1      6.527      8.409
REMARK  2 active torsions:
REMARK  status: ('A' for Active; 'I' for Inactive)
REMARK    1  A    between atoms: C6_8  and  N2_9 
REMARK    2  A    between atoms: N2_9  and  C7_10 
ROOT
HETATM    1  C1  UNL     1      31.581   8.460  46.409  1.00  0.00     0.033 C 
HETATM    2  C2  UNL     1      30.265   9.013  46.890  1.00  0.00     0.109 C 
HETATM    3  S1  UNL     1      28.934   7.874  46.486  1.00  0.00    -0.141 SA
HETATM    4  C3  UNL     1      28.126   7.197  47.958  1.00  0.00     0.123 C 
HETATM    5  C4  UNL     1      28.763   5.893  48.364  1.00  0.00     0.141 C 
HETATM    6  N1  UNL     1      27.811   4.786  48.444  1.00  0.00    -0.394 N 
HETATM    7  C5  UNL     1      26.751   4.496  49.346  1.00  0.00     0.134 C 
HETATM    8  C6  UNL     1      25.741   5.068  50.023  1.00  0.00     0.144 C 
HETATM    9  N3  UNL     1      25.593   6.461  49.853  1.00  0.00    -0.223 NA
HETATM   10  C13 UNL     1      24.527   7.082  49.524  1.00  0.00     0.237 C 
HETATM   11  N4  UNL     1      24.669   8.489  49.426  1.00  0.00    -0.230 NA
HETATM   12  C14 UNL     1      25.747   9.149  49.576  1.00  0.00     0.259 C 
HETATM   13  O1  UNL     1      26.785   8.282  49.856  1.00  0.00    -0.307 OA
HETATM   14  C15 UNL     1      27.909   8.150  49.041  1.00  0.00     0.076 C 
HETATM   15  C16 UNL     1      28.764   9.076  49.444  1.00  0.00     0.080 C 
HETATM   16  S2  UNL     1      30.377   9.288  48.674  1.00  0.00    -0.124 SA
HETATM   17  H8  UNL     1      27.893   4.033  47.691  1.00  0.00     0.159 HD
ENDROOT
BRANCH   8  18
HETATM   18  N2  UNL     1      24.850   4.366  50.878  1.00  0.00    -0.340 N 
HETATM   19  H10 UNL     1      24.855   4.524  51.910  1.00  0.00     0.167 HD
BRANCH  18  20
HETATM   20  C7  UNL     1      23.909   3.420  50.407  1.00  0.00     0.035 A 
HETATM   21  C8  UNL     1      23.638   3.505  49.055  1.00  0.00     0.029 A 
HETATM   22  C9  UNL     1      22.745   2.655  48.435  1.00  0.00     0.004 A 
HETATM   23  C10 UNL     1      22.082   1.681  49.133  1.00  0.00     0.019 A 
HETATM   24  C11 UNL     1      22.352   1.592  50.492  1.00  0.00     0.013 A 
HETATM   25 BR1  UNL     1      21.486   0.271  51.557  1.00  0.00    -0.051 Br
HETATM   26  C12 UNL     1      23.251   2.453  51.101  1.00  0.00     0.048 A 
ENDBRANCH  18  20
ENDBRANCH   8  18
TORSDOF 2
ENDMDL
MODEL 8
REMARK VINA RESULT:      -7.1      4.354      6.445
REMARK  2 active torsions:
REMARK  status: ('A' for Active; 'I' for Inactive)
REMARK    1  A    between atoms: C6_8  and  N2_9 
REMARK    2  A    between atoms: N2_9  and  C7_10 
ROOT
HETATM    1  C1  UNL     1      30.076  -0.343  53.832  1.00  0.00     0.033 C 
HETATM    2  C2  UNL     1      28.610  -0.515  54.133  1.00  0.00     0.109 C 
HETATM    3  S1  UNL     1      27.808   1.091  54.230  1.00  0.00    -0.141 SA
HETATM    4  C3  UNL     1      26.563   1.328  52.937  1.00  0.00     0.123 C 
HETATM    5  C4  UNL     1      27.168   1.998  51.730  1.00  0.00     0.141 C 
HETATM    6  N1  UNL     1      26.482   3.232  51.351  1.00  0.00    -0.394 N 
HETATM    7  C5  UNL     1      25.200   3.483  50.791  1.00  0.00     0.134 C 
HETATM    8  C6  UNL     1      23.913   3.099  50.857  1.00  0.00     0.144 C 
HETATM    9  N3  UNL     1      23.621   2.074  51.781  1.00  0.00    -0.223 NA
HETATM   10  C13 UNL     1      22.720   2.096  52.686  1.00  0.00     0.237 C 
HETATM   11  N4  UNL     1      22.649   0.921  53.477  1.00  0.00    -0.230 NA
HETATM   12  C14 UNL     1      23.421  -0.087  53.397  1.00  0.00     0.259 C 
HETATM   13  O1  UNL     1      24.360   0.126  52.408  1.00  0.00    -0.307 OA
HETATM   14  C15 UNL     1      25.732   0.163  52.654  1.00  0.00     0.076 C 
HETATM   15  C16 UNL     1      26.151  -1.091  52.582  1.00  0.00     0.080 C 
HETATM   16  S2  UNL     1      27.876  -1.539  52.835  1.00  0.00    -0.124 SA
HETATM   17  H8  UNL     1      27.014   4.143  51.520  1.00  0.00     0.159 HD
ENDROOT
BRANCH   8  18
HETATM   18  N2  UNL     1      22.871   3.648  50.063  1.00  0.00    -0.340 N 
HETATM   19  H10 UNL     1      22.162   3.036  49.603  1.00  0.00     0.167 HD
BRANCH  18  20
HETATM   20  C7  UNL     1      22.718   5.038  49.840  1.00  0.00     0.035 A 
HETATM   21  C8  UNL     1      22.138   5.727  50.887  1.00  0.00     0.029 A 
HETATM   22  C9  UNL     1      21.919   7.088  50.833  1.00  0.00     0.004 A 
HETATM   23  C10 UNL     1      22.269   7.826  49.733  1.00  0.00     0.019 A 
HETATM   24  C11 UNL     1      22.853   7.136  48.679  1.00  0.00     0.013 A 
HETATM   25 BR1  UNL     1      23.379   8.066  47.101  1.00  0.00    -0.051 Br
HETATM   26  C12 UNL     1      23.066   5.769  48.747  1.00  0.00     0.048 A 
ENDBRANCH  18  20
ENDBRANCH   8  18
TORSDOF 2
ENDMDL
MODEL 9
REMARK VINA RESULT:      -7.0     10.187     13.744
REMARK  2 active torsions:
REMARK  status: ('A' for Active; 'I' for Inactive)
REMARK    1  A    between atoms: C6_8  and  N2_9 
REMARK    2  A    between atoms: N2_9  and  C7_10 
ROOT
HETATM    1  C1  UNL     1      23.640   6.875  48.144  1.00  0.00     0.033 C 
HETATM    2  C2  UNL     1      24.591   8.021  48.370  1.00  0.00     0.109 C 
HETATM    3  S1  UNL     1      25.876   7.535  49.530  1.00  0.00    -0.141 SA
HETATM    4  C3  UNL     1      27.525   7.532  48.782  1.00  0.00     0.123 C 
HETATM    5  C4  UNL     1      27.864   6.166  48.243  1.00  0.00     0.141 C 
HETATM    6  N1  UNL     1      29.104   5.620  48.792  1.00  0.00    -0.394 N 
HETATM    7  C5  UNL     1      30.469   5.977  48.617  1.00  0.00     0.134 C 
HETATM    8  C6  UNL     1      31.290   7.037  48.515  1.00  0.00     0.144 C 
HETATM    9  N3  UNL     1      30.674   8.305  48.588  1.00  0.00    -0.223 NA
HETATM   10  C13 UNL     1      30.999   9.268  49.360  1.00  0.00     0.237 C 
HETATM   11  N4  UNL     1      30.203  10.433  49.219  1.00  0.00    -0.230 NA
HETATM   12  C14 UNL     1      29.192  10.565  48.457  1.00  0.00     0.259 C 
HETATM   13  O1  UNL     1      28.974   9.389  47.768  1.00  0.00    -0.307 OA
HETATM   14  C15 UNL     1      27.800   8.645  47.880  1.00  0.00     0.076 C 
HETATM   15  C16 UNL     1      26.959   9.152  46.993  1.00  0.00     0.080 C 
HETATM   16  S2  UNL     1      25.294   8.504  46.775  1.00  0.00    -0.124 SA
HETATM   17  H8  UNL     1      29.005   4.797  49.466  1.00  0.00     0.159 HD
ENDROOT
BRANCH   8  18
HETATM   18  N2  UNL     1      32.695   6.948  48.334  1.00  0.00    -0.340 N 
HETATM   19  H10 UNL     1      33.344   7.616  48.805  1.00  0.00     0.167 HD
BRANCH  18  20
HETATM   20  C7  UNL     1      33.310   5.968  47.519  1.00  0.00     0.035 A 
HETATM   21  C8  UNL     1      34.042   5.022  48.210  1.00  0.00     0.029 A 
HETATM   22  C9  UNL     1      34.702   3.997  47.566  1.00  0.00     0.004 A 
HETATM   23  C10 UNL     1      34.664   3.865  46.203  1.00  0.00     0.019 A 
HETATM   24  C11 UNL     1      33.930   4.814  45.505  1.00  0.00     0.013 A 
HETATM   25 BR1  UNL     1      33.809   4.724  43.606  1.00  0.00    -0.051 Br
HETATM   26  C12 UNL     1      33.272   5.839  46.165  1.00  0.00     0.048 A 
ENDBRANCH  18  20
ENDBRANCH   8  18
TORSDOF 2
ENDMDL
