MODEL 1
REMARK VINA RESULT:      -8.2      0.000      0.000
REMARK  4 active torsions:
REMARK  status: ('A' for Active; 'I' for Inactive)
REMARK    1  A    between atoms: C2_2  and  C3_3 
REMARK    2  A    between atoms: C8_9  and  C9_10 
REMARK    3  A    between atoms: C9_10  and  C10_11 
REMARK    4  A    between atoms: N2_17  and  C16_18 
ROOT
HETATM    1  C3  UNL     1      26.351   3.918  49.325  1.00  0.00     0.047 C 
HETATM    2  C4  UNL     1      25.872   3.414  50.443  1.00  0.00     0.100 C 
HETATM    3  N1  UNL     1      26.758   3.270  51.540  1.00  0.00    -0.365 N 
HETATM    4  C5  UNL     1      26.778   2.426  52.740  1.00  0.00     0.136 A 
HETATM    5  C6  UNL     1      27.580   1.222  52.626  1.00  0.00     0.008 A 
HETATM    6  C7  UNL     1      26.270   1.117  52.415  1.00  0.00    -0.051 A 
HETATM    7  C8  UNL     1      24.955   0.448  52.096  1.00  0.00     0.021 C 
HETATM    8  C14 UNL     1      23.905   1.536  52.080  1.00  0.00     0.029 C 
HETATM    9  C15 UNL     1      23.579   2.037  50.709  1.00  0.00     0.126 C 
HETATM   10  N2  UNL     1      24.492   3.111  50.296  1.00  0.00    -0.354 N 
HETATM   11  H5  UNL     1      27.563   3.914  51.458  1.00  0.00     0.162 HD
ENDROOT
BRANCH  10  12
HETATM   12  C16 UNL     1      23.739   4.122  49.540  1.00  0.00     0.156 A 
HETATM   13  C17 UNL     1      22.968   3.533  48.449  1.00  0.00     0.004 A 
HETATM   14  C18 UNL     1      21.664   3.541  48.234  1.00  0.00     0.001 A 
HETATM   15  C19 UNL     1      20.798   4.220  49.189  1.00  0.00     0.043 A 
HETATM   16  C20 UNL     1      21.347   4.805  50.239  1.00  0.00     0.135 A 
HETATM   17  F1  UNL     1      20.625   5.470  51.196  1.00  0.00    -0.205 F 
HETATM   18  C21 UNL     1      22.776   4.802  50.491  1.00  0.00     0.074 A 
HETATM   19  S1  UNL     1      23.473   5.512  51.789  1.00  0.00    -0.079 SA
ENDBRANCH  10  12
BRANCH   1  20
HETATM   20  C2  UNL     1      27.589   4.434  48.755  1.00  0.00    -0.007 C 
HETATM   21  C1  UNL     1      28.132   5.612  48.399  1.00  0.00     0.011 C 
ENDBRANCH   1  20
BRANCH   7  22
HETATM   22  C9  UNL     1      24.640  -0.510  53.253  1.00  0.00     0.036 C 
BRANCH  22  23
HETATM   23  C10 UNL     1      23.189  -0.736  53.379  1.00  0.00    -0.024 C 
HETATM   24  C11 UNL     1      22.488  -1.164  54.418  1.00  0.00    -0.091 C 
HETATM   25  C12 UNL     1      23.153  -1.496  55.691  1.00  0.00     0.042 C 
HETATM   26  C13 UNL     1      21.020  -1.284  54.212  1.00  0.00     0.042 C 
ENDBRANCH  22  23
ENDBRANCH   7  22
TORSDOF 4
ENDMDL
MODEL 2
REMARK VINA RESULT:      -8.0      3.305      7.575
REMARK  4 active torsions:
REMARK  status: ('A' for Active; 'I' for Inactive)
REMARK    1  A    between atoms: C2_2  and  C3_3 
REMARK    2  A    between atoms: C8_9  and  C9_10 
REMARK    3  A    between atoms: C9_10  and  C10_11 
REMARK    4  A    between atoms: N2_17  and  C16_18 
ROOT
HETATM    1  C3  UNL     1      23.632  -0.063  53.273  1.00  0.00     0.047 C 
HETATM    2  C4  UNL     1      24.399   0.961  52.963  1.00  0.00     0.100 C 
HETATM    3  N1  UNL     1      23.839   2.261  53.054  1.00  0.00    -0.365 N 
HETATM    4  C5  UNL     1      24.150   3.558  52.443  1.00  0.00     0.136 A 
HETATM    5  C6  UNL     1      23.362   3.885  51.270  1.00  0.00     0.008 A 
HETATM    6  C7  UNL     1      24.569   3.359  51.079  1.00  0.00    -0.051 A 
HETATM    7  C8  UNL     1      25.759   2.833  50.314  1.00  0.00     0.021 C 
HETATM    8  C14 UNL     1      26.754   2.339  51.341  1.00  0.00     0.029 C 
HETATM    9  C15 UNL     1      26.696   0.862  51.571  1.00  0.00     0.126 C 
HETATM   10  N2  UNL     1      25.693   0.513  52.586  1.00  0.00    -0.354 N 
HETATM   11  H5  UNL     1      23.033   2.276  53.702  1.00  0.00     0.162 HD
ENDROOT
BRANCH  10  12
HETATM   12  C16 UNL     1      26.204  -0.587  53.414  1.00  0.00     0.156 A 
HETATM   13  C17 UNL     1      26.396  -1.813  52.643  1.00  0.00     0.004 A 
HETATM   14  C18 UNL     1      27.497  -2.513  52.425  1.00  0.00     0.001 A 
HETATM   15  C19 UNL     1      28.749  -2.051  53.009  1.00  0.00     0.043 A 
HETATM   16  C20 UNL     1      28.743  -0.949  53.737  1.00  0.00     0.135 A 
HETATM   17  F1  UNL     1      29.863  -0.429  54.332  1.00  0.00    -0.205 F 
HETATM   18  C21 UNL     1      27.544  -0.168  53.983  1.00  0.00     0.074 A 
HETATM   19  S1  UNL     1      27.517   1.203  54.873  1.00  0.00    -0.079 SA
ENDBRANCH  10  12
BRANCH   1  20
HETATM   20  C2  UNL     1      22.281  -0.371  53.723  1.00  0.00    -0.007 C 
HETATM   21  C1  UNL     1      21.663  -1.133  54.643  1.00  0.00     0.011 C 
ENDBRANCH   1  20
BRANCH   7  22
HETATM   22  C9  UNL     1      26.384   4.022  49.571  1.00  0.00     0.036 C 
BRANCH  22  23
HETATM   23  C10 UNL     1      25.350   4.961  49.102  1.00  0.00    -0.024 C 
HETATM   24  C11 UNL     1      25.482   6.163  48.561  1.00  0.00    -0.091 C 
HETATM   25  C12 UNL     1      26.817   6.751  48.348  1.00  0.00     0.042 C 
HETATM   26  C13 UNL     1      24.220   6.859  48.195  1.00  0.00     0.042 C 
ENDBRANCH  22  23
ENDBRANCH   7  22
TORSDOF 4
ENDMDL
MODEL 3
REMARK VINA RESULT:      -7.5      2.362      4.291
REMARK  4 active torsions:
REMARK  status: ('A' for Active; 'I' for Inactive)
REMARK    1  A    between atoms: C2_2  and  C3_3 
REMARK    2  A    between atoms: C8_9  and  C9_10 
REMARK    3  A    between atoms: C9_10  and  C10_11 
REMARK    4  A    between atoms: N2_17  and  C16_18 
ROOT
HETATM    1  C3  UNL     1      25.315   0.850  51.914  1.00  0.00     0.047 C 
HETATM    2  C4  UNL     1      24.086   1.109  52.305  1.00  0.00     0.100 C 
HETATM    3  N1  UNL     1      23.607   0.455  53.469  1.00  0.00    -0.365 N 
HETATM    4  C5  UNL     1      22.275   0.125  53.988  1.00  0.00     0.136 A 
HETATM    5  C6  UNL     1      21.823  -1.222  53.697  1.00  0.00     0.008 A 
HETATM    6  C7  UNL     1      21.411  -0.243  52.895  1.00  0.00    -0.051 A 
HETATM    7  C8  UNL     1      20.685   0.408  51.743  1.00  0.00     0.021 C 
HETATM    8  C14 UNL     1      21.052   1.875  51.769  1.00  0.00     0.029 C 
HETATM    9  C15 UNL     1      22.150   2.237  50.820  1.00  0.00     0.126 C 
HETATM   10  N2  UNL     1      23.474   2.042  51.427  1.00  0.00    -0.354 N 
HETATM   11  H5  UNL     1      24.389   0.150  54.074  1.00  0.00     0.162 HD
ENDROOT
BRANCH  10  12
HETATM   12  C16 UNL     1      24.369   3.122  50.991  1.00  0.00     0.156 A 
HETATM   13  C17 UNL     1      24.427   3.238  49.536  1.00  0.00     0.004 A 
HETATM   14  C18 UNL     1      24.107   4.254  48.754  1.00  0.00     0.001 A 
HETATM   15  C19 UNL     1      23.611   5.481  49.364  1.00  0.00     0.043 A 
HETATM   16  C20 UNL     1      23.498   5.536  50.679  1.00  0.00     0.135 A 
HETATM   17  F1  UNL     1      23.044   6.640  51.353  1.00  0.00    -0.205 F 
HETATM   18  C21 UNL     1      23.842   4.427  51.552  1.00  0.00     0.074 A 
HETATM   19  S1  UNL     1      23.700   4.473  53.180  1.00  0.00    -0.079 SA
ENDBRANCH  10  12
BRANCH   1  20
HETATM   20  C2  UNL     1      26.478   0.055  52.286  1.00  0.00    -0.007 C 
HETATM   21  C1  UNL     1      26.778  -1.210  52.633  1.00  0.00     0.011 C 
ENDBRANCH   1  20
BRANCH   7  22
HETATM   22  C9  UNL     1      19.181   0.282  52.024  1.00  0.00     0.036 C 
BRANCH  22  23
HETATM   23  C10 UNL     1      18.874  -0.971  52.736  1.00  0.00    -0.024 C 
HETATM   24  C11 UNL     1      17.701  -1.507  53.037  1.00  0.00    -0.091 C 
HETATM   25  C12 UNL     1      16.445  -0.837  52.651  1.00  0.00     0.042 C 
HETATM   26  C13 UNL     1      17.740  -2.799  53.773  1.00  0.00     0.042 C 
ENDBRANCH  22  23
ENDBRANCH   7  22
TORSDOF 4
ENDMDL
MODEL 4
REMARK VINA RESULT:      -7.4      2.463      5.137
REMARK  4 active torsions:
REMARK  status: ('A' for Active; 'I' for Inactive)
REMARK    1  A    between atoms: C2_2  and  C3_3 
REMARK    2  A    between atoms: C8_9  and  C9_10 
REMARK    3  A    between atoms: C9_10  and  C10_11 
REMARK    4  A    between atoms: N2_17  and  C16_18 
ROOT
HETATM    1  C3  UNL     1      20.234   3.366  51.797  1.00  0.00     0.047 C 
HETATM    2  C4  UNL     1      21.201   2.478  51.708  1.00  0.00     0.100 C 
HETATM    3  N1  UNL     1      20.841   1.110  51.616  1.00  0.00    -0.365 N 
HETATM    4  C5  UNL     1      21.523  -0.154  51.913  1.00  0.00     0.136 A 
HETATM    5  C6  UNL     1      21.224  -0.718  53.216  1.00  0.00     0.008 A 
HETATM    6  C7  UNL     1      22.335   0.004  53.093  1.00  0.00    -0.051 A 
HETATM    7  C8  UNL     1      23.620   0.674  53.515  1.00  0.00     0.021 C 
HETATM    8  C14 UNL     1      24.136   1.427  52.309  1.00  0.00     0.029 C 
HETATM    9  C15 UNL     1      23.788   2.882  52.315  1.00  0.00     0.126 C 
HETATM   10  N2  UNL     1      22.467   3.123  51.721  1.00  0.00    -0.354 N 
HETATM   11  H5  UNL     1      19.878   1.001  51.255  1.00  0.00     0.162 HD
ENDROOT
BRANCH  10  12
HETATM   12  C16 UNL     1      22.508   4.365  50.937  1.00  0.00     0.156 A 
HETATM   13  C17 UNL     1      22.923   5.512  51.741  1.00  0.00     0.004 A 
HETATM   14  C18 UNL     1      23.963   6.314  51.599  1.00  0.00     0.001 A 
HETATM   15  C19 UNL     1      24.884   6.081  50.494  1.00  0.00     0.043 A 
HETATM   16  C20 UNL     1      24.647   5.075  49.671  1.00  0.00     0.135 A 
HETATM   17  F1  UNL     1      25.447   4.769  48.601  1.00  0.00    -0.205 F 
HETATM   18  C21 UNL     1      23.511   4.182  49.816  1.00  0.00     0.074 A 
HETATM   19  S1  UNL     1      23.206   2.927  48.815  1.00  0.00    -0.079 SA
ENDBRANCH  10  12
BRANCH   1  20
HETATM   20  C2  UNL     1      18.780   3.457  51.837  1.00  0.00    -0.007 C 
HETATM   21  C1  UNL     1      17.776   4.025  51.145  1.00  0.00     0.011 C 
ENDBRANCH   1  20
BRANCH   7  22
HETATM   22  C9  UNL     1      24.622  -0.438  53.855  1.00  0.00     0.036 C 
BRANCH  22  23
HETATM   23  C10 UNL     1      26.010   0.051  53.774  1.00  0.00    -0.024 C 
HETATM   24  C11 UNL     1      27.076  -0.518  53.232  1.00  0.00    -0.091 C 
HETATM   25  C12 UNL     1      26.979  -1.838  52.583  1.00  0.00     0.042 C 
HETATM   26  C13 UNL     1      28.346   0.252  53.323  1.00  0.00     0.042 C 
ENDBRANCH  22  23
ENDBRANCH   7  22
TORSDOF 4
ENDMDL
MODEL 5
REMARK VINA RESULT:      -7.3      1.624      2.123
REMARK  4 active torsions:
REMARK  status: ('A' for Active; 'I' for Inactive)
REMARK    1  A    between atoms: C2_2  and  C3_3 
REMARK    2  A    between atoms: C8_9  and  C9_10 
REMARK    3  A    between atoms: C9_10  and  C10_11 
REMARK    4  A    between atoms: N2_17  and  C16_18 
ROOT
HETATM    1  C3  UNL     1      25.448   4.226  49.471  1.00  0.00     0.047 C 
HETATM    2  C4  UNL     1      24.511   3.993  50.367  1.00  0.00     0.100 C 
HETATM    3  N1  UNL     1      24.908   3.845  51.720  1.00  0.00    -0.365 N 
HETATM    4  C5  UNL     1      24.320   3.198  52.898  1.00  0.00     0.136 A 
HETATM    5  C6  UNL     1      24.811   1.861  53.169  1.00  0.00     0.008 A 
HETATM    6  C7  UNL     1      23.666   1.977  52.500  1.00  0.00    -0.051 A 
HETATM    7  C8  UNL     1      22.424   1.533  51.767  1.00  0.00     0.021 C 
HETATM    8  C14 UNL     1      21.724   2.787  51.292  1.00  0.00     0.029 C 
HETATM    9  C15 UNL     1      22.014   3.134  49.866  1.00  0.00     0.126 C 
HETATM   10  N2  UNL     1      23.235   3.941  49.745  1.00  0.00    -0.354 N 
HETATM   11  H5  UNL     1      25.818   4.304  51.894  1.00  0.00     0.162 HD
ENDROOT
BRANCH  10  12
HETATM   12  C16 UNL     1      23.043   4.954  48.699  1.00  0.00     0.156 A 
HETATM   13  C17 UNL     1      22.484   4.385  47.475  1.00  0.00     0.004 A 
HETATM   14  C18 UNL     1      21.352   4.664  46.852  1.00  0.00     0.001 A 
HETATM   15  C19 UNL     1      20.474   5.683  47.413  1.00  0.00     0.043 A 
HETATM   16  C20 UNL     1      20.840   6.294  48.525  1.00  0.00     0.135 A 
HETATM   17  F1  UNL     1      20.089   7.267  49.134  1.00  0.00    -0.205 F 
HETATM   18  C21 UNL     1      22.077   5.997  49.223  1.00  0.00     0.074 A 
HETATM   19  S1  UNL     1      22.542   6.736  50.606  1.00  0.00    -0.079 SA
ENDBRANCH  10  12
BRANCH   1  20
HETATM   20  C2  UNL     1      26.889   4.406  49.361  1.00  0.00    -0.007 C 
HETATM   21  C1  UNL     1      27.786   4.950  48.519  1.00  0.00     0.011 C 
ENDBRANCH   1  20
BRANCH   7  22
HETATM   22  C9  UNL     1      21.519   0.833  52.790  1.00  0.00     0.036 C 
BRANCH  22  23
HETATM   23  C10 UNL     1      22.313   0.138  53.818  1.00  0.00    -0.024 C 
HETATM   24  C11 UNL     1      22.040  -0.970  54.491  1.00  0.00    -0.091 C 
HETATM   25  C12 UNL     1      20.782  -1.703  54.258  1.00  0.00     0.042 C 
HETATM   26  C13 UNL     1      23.067  -1.410  55.473  1.00  0.00     0.042 C 
ENDBRANCH  22  23
ENDBRANCH   7  22
TORSDOF 4
ENDMDL
MODEL 6
REMARK VINA RESULT:      -7.1      2.124      5.386
REMARK  4 active torsions:
REMARK  status: ('A' for Active; 'I' for Inactive)
REMARK    1  A    between atoms: C2_2  and  C3_3 
REMARK    2  A    between atoms: C8_9  and  C9_10 
REMARK    3  A    between atoms: C9_10  and  C10_11 
REMARK    4  A    between atoms: N2_17  and  C16_18 
ROOT
HETATM    1  C3  UNL     1      25.471   1.687  51.638  1.00  0.00     0.047 C 
HETATM    2  C4  UNL     1      24.321   2.174  51.225  1.00  0.00     0.100 C 
HETATM    3  N1  UNL     1      23.134   1.667  51.813  1.00  0.00    -0.365 N 
HETATM    4  C5  UNL     1      21.729   1.599  51.397  1.00  0.00     0.136 A 
HETATM    5  C6  UNL     1      21.330   0.340  50.797  1.00  0.00     0.008 A 
HETATM    6  C7  UNL     1      21.659   1.339  49.982  1.00  0.00    -0.051 A 
HETATM    7  C8  UNL     1      21.901   2.054  48.675  1.00  0.00     0.021 C 
HETATM    8  C14 UNL     1      22.414   3.434  49.021  1.00  0.00     0.029 C 
HETATM    9  C15 UNL     1      23.904   3.555  48.957  1.00  0.00     0.126 C 
HETATM   10  N2  UNL     1      24.533   3.160  50.224  1.00  0.00    -0.354 N 
HETATM   11  H5  UNL     1      23.324   1.258  52.744  1.00  0.00     0.162 HD
ENDROOT
BRANCH  10  12
HETATM   12  C16 UNL     1      25.672   4.046  50.496  1.00  0.00     0.156 A 
HETATM   13  C17 UNL     1      26.757   3.860  49.535  1.00  0.00     0.004 A 
HETATM   14  C18 UNL     1      27.297   4.723  48.692  1.00  0.00     0.001 A 
HETATM   15  C19 UNL     1      26.785   6.086  48.657  1.00  0.00     0.043 A 
HETATM   16  C20 UNL     1      25.797   6.415  49.470  1.00  0.00     0.135 A 
HETATM   17  F1  UNL     1      25.244   7.668  49.519  1.00  0.00    -0.205 F 
HETATM   18  C21 UNL     1      25.190   5.478  50.399  1.00  0.00     0.074 A 
HETATM   19  S1  UNL     1      23.961   5.863  51.406  1.00  0.00    -0.079 SA
ENDBRANCH  10  12
BRANCH   1  20
HETATM   20  C2  UNL     1      26.018   0.718  52.580  1.00  0.00    -0.007 C 
HETATM   21  C1  UNL     1      25.775  -0.533  53.009  1.00  0.00     0.011 C 
ENDBRANCH   1  20
BRANCH   7  22
HETATM   22  C9  UNL     1      20.540   2.206  47.980  1.00  0.00     0.036 C 
BRANCH  22  23
HETATM   23  C10 UNL     1      19.766   3.318  48.559  1.00  0.00    -0.024 C 
HETATM   24  C11 UNL     1      18.654   3.290  49.277  1.00  0.00    -0.091 C 
HETATM   25  C12 UNL     1      18.002   2.009  49.609  1.00  0.00     0.042 C 
HETATM   26  C13 UNL     1      18.122   4.609  49.713  1.00  0.00     0.042 C 
ENDBRANCH  22  23
ENDBRANCH   7  22
TORSDOF 4
ENDMDL
MODEL 7
REMARK VINA RESULT:      -7.0      2.524      6.194
REMARK  4 active torsions:
REMARK  status: ('A' for Active; 'I' for Inactive)
REMARK    1  A    between atoms: C2_2  and  C3_3 
REMARK    2  A    between atoms: C8_9  and  C9_10 
REMARK    3  A    between atoms: C9_10  and  C10_11 
REMARK    4  A    between atoms: N2_17  and  C16_18 
ROOT
HETATM    1  C3  UNL     1      24.836   1.237  51.973  1.00  0.00     0.047 C 
HETATM    2  C4  UNL     1      24.063   2.109  51.361  1.00  0.00     0.100 C 
HETATM    3  N1  UNL     1      24.640   2.908  50.342  1.00  0.00    -0.365 N 
HETATM    4  C5  UNL     1      24.307   4.203  49.739  1.00  0.00     0.136 A 
HETATM    5  C6  UNL     1      25.025   5.336  50.290  1.00  0.00     0.008 A 
HETATM    6  C7  UNL     1      23.803   5.091  50.757  1.00  0.00    -0.051 A 
HETATM    7  C8  UNL     1      22.563   5.281  51.596  1.00  0.00     0.021 C 
HETATM    8  C14 UNL     1      21.627   4.142  51.257  1.00  0.00     0.029 C 
HETATM    9  C15 UNL     1      21.684   3.008  52.231  1.00  0.00     0.126 C 
HETATM   10  N2  UNL     1      22.744   2.051  51.884  1.00  0.00    -0.354 N 
HETATM   11  H5  UNL     1      25.484   2.459  49.948  1.00  0.00     0.162 HD
ENDROOT
BRANCH  10  12
HETATM   12  C16 UNL     1      22.272   0.687  52.158  1.00  0.00     0.156 A 
HETATM   13  C17 UNL     1      21.927   0.495  53.563  1.00  0.00     0.004 A 
HETATM   14  C18 UNL     1      20.772   0.160  54.113  1.00  0.00     0.001 A 
HETATM   15  C19 UNL     1      19.622  -0.068  53.249  1.00  0.00     0.043 A 
HETATM   16  C20 UNL     1      19.772   0.069  51.943  1.00  0.00     0.135 A 
HETATM   17  F1  UNL     1      18.757  -0.123  51.042  1.00  0.00    -0.205 F 
HETATM   18  C21 UNL     1      21.032   0.440  51.324  1.00  0.00     0.074 A 
HETATM   19  S1  UNL     1      21.235   0.623  49.712  1.00  0.00    -0.079 SA
ENDBRANCH  10  12
BRANCH   1  20
HETATM   20  C2  UNL     1      26.209   0.749  51.979  1.00  0.00    -0.007 C 
HETATM   21  C1  UNL     1      26.897  -0.350  52.336  1.00  0.00     0.011 C 
ENDBRANCH   1  20
BRANCH   7  22
HETATM   22  C9  UNL     1      21.907   6.594  51.147  1.00  0.00     0.036 C 
BRANCH  22  23
HETATM   23  C10 UNL     1      21.066   6.391  49.954  1.00  0.00    -0.024 C 
HETATM   24  C11 UNL     1      21.253   6.800  48.709  1.00  0.00    -0.091 C 
HETATM   25  C12 UNL     1      22.447   7.584  48.344  1.00  0.00     0.042 C 
HETATM   26  C13 UNL     1      20.199   6.421  47.730  1.00  0.00     0.042 C 
ENDBRANCH  22  23
ENDBRANCH   7  22
TORSDOF 4
ENDMDL
MODEL 8
REMARK VINA RESULT:      -6.9      5.833     10.940
REMARK  4 active torsions:
REMARK  status: ('A' for Active; 'I' for Inactive)
REMARK    1  A    between atoms: C2_2  and  C3_3 
REMARK    2  A    between atoms: C8_9  and  C9_10 
REMARK    3  A    between atoms: C9_10  and  C10_11 
REMARK    4  A    between atoms: N2_17  and  C16_18 
ROOT
HETATM    1  C3  UNL     1      28.316   5.095  48.403  1.00  0.00     0.047 C 
HETATM    2  C4  UNL     1      28.921   6.264  48.361  1.00  0.00     0.100 C 
HETATM    3  N1  UNL     1      28.281   7.366  48.983  1.00  0.00    -0.365 N 
HETATM    4  C5  UNL     1      28.360   8.822  48.826  1.00  0.00     0.136 A 
HETATM    5  C6  UNL     1      27.339   9.400  47.973  1.00  0.00     0.008 A 
HETATM    6  C7  UNL     1      28.528   9.147  47.432  1.00  0.00    -0.051 A 
HETATM    7  C8  UNL     1      29.591   9.080  46.363  1.00  0.00     0.021 C 
HETATM    8  C14 UNL     1      30.801   8.424  46.991  1.00  0.00     0.029 C 
HETATM    9  C15 UNL     1      30.913   6.962  46.696  1.00  0.00     0.126 C 
HETATM   10  N2  UNL     1      30.153   6.157  47.663  1.00  0.00    -0.354 N 
HETATM   11  H5  UNL     1      27.614   7.050  49.708  1.00  0.00     0.162 HD
ENDROOT
BRANCH  10  12
HETATM   12  C16 UNL     1      30.903   4.931  47.966  1.00  0.00     0.156 A 
HETATM   13  C17 UNL     1      31.262   4.190  46.760  1.00  0.00     0.004 A 
HETATM   14  C18 UNL     1      32.453   3.863  46.289  1.00  0.00     0.001 A 
HETATM   15  C19 UNL     1      33.638   4.270  47.033  1.00  0.00     0.043 A 
HETATM   16  C20 UNL     1      33.481   4.953  48.153  1.00  0.00     0.135 A 
HETATM   17  F1  UNL     1      34.527   5.383  48.929  1.00  0.00    -0.205 F 
HETATM   18  C21 UNL     1      32.180   5.323  48.681  1.00  0.00     0.074 A 
HETATM   19  S1  UNL     1      31.966   6.176  50.060  1.00  0.00    -0.079 SA
ENDBRANCH  10  12
BRANCH   1  20
HETATM   20  C2  UNL     1      27.106   4.465  48.913  1.00  0.00    -0.007 C 
HETATM   21  C1  UNL     1      26.740   3.357  49.583  1.00  0.00     0.011 C 
ENDBRANCH   1  20
BRANCH   7  22
HETATM   22  C9  UNL     1      29.961  10.525  45.998  1.00  0.00     0.036 C 
BRANCH  22  23
HETATM   23  C10 UNL     1      29.998  11.384  47.194  1.00  0.00    -0.024 C 
HETATM   24  C11 UNL     1      31.040  11.868  47.855  1.00  0.00    -0.091 C 
HETATM   25  C12 UNL     1      32.415  11.568  47.418  1.00  0.00     0.042 C 
HETATM   26  C13 UNL     1      30.729  12.715  49.038  1.00  0.00     0.042 C 
ENDBRANCH  22  23
ENDBRANCH   7  22
TORSDOF 4
ENDMDL
MODEL 9
REMARK VINA RESULT:      -6.8      2.870      6.916
REMARK  4 active torsions:
REMARK  status: ('A' for Active; 'I' for Inactive)
REMARK    1  A    between atoms: C2_2  and  C3_3 
REMARK    2  A    between atoms: C8_9  and  C9_10 
REMARK    3  A    between atoms: C9_10  and  C10_11 
REMARK    4  A    between atoms: N2_17  and  C16_18 
ROOT
HETATM    1  C3  UNL     1      22.310   6.648  49.469  1.00  0.00     0.047 C 
HETATM    2  C4  UNL     1      23.535   6.315  49.814  1.00  0.00     0.100 C 
HETATM    3  N1  UNL     1      24.427   7.354  50.183  1.00  0.00    -0.365 N 
HETATM    4  C5  UNL     1      25.887   7.492  50.217  1.00  0.00     0.136 A 
HETATM    5  C6  UNL     1      26.466   8.139  49.055  1.00  0.00     0.008 A 
HETATM    6  C7  UNL     1      26.460   6.808  49.085  1.00  0.00    -0.051 A 
HETATM    7  C8  UNL     1      26.710   5.398  48.608  1.00  0.00     0.021 C 
HETATM    8  C14 UNL     1      26.116   4.474  49.648  1.00  0.00     0.029 C 
HETATM    9  C15 UNL     1      24.751   3.974  49.298  1.00  0.00     0.126 C 
HETATM   10  N2  UNL     1      23.705   4.907  49.738  1.00  0.00    -0.354 N 
HETATM   11  H5  UNL     1      23.911   8.194  50.497  1.00  0.00     0.162 HD
ENDROOT
BRANCH  10  12
HETATM   12  C16 UNL     1      22.551   4.143  50.229  1.00  0.00     0.156 A 
HETATM   13  C17 UNL     1      22.218   3.022  49.354  1.00  0.00     0.004 A 
HETATM   14  C18 UNL     1      22.188   1.726  49.612  1.00  0.00     0.001 A 
HETATM   15  C19 UNL     1      22.528   1.269  50.953  1.00  0.00     0.043 A 
HETATM   16  C20 UNL     1      22.855   2.166  51.866  1.00  0.00     0.135 A 
HETATM   17  F1  UNL     1      23.190   1.843  53.156  1.00  0.00    -0.205 F 
HETATM   18  C21 UNL     1      22.896   3.592  51.597  1.00  0.00     0.074 A 
HETATM   19  S1  UNL     1      23.307   4.716  52.711  1.00  0.00    -0.079 SA
ENDBRANCH  10  12
BRANCH   1  20
HETATM   20  C2  UNL     1      21.453   7.817  49.318  1.00  0.00    -0.007 C 
HETATM   21  C1  UNL     1      20.367   8.365  49.892  1.00  0.00     0.011 C 
ENDBRANCH   1  20
BRANCH   7  22
HETATM   22  C9  UNL     1      28.230   5.188  48.587  1.00  0.00     0.036 C 
BRANCH  22  23
HETATM   23  C10 UNL     1      28.911   6.285  47.877  1.00  0.00    -0.024 C 
HETATM   24  C11 UNL     1      30.172   6.383  47.484  1.00  0.00    -0.091 C 
HETATM   25  C12 UNL     1      31.129   5.291  47.741  1.00  0.00     0.042 C 
HETATM   26  C13 UNL     1      30.544   7.641  46.783  1.00  0.00     0.042 C 
ENDBRANCH  22  23
ENDBRANCH   7  22
TORSDOF 4
ENDMDL
