MODEL 1
REMARK VINA RESULT:      -7.9      0.000      0.000
REMARK  6 active torsions:
REMARK  status: ('A' for Active; 'I' for Inactive)
REMARK    1  A    between atoms: N1_1  and  C1_2 
REMARK    2  A    between atoms: C1_2  and  N2_3 
REMARK    3  A    between atoms: N2_3  and  C2_4 
REMARK    4  A    between atoms: C2_4  and  C3_5 
REMARK    5  A    between atoms: C12_16  and  N5_17 
REMARK    6  A    between atoms: N5_17  and  C13_18 
ROOT
HETATM    1  C1  UNL     1      27.181   1.874  53.372  1.00  0.00     0.106 C 
HETATM    2  C9  UNL     1      27.789   0.710  53.385  1.00  0.00     0.051 A 
HETATM    3  C10 UNL     1      29.217   0.848  53.843  1.00  0.00     0.196 A 
HETATM    4  N3  UNL     1      29.814  -0.474  53.834  1.00  0.00    -0.278 NA
HETATM    5  C11 UNL     1      29.156  -1.528  53.478  1.00  0.00     0.229 A 
HETATM    6  N4  UNL     1      27.783  -1.626  53.042  1.00  0.00    -0.224 NA
HETATM    7  C12 UNL     1      27.095  -0.511  52.993  1.00  0.00     0.141 A 
ENDROOT
BRANCH   1   8
HETATM    8  N1  UNL     1      28.263   2.661  53.822  1.00  0.00    -0.385 N 
HETATM    9  H1  UNL     1      29.058   3.232  54.152  1.00  0.00     0.157 HD
HETATM   10  H2  UNL     1      29.283   2.685  54.080  1.00  0.00     0.157 HD
ENDBRANCH   1   8
BRANCH   1  11
HETATM   11  N2  UNL     1      26.093   2.748  53.171  1.00  0.00    -0.372 N 
HETATM   12  H3  UNL     1      25.674   3.183  54.045  1.00  0.00     0.161 HD
BRANCH  11  13
HETATM   13  C2  UNL     1      25.684   2.942  51.774  1.00  0.00     0.159 C 
BRANCH  13  14
HETATM   14  C3  UNL     1      24.249   2.607  51.579  1.00  0.00    -0.041 A 
HETATM   15  C4  UNL     1      23.386   2.766  52.669  1.00  0.00     0.009 A 
HETATM   16  C5  UNL     1      22.054   2.448  52.464  1.00  0.00     0.001 A 
HETATM   17  C6  UNL     1      21.500   1.991  51.290  1.00  0.00     0.000 A 
HETATM   18  C7  UNL     1      22.388   1.846  50.235  1.00  0.00     0.001 A 
HETATM   19  C8  UNL     1      23.725   2.149  50.385  1.00  0.00     0.009 A 
ENDBRANCH  13  14
ENDBRANCH  11  13
ENDBRANCH   1  11
BRANCH   7  20
HETATM   20  N5  UNL     1      25.760  -0.346  52.606  1.00  0.00    -0.344 N 
HETATM   21  H14 UNL     1      25.515  -0.007  51.650  1.00  0.00     0.167 HD
BRANCH  20  22
HETATM   22  C13 UNL     1      24.774  -0.668  53.603  1.00  0.00     0.016 A 
HETATM   23  C14 UNL     1      23.491  -0.781  53.264  1.00  0.00     0.049 A 
HETATM   24  C15 UNL     1      22.721  -1.114  54.470  1.00  0.00     0.032 A 
HETATM   25 CL1  UNL     1      20.982  -1.360  54.507  1.00  0.00    -0.085 Cl
HETATM   26  C16 UNL     1      23.568  -1.189  55.487  1.00  0.00     0.003 A 
HETATM   27  C17 UNL     1      24.972  -0.911  55.033  1.00  0.00     0.086 A 
ENDBRANCH  20  22
ENDBRANCH   7  20
TORSDOF 6
ENDMDL
MODEL 2
REMARK VINA RESULT:      -7.9      2.213      3.858
REMARK  6 active torsions:
REMARK  status: ('A' for Active; 'I' for Inactive)
REMARK    1  A    between atoms: N1_1  and  C1_2 
REMARK    2  A    between atoms: C1_2  and  N2_3 
REMARK    3  A    between atoms: N2_3  and  C2_4 
REMARK    4  A    between atoms: C2_4  and  C3_5 
REMARK    5  A    between atoms: C12_16  and  N5_17 
REMARK    6  A    between atoms: N5_17  and  C13_18 
ROOT
HETATM    1  C1  UNL     1      25.482  -0.256  53.690  1.00  0.00     0.106 C 
HETATM    2  C9  UNL     1      26.511   0.558  53.625  1.00  0.00     0.051 A 
HETATM    3  C10 UNL     1      27.439   0.354  54.794  1.00  0.00     0.196 A 
HETATM    4  N3  UNL     1      28.546   1.280  54.647  1.00  0.00    -0.278 NA
HETATM    5  C11 UNL     1      28.633   2.101  53.652  1.00  0.00     0.229 A 
HETATM    6  N4  UNL     1      27.722   2.273  52.546  1.00  0.00    -0.224 NA
HETATM    7  C12 UNL     1      26.660   1.505  52.527  1.00  0.00     0.141 A 
ENDROOT
BRANCH   1   8
HETATM    8  N1  UNL     1      25.832  -0.914  54.889  1.00  0.00    -0.385 N 
HETATM    9  H1  UNL     1      26.084  -1.392  55.769  1.00  0.00     0.157 HD
HETATM   10  H2  UNL     1      25.629  -1.036  55.914  1.00  0.00     0.157 HD
ENDBRANCH   1   8
BRANCH   1  11
HETATM   11  N2  UNL     1      24.268  -0.823  53.250  1.00  0.00    -0.372 N 
HETATM   12  H3  UNL     1      24.335  -1.496  52.432  1.00  0.00     0.161 HD
BRANCH  11  13
HETATM   13  C2  UNL     1      23.068  -0.404  53.986  1.00  0.00     0.159 C 
BRANCH  13  14
HETATM   14  C3  UNL     1      22.060   0.201  53.077  1.00  0.00    -0.041 A 
HETATM   15  C4  UNL     1      21.169   1.135  53.617  1.00  0.00     0.009 A 
HETATM   16  C5  UNL     1      20.238   1.686  52.751  1.00  0.00     0.001 A 
HETATM   17  C6  UNL     1      20.109   1.401  51.411  1.00  0.00     0.000 A 
HETATM   18  C7  UNL     1      21.011   0.471  50.914  1.00  0.00     0.001 A 
HETATM   19  C8  UNL     1      21.957  -0.107  51.734  1.00  0.00     0.009 A 
ENDBRANCH  13  14
ENDBRANCH  11  13
ENDBRANCH   1  11
BRANCH   7  20
HETATM   20  N5  UNL     1      25.638   1.481  51.571  1.00  0.00    -0.344 N 
HETATM   21  H14 UNL     1      25.636   0.775  50.802  1.00  0.00     0.167 HD
BRANCH  20  22
HETATM   22  C13 UNL     1      24.615   2.481  51.722  1.00  0.00     0.016 A 
HETATM   23  C14 UNL     1      23.861   2.831  50.681  1.00  0.00     0.049 A 
HETATM   24  C15 UNL     1      22.911   3.860  51.121  1.00  0.00     0.032 A 
HETATM   25 CL1  UNL     1      21.714   4.622  50.086  1.00  0.00    -0.085 Cl
HETATM   26  C16 UNL     1      23.127   4.091  52.409  1.00  0.00     0.003 A 
HETATM   27  C17 UNL     1      24.243   3.229  52.924  1.00  0.00     0.086 A 
ENDBRANCH  20  22
ENDBRANCH   7  20
TORSDOF 6
ENDMDL
MODEL 3
REMARK VINA RESULT:      -7.8      1.532      2.374
REMARK  6 active torsions:
REMARK  status: ('A' for Active; 'I' for Inactive)
REMARK    1  A    between atoms: N1_1  and  C1_2 
REMARK    2  A    between atoms: C1_2  and  N2_3 
REMARK    3  A    between atoms: N2_3  and  C2_4 
REMARK    4  A    between atoms: C2_4  and  C3_5 
REMARK    5  A    between atoms: C12_16  and  N5_17 
REMARK    6  A    between atoms: N5_17  and  C13_18 
ROOT
HETATM    1  C1  UNL     1      26.951   1.956  53.220  1.00  0.00     0.106 C 
HETATM    2  C9  UNL     1      27.610   0.823  53.304  1.00  0.00     0.051 A 
HETATM    3  C10 UNL     1      29.026   1.052  53.764  1.00  0.00     0.196 A 
HETATM    4  N3  UNL     1      29.682  -0.240  53.834  1.00  0.00    -0.278 NA
HETATM    5  C11 UNL     1      29.075  -1.341  53.535  1.00  0.00     0.229 A 
HETATM    6  N4  UNL     1      27.712  -1.526  53.095  1.00  0.00    -0.224 NA
HETATM    7  C12 UNL     1      26.976  -0.448  52.977  1.00  0.00     0.141 A 
ENDROOT
BRANCH   1   8
HETATM    8  N1  UNL     1      27.992   2.816  53.632  1.00  0.00    -0.385 N 
HETATM    9  H1  UNL     1      28.757   3.440  53.937  1.00  0.00     0.157 HD
HETATM   10  H2  UNL     1      28.922   2.898  54.117  1.00  0.00     0.157 HD
ENDBRANCH   1   8
BRANCH   1  11
HETATM   11  N2  UNL     1      25.827   2.768  52.962  1.00  0.00    -0.372 N 
HETATM   12  H3  UNL     1      25.549   3.442  53.734  1.00  0.00     0.161 HD
BRANCH  11  13
HETATM   13  C2  UNL     1      25.189   2.572  51.653  1.00  0.00     0.159 C 
BRANCH  13  14
HETATM   14  C3  UNL     1      25.629   3.603  50.677  1.00  0.00    -0.041 A 
HETATM   15  C4  UNL     1      24.868   4.773  50.575  1.00  0.00     0.009 A 
HETATM   16  C5  UNL     1      25.297   5.720  49.659  1.00  0.00     0.001 A 
HETATM   17  C6  UNL     1      26.399   5.618  48.842  1.00  0.00     0.000 A 
HETATM   18  C7  UNL     1      27.126   4.443  48.974  1.00  0.00     0.001 A 
HETATM   19  C8  UNL     1      26.742   3.469  49.871  1.00  0.00     0.009 A 
ENDBRANCH  13  14
ENDBRANCH  11  13
ENDBRANCH   1  11
BRANCH   7  20
HETATM   20  N5  UNL     1      25.639  -0.365  52.572  1.00  0.00    -0.344 N 
HETATM   21  H14 UNL     1      25.387  -0.087  51.599  1.00  0.00     0.167 HD
BRANCH  20  22
HETATM   22  C13 UNL     1      24.659  -0.683  53.577  1.00  0.00     0.016 A 
HETATM   23  C14 UNL     1      23.367  -0.746  53.257  1.00  0.00     0.049 A 
HETATM   24  C15 UNL     1      22.606  -1.087  54.465  1.00  0.00     0.032 A 
HETATM   25 CL1  UNL     1      20.861  -1.279  54.525  1.00  0.00    -0.085 Cl
HETATM   26  C16 UNL     1      23.467  -1.216  55.466  1.00  0.00     0.003 A 
HETATM   27  C17 UNL     1      24.871  -0.970  54.996  1.00  0.00     0.086 A 
ENDBRANCH  20  22
ENDBRANCH   7  20
TORSDOF 6
ENDMDL
MODEL 4
REMARK VINA RESULT:      -7.4      3.012      5.142
REMARK  6 active torsions:
REMARK  status: ('A' for Active; 'I' for Inactive)
REMARK    1  A    between atoms: N1_1  and  C1_2 
REMARK    2  A    between atoms: C1_2  and  N2_3 
REMARK    3  A    between atoms: N2_3  and  C2_4 
REMARK    4  A    between atoms: C2_4  and  C3_5 
REMARK    5  A    between atoms: C12_16  and  N5_17 
REMARK    6  A    between atoms: N5_17  and  C13_18 
ROOT
HETATM    1  C1  UNL     1      22.380   1.379  52.345  1.00  0.00     0.106 C 
HETATM    2  C9  UNL     1      22.531   0.481  53.291  1.00  0.00     0.051 A 
HETATM    3  C10 UNL     1      21.235   0.233  54.018  1.00  0.00     0.196 A 
HETATM    4  N3  UNL     1      21.484  -0.769  55.037  1.00  0.00    -0.278 NA
HETATM    5  C11 UNL     1      22.649  -1.299  55.216  1.00  0.00     0.229 A 
HETATM    6  N4  UNL     1      23.875  -1.037  54.500  1.00  0.00    -0.224 NA
HETATM    7  C12 UNL     1      23.822  -0.148  53.538  1.00  0.00     0.141 A 
ENDROOT
BRANCH   1   8
HETATM    8  N1  UNL     1      21.004   1.634  52.540  1.00  0.00    -0.385 N 
HETATM    9  H1  UNL     1      19.999   1.824  52.677  1.00  0.00     0.157 HD
HETATM   10  H2  UNL     1      20.154   2.158  52.210  1.00  0.00     0.157 HD
ENDBRANCH   1   8
BRANCH   1  11
HETATM   11  N2  UNL     1      22.802   2.202  51.282  1.00  0.00    -0.372 N 
HETATM   12  H3  UNL     1      22.648   1.819  50.303  1.00  0.00     0.161 HD
BRANCH  11  13
HETATM   13  C2  UNL     1      23.402   3.485  51.671  1.00  0.00     0.159 C 
BRANCH  13  14
HETATM   14  C3  UNL     1      24.543   3.839  50.785  1.00  0.00    -0.041 A 
HETATM   15  C4  UNL     1      25.583   2.913  50.656  1.00  0.00     0.009 A 
HETATM   16  C5  UNL     1      26.635   3.264  49.825  1.00  0.00     0.001 A 
HETATM   17  C6  UNL     1      26.752   4.437  49.117  1.00  0.00     0.000 A 
HETATM   18  C7  UNL     1      25.701   5.329  49.272  1.00  0.00     0.001 A 
HETATM   19  C8  UNL     1      24.629   5.028  50.087  1.00  0.00     0.009 A 
ENDBRANCH  13  14
ENDBRANCH  11  13
ENDBRANCH   1  11
BRANCH   7  20
HETATM   20  N5  UNL     1      24.866   0.276  52.707  1.00  0.00    -0.344 N 
HETATM   21  H14 UNL     1      24.679   0.616  51.739  1.00  0.00     0.167 HD
BRANCH  20  22
HETATM   22  C13 UNL     1      26.186   0.208  53.275  1.00  0.00     0.016 A 
HETATM   23  C14 UNL     1      27.060  -0.696  52.833  1.00  0.00     0.049 A 
HETATM   24  C15 UNL     1      28.312  -0.536  53.584  1.00  0.00     0.032 A 
HETATM   25 CL1  UNL     1      29.751  -1.513  53.342  1.00  0.00    -0.085 Cl
HETATM   26  C16 UNL     1      28.145   0.456  54.448  1.00  0.00     0.003 A 
HETATM   27  C17 UNL     1      26.764   1.033  54.337  1.00  0.00     0.086 A 
ENDBRANCH  20  22
ENDBRANCH   7  20
TORSDOF 6
ENDMDL
MODEL 5
REMARK VINA RESULT:      -7.4      3.437      5.895
REMARK  6 active torsions:
REMARK  status: ('A' for Active; 'I' for Inactive)
REMARK    1  A    between atoms: N1_1  and  C1_2 
REMARK    2  A    between atoms: C1_2  and  N2_3 
REMARK    3  A    between atoms: N2_3  and  C2_4 
REMARK    4  A    between atoms: C2_4  and  C3_5 
REMARK    5  A    between atoms: C12_16  and  N5_17 
REMARK    6  A    between atoms: N5_17  and  C13_18 
ROOT
HETATM    1  C1  UNL     1      23.111   4.853  52.047  1.00  0.00     0.106 C 
HETATM    2  C9  UNL     1      22.615   3.676  52.357  1.00  0.00     0.051 A 
HETATM    3  C10 UNL     1      21.134   3.623  52.089  1.00  0.00     0.196 A 
HETATM    4  N3  UNL     1      20.666   2.298  52.451  1.00  0.00    -0.278 NA
HETATM    5  C11 UNL     1      21.459   1.388  52.916  1.00  0.00     0.229 A 
HETATM    6  N4  UNL     1      22.879   1.473  53.163  1.00  0.00    -0.224 NA
HETATM    7  C12 UNL     1      23.462   2.614  52.886  1.00  0.00     0.141 A 
ENDROOT
BRANCH   1   8
HETATM    8  N1  UNL     1      21.913   5.456  51.606  1.00  0.00    -0.385 N 
HETATM    9  H1  UNL     1      21.036   5.892  51.278  1.00  0.00     0.157 HD
HETATM   10  H2  UNL     1      21.102   5.410  50.936  1.00  0.00     0.157 HD
ENDBRANCH   1   8
BRANCH   1  11
HETATM   11  N2  UNL     1      24.130   5.817  51.909  1.00  0.00    -0.372 N 
HETATM   12  H3  UNL     1      24.698   6.026  52.782  1.00  0.00     0.161 HD
BRANCH  11  13
HETATM   13  C2  UNL     1      24.269   6.407  50.571  1.00  0.00     0.159 C 
BRANCH  13  14
HETATM   14  C3  UNL     1      25.475   5.887  49.875  1.00  0.00    -0.041 A 
HETATM   15  C4  UNL     1      25.743   4.517  49.964  1.00  0.00     0.009 A 
HETATM   16  C5  UNL     1      26.872   4.056  49.306  1.00  0.00     0.001 A 
HETATM   17  C6  UNL     1      27.752   4.818  48.574  1.00  0.00     0.000 A 
HETATM   18  C7  UNL     1      27.452   6.170  48.510  1.00  0.00     0.001 A 
HETATM   19  C8  UNL     1      26.340   6.681  49.147  1.00  0.00     0.009 A 
ENDBRANCH  13  14
ENDBRANCH  11  13
ENDBRANCH   1  11
BRANCH   7  20
HETATM   20  N5  UNL     1      24.814   2.942  53.037  1.00  0.00    -0.344 N 
HETATM   21  H14 UNL     1      25.112   3.924  53.228  1.00  0.00     0.167 HD
BRANCH  20  22
HETATM   22  C13 UNL     1      25.742   1.850  52.909  1.00  0.00     0.016 A 
HETATM   23  C14 UNL     1      26.627   1.607  53.874  1.00  0.00     0.049 A 
HETATM   24  C15 UNL     1      27.436   0.446  53.479  1.00  0.00     0.032 A 
HETATM   25 CL1  UNL     1      28.733  -0.241  54.444  1.00  0.00    -0.085 Cl
HETATM   26  C16 UNL     1      27.007   0.035  52.293  1.00  0.00     0.003 A 
HETATM   27  C17 UNL     1      25.877   0.894  51.808  1.00  0.00     0.086 A 
ENDBRANCH  20  22
ENDBRANCH   7  20
TORSDOF 6
ENDMDL
MODEL 6
REMARK VINA RESULT:      -7.3      2.780      5.266
REMARK  6 active torsions:
REMARK  status: ('A' for Active; 'I' for Inactive)
REMARK    1  A    between atoms: N1_1  and  C1_2 
REMARK    2  A    between atoms: C1_2  and  N2_3 
REMARK    3  A    between atoms: N2_3  and  C2_4 
REMARK    4  A    between atoms: C2_4  and  C3_5 
REMARK    5  A    between atoms: C12_16  and  N5_17 
REMARK    6  A    between atoms: N5_17  and  C13_18 
ROOT
HETATM    1  C1  UNL     1      23.814   3.775  51.536  1.00  0.00     0.106 C 
HETATM    2  C9  UNL     1      24.890   3.863  50.787  1.00  0.00     0.051 A 
HETATM    3  C10 UNL     1      24.785   5.011  49.817  1.00  0.00     0.196 A 
HETATM    4  N3  UNL     1      26.006   5.043  49.035  1.00  0.00    -0.278 NA
HETATM    5  C11 UNL     1      26.963   4.192  49.212  1.00  0.00     0.229 A 
HETATM    6  N4  UNL     1      27.032   3.100  50.154  1.00  0.00    -0.224 NA
HETATM    7  C12 UNL     1      25.999   2.930  50.943  1.00  0.00     0.141 A 
ENDROOT
BRANCH   1   8
HETATM    8  N1  UNL     1      23.109   4.869  50.989  1.00  0.00    -0.385 N 
HETATM    9  H1  UNL     1      22.588   5.668  50.593  1.00  0.00     0.157 HD
HETATM   10  H2  UNL     1      22.250   5.473  51.042  1.00  0.00     0.157 HD
ENDBRANCH   1   8
BRANCH   1  11
HETATM   11  N2  UNL     1      22.998   3.223  52.544  1.00  0.00    -0.372 N 
HETATM   12  H3  UNL     1      23.114   3.632  53.517  1.00  0.00     0.161 HD
BRANCH  11  13
HETATM   13  C2  UNL     1      22.091   2.152  52.111  1.00  0.00     0.159 C 
BRANCH  13  14
HETATM   14  C3  UNL     1      22.132   0.997  53.047  1.00  0.00    -0.041 A 
HETATM   15  C4  UNL     1      23.360   0.356  53.241  1.00  0.00     0.009 A 
HETATM   16  C5  UNL     1      23.374  -0.717  54.118  1.00  0.00     0.001 A 
HETATM   17  C6  UNL     1      22.295  -1.209  54.815  1.00  0.00     0.000 A 
HETATM   18  C7  UNL     1      21.097  -0.546  54.595  1.00  0.00     0.001 A 
HETATM   19  C8  UNL     1      21.028   0.528  53.732  1.00  0.00     0.009 A 
ENDBRANCH  13  14
ENDBRANCH  11  13
ENDBRANCH   1  11
BRANCH   7  20
HETATM   20  N5  UNL     1      25.828   1.952  51.929  1.00  0.00    -0.344 N 
HETATM   21  H14 UNL     1      24.882   1.574  52.154  1.00  0.00     0.167 HD
BRANCH  20  22
HETATM   22  C13 UNL     1      27.026   1.517  52.596  1.00  0.00     0.016 A 
HETATM   23  C14 UNL     1      27.388   0.236  52.556  1.00  0.00     0.049 A 
HETATM   24  C15 UNL     1      28.637   0.083  53.313  1.00  0.00     0.032 A 
HETATM   25 CL1  UNL     1      29.490  -1.436  53.535  1.00  0.00    -0.085 Cl
HETATM   26  C16 UNL     1      28.980   1.276  53.779  1.00  0.00     0.003 A 
HETATM   27  C17 UNL     1      27.981   2.317  53.365  1.00  0.00     0.086 A 
ENDBRANCH  20  22
ENDBRANCH   7  20
TORSDOF 6
ENDMDL
MODEL 7
REMARK VINA RESULT:      -7.3      2.375      5.707
REMARK  6 active torsions:
REMARK  status: ('A' for Active; 'I' for Inactive)
REMARK    1  A    between atoms: N1_1  and  C1_2 
REMARK    2  A    between atoms: C1_2  and  N2_3 
REMARK    3  A    between atoms: N2_3  and  C2_4 
REMARK    4  A    between atoms: C2_4  and  C3_5 
REMARK    5  A    between atoms: C12_16  and  N5_17 
REMARK    6  A    between atoms: N5_17  and  C13_18 
ROOT
HETATM    1  C1  UNL     1      23.956   3.566  52.549  1.00  0.00     0.106 C 
HETATM    2  C9  UNL     1      22.807   3.664  51.920  1.00  0.00     0.051 A 
HETATM    3  C10 UNL     1      22.295   5.080  51.940  1.00  0.00     0.196 A 
HETATM    4  N3  UNL     1      21.033   5.105  51.225  1.00  0.00    -0.278 NA
HETATM    5  C11 UNL     1      20.516   4.044  50.698  1.00  0.00     0.229 A 
HETATM    6  N4  UNL     1      21.033   2.696  50.698  1.00  0.00    -0.224 NA
HETATM    7  C12 UNL     1      22.177   2.500  51.308  1.00  0.00     0.141 A 
ENDROOT
BRANCH   1   8
HETATM    8  N1  UNL     1      24.089   4.922  52.918  1.00  0.00    -0.385 N 
HETATM    9  H1  UNL     1      24.192   5.915  53.185  1.00  0.00     0.157 HD
HETATM   10  H2  UNL     1      24.611   5.823  52.774  1.00  0.00     0.157 HD
ENDBRANCH   1   8
BRANCH   1  11
HETATM   11  N2  UNL     1      25.092   2.893  53.043  1.00  0.00    -0.372 N 
HETATM   12  H3  UNL     1      25.119   2.728  54.091  1.00  0.00     0.161 HD
BRANCH  11  13
HETATM   13  C2  UNL     1      26.090   2.509  52.036  1.00  0.00     0.159 C 
BRANCH  13  14
HETATM   14  C3  UNL     1      27.050   1.512  52.579  1.00  0.00    -0.041 A 
HETATM   15  C4  UNL     1      28.182   1.990  53.248  1.00  0.00     0.009 A 
HETATM   16  C5  UNL     1      29.061   1.043  53.746  1.00  0.00     0.001 A 
HETATM   17  C6  UNL     1      28.926  -0.322  53.644  1.00  0.00     0.000 A 
HETATM   18  C7  UNL     1      27.791  -0.756  52.974  1.00  0.00     0.001 A 
HETATM   19  C8  UNL     1      26.883   0.146  52.460  1.00  0.00     0.009 A 
ENDBRANCH  13  14
ENDBRANCH  11  13
ENDBRANCH   1  11
BRANCH   7  20
HETATM   20  N5  UNL     1      22.878   1.296  51.444  1.00  0.00    -0.344 N 
HETATM   21  H14 UNL     1      23.668   1.057  50.805  1.00  0.00     0.167 HD
BRANCH  20  22
HETATM   22  C13 UNL     1      22.437   0.431  52.507  1.00  0.00     0.016 A 
HETATM   23  C14 UNL     1      23.299   0.015  53.433  1.00  0.00     0.049 A 
HETATM   24  C15 UNL     1      22.581  -0.845  54.382  1.00  0.00     0.032 A 
HETATM   25 CL1  UNL     1      23.313  -1.623  55.775  1.00  0.00    -0.085 Cl
HETATM   26  C16 UNL     1      21.315  -0.914  53.992  1.00  0.00     0.003 A 
HETATM   27  C17 UNL     1      21.096  -0.102  52.749  1.00  0.00     0.086 A 
ENDBRANCH  20  22
ENDBRANCH   7  20
TORSDOF 6
ENDMDL
MODEL 8
REMARK VINA RESULT:      -7.2      3.191      4.954
REMARK  6 active torsions:
REMARK  status: ('A' for Active; 'I' for Inactive)
REMARK    1  A    between atoms: N1_1  and  C1_2 
REMARK    2  A    between atoms: C1_2  and  N2_3 
REMARK    3  A    between atoms: N2_3  and  C2_4 
REMARK    4  A    between atoms: C2_4  and  C3_5 
REMARK    5  A    between atoms: C12_16  and  N5_17 
REMARK    6  A    between atoms: N5_17  and  C13_18 
ROOT
HETATM    1  C1  UNL     1      26.293   2.134  52.200  1.00  0.00     0.106 C 
HETATM    2  C9  UNL     1      25.657   1.165  52.818  1.00  0.00     0.051 A 
HETATM    3  C10 UNL     1      26.623   0.170  53.406  1.00  0.00     0.196 A 
HETATM    4  N3  UNL     1      25.847  -0.860  54.072  1.00  0.00    -0.278 NA
HETATM    5  C11 UNL     1      24.555  -0.841  54.101  1.00  0.00     0.229 A 
HETATM    6  N4  UNL     1      23.656   0.131  53.524  1.00  0.00    -0.224 NA
HETATM    7  C12 UNL     1      24.201   1.135  52.881  1.00  0.00     0.141 A 
ENDROOT
BRANCH   1   8
HETATM    8  N1  UNL     1      27.610   1.685  52.441  1.00  0.00    -0.385 N 
HETATM    9  H1  UNL     1      28.573   1.360  52.623  1.00  0.00     0.157 HD
HETATM   10  H2  UNL     1      28.426   1.676  53.105  1.00  0.00     0.157 HD
ENDBRANCH   1   8
BRANCH   1  11
HETATM   11  N2  UNL     1      26.397   3.329  51.459  1.00  0.00    -0.372 N 
HETATM   12  H3  UNL     1      26.363   4.231  52.018  1.00  0.00     0.161 HD
BRANCH  11  13
HETATM   13  C2  UNL     1      26.539   3.165  50.006  1.00  0.00     0.159 C 
BRANCH  13  14
HETATM   14  C3  UNL     1      26.577   4.480  49.314  1.00  0.00    -0.041 A 
HETATM   15  C4  UNL     1      27.795   4.895  48.765  1.00  0.00     0.009 A 
HETATM   16  C5  UNL     1      27.806   6.124  48.125  1.00  0.00     0.001 A 
HETATM   17  C6  UNL     1      26.734   6.973  47.979  1.00  0.00     0.000 A 
HETATM   18  C7  UNL     1      25.545   6.525  48.538  1.00  0.00     0.001 A 
HETATM   19  C8  UNL     1      25.480   5.309  49.186  1.00  0.00     0.009 A 
ENDBRANCH  13  14
ENDBRANCH  11  13
ENDBRANCH   1  11
BRANCH   7  20
HETATM   20  N5  UNL     1      23.550   2.195  52.241  1.00  0.00    -0.344 N 
HETATM   21  H14 UNL     1      23.591   3.164  52.626  1.00  0.00     0.167 HD
BRANCH  20  22
HETATM   22  C13 UNL     1      22.834   1.857  51.039  1.00  0.00     0.016 A 
HETATM   23  C14 UNL     1      23.107   2.487  49.898  1.00  0.00     0.049 A 
HETATM   24  C15 UNL     1      22.234   1.944  48.849  1.00  0.00     0.032 A 
HETATM   25 CL1  UNL     1      22.239   2.473  47.174  1.00  0.00    -0.085 Cl
HETATM   26  C16 UNL     1      21.471   1.008  49.397  1.00  0.00     0.003 A 
HETATM   27  C17 UNL     1      21.780   0.858  50.858  1.00  0.00     0.086 A 
ENDBRANCH  20  22
ENDBRANCH   7  20
TORSDOF 6
ENDMDL
MODEL 9
REMARK VINA RESULT:      -7.2      3.698      5.945
REMARK  6 active torsions:
REMARK  status: ('A' for Active; 'I' for Inactive)
REMARK    1  A    between atoms: N1_1  and  C1_2 
REMARK    2  A    between atoms: C1_2  and  N2_3 
REMARK    3  A    between atoms: N2_3  and  C2_4 
REMARK    4  A    between atoms: C2_4  and  C3_5 
REMARK    5  A    between atoms: C12_16  and  N5_17 
REMARK    6  A    between atoms: N5_17  and  C13_18 
ROOT
HETATM    1  C1  UNL     1      24.475   4.130  51.362  1.00  0.00     0.106 C 
HETATM    2  C9  UNL     1      23.306   3.629  51.690  1.00  0.00     0.051 A 
HETATM    3  C10 UNL     1      22.308   4.722  51.972  1.00  0.00     0.196 A 
HETATM    4  N3  UNL     1      21.049   4.091  52.320  1.00  0.00    -0.278 NA
HETATM    5  C11 UNL     1      20.905   2.807  52.357  1.00  0.00     0.229 A 
HETATM    6  N4  UNL     1      21.887   1.784  52.082  1.00  0.00    -0.224 NA
HETATM    7  C12 UNL     1      23.088   2.189  51.749  1.00  0.00     0.141 A 
ENDROOT
BRANCH   1   8
HETATM    8  N1  UNL     1      24.134   5.496  51.457  1.00  0.00    -0.385 N 
HETATM    9  H1  UNL     1      23.882   6.496  51.521  1.00  0.00     0.157 HD
HETATM   10  H2  UNL     1      23.663   6.317  50.997  1.00  0.00     0.157 HD
ENDBRANCH   1   8
BRANCH   1  11
HETATM   11  N2  UNL     1      25.831   4.072  50.979  1.00  0.00    -0.372 N 
HETATM   12  H3  UNL     1      26.543   4.199  51.757  1.00  0.00     0.161 HD
BRANCH  11  13
HETATM   13  C2  UNL     1      26.078   3.844  49.549  1.00  0.00     0.159 C 
BRANCH  13  14
HETATM   14  C3  UNL     1      26.736   5.018  48.920  1.00  0.00    -0.041 A 
HETATM   15  C4  UNL     1      28.099   4.921  48.618  1.00  0.00     0.009 A 
HETATM   16  C5  UNL     1      28.691   6.028  48.032  1.00  0.00     0.001 A 
HETATM   17  C6  UNL     1      28.065   7.212  47.718  1.00  0.00     0.000 A 
HETATM   18  C7  UNL     1      26.715   7.268  48.033  1.00  0.00     0.001 A 
HETATM   19  C8  UNL     1      26.077   6.194  48.618  1.00  0.00     0.009 A 
ENDBRANCH  13  14
ENDBRANCH  11  13
ENDBRANCH   1  11
BRANCH   7  20
HETATM   20  N5  UNL     1      24.202   1.400  51.438  1.00  0.00    -0.344 N 
HETATM   21  H14 UNL     1      24.551   1.324  50.457  1.00  0.00     0.167 HD
BRANCH  20  22
HETATM   22  C13 UNL     1      24.813   0.715  52.545  1.00  0.00     0.016 A 
HETATM   23  C14 UNL     1      26.072   0.985  52.887  1.00  0.00     0.049 A 
HETATM   24  C15 UNL     1      26.429   0.147  54.039  1.00  0.00     0.032 A 
HETATM   25 CL1  UNL     1      27.994   0.161  54.836  1.00  0.00    -0.085 Cl
HETATM   26  C16 UNL     1      25.374  -0.594  54.347  1.00  0.00     0.003 A 
HETATM   27  C17 UNL     1      24.230  -0.304  53.419  1.00  0.00     0.086 A 
ENDBRANCH  20  22
ENDBRANCH   7  20
TORSDOF 6
ENDMDL
