MODEL 1
REMARK VINA RESULT:      -6.8      0.000      0.000
REMARK  12 active torsions:
REMARK  status: ('A' for Active; 'I' for Inactive)
REMARK    1  A    between atoms: O1_2  and  C2_3 
REMARK    2  A    between atoms: C2_3  and  C3_5 
REMARK    3  A    between atoms: C3_5  and  C4_6 
REMARK    4  A    between atoms: C4_6  and  C5_7 
REMARK    5  A    between atoms: C5_7  and  C6_8 
REMARK    6  A    between atoms: C6_8  and  C7_9 
REMARK    7  A    between atoms: C7_9  and  O4_11 
REMARK    8  A    between atoms: N1_19  and  C15_20 
REMARK    9  A    between atoms: C15_20  and  C16_21 
REMARK   10  A    between atoms: C16_21  and  C17_22 
REMARK   11  A    between atoms: C17_22  and  O5_23 
REMARK   12  A    between atoms: C17_22  and  C18_24 
ROOT
HETATM    1  C5  UNL     1      23.404   1.906  52.272  1.00  0.00     0.018 C 
HETATM    2  C9  UNL     1      22.635   0.964  53.080  1.00  0.00    -0.020 A 
HETATM    3  C10 UNL     1      21.275   0.991  53.354  1.00  0.00     0.010 A 
HETATM    4  C11 UNL     1      20.784  -0.016  54.159  1.00  0.00     0.001 A 
HETATM    5  C12 UNL     1      21.573  -1.016  54.683  1.00  0.00     0.002 A 
HETATM    6  C13 UNL     1      22.914  -0.981  54.371  1.00  0.00     0.030 A 
HETATM    7  C14 UNL     1      23.494   0.003  53.563  1.00  0.00     0.037 A 
HETATM    8  N1  UNL     1      24.830   0.272  53.083  1.00  0.00    -0.375 N 
HETATM    9  C19 UNL     1      24.823   1.653  52.636  1.00  0.00     0.094 C 
HETATM   10  C20 UNL     1      25.378   2.492  53.750  1.00  0.00     0.033 C 
ENDROOT
BRANCH   1  11
HETATM   11  C4  UNL     1      23.311   1.660  50.774  1.00  0.00     0.027 C 
BRANCH  11  12
HETATM   12  C3  UNL     1      21.966   1.243  50.296  1.00  0.00     0.112 C 
BRANCH  12  13
HETATM   13  C2  UNL     1      21.779   1.932  48.965  1.00  0.00     0.258 C 
HETATM   14  O2  UNL     1      20.759   1.830  48.235  1.00  0.00    -0.265 OA
BRANCH  13  15
HETATM   15  O1  UNL     1      22.727   2.764  48.393  1.00  0.00    -0.326 OA
HETATM   16  C1  UNL     1      22.396   3.980  47.749  1.00  0.00     0.213 C 
ENDBRANCH  13  15
ENDBRANCH  12  13
ENDBRANCH  11  12
ENDBRANCH   1  11
BRANCH   1  17
HETATM   17  C6  UNL     1      22.937   3.337  52.455  1.00  0.00     0.127 C 
BRANCH  17  18
HETATM   18  C7  UNL     1      23.544   4.283  51.491  1.00  0.00     0.259 C 
HETATM   19  O3  UNL     1      24.296   4.906  50.700  1.00  0.00    -0.265 OA
BRANCH  18  20
HETATM   20  O4  UNL     1      22.632   5.275  51.166  1.00  0.00    -0.326 OA
HETATM   21  C8  UNL     1      21.234   5.093  51.091  1.00  0.00     0.213 C 
ENDBRANCH  18  20
ENDBRANCH  17  18
ENDBRANCH   1  17
BRANCH   8  22
HETATM   22  C15 UNL     1      25.784  -0.806  53.154  1.00  0.00     0.126 C 
BRANCH  22  23
HETATM   23  C16 UNL     1      27.122  -0.530  52.559  1.00  0.00     0.053 C 
BRANCH  23  24
HETATM   24  C17 UNL     1      28.142  -0.587  53.713  1.00  0.00     0.135 C 
BRANCH  24  25
HETATM   25  O5  UNL     1      27.498  -0.375  54.930  1.00  0.00    -0.394 OA
HETATM   26  H22 UNL     1      28.184  -0.225  55.622  1.00  0.00     0.210 HD
ENDBRANCH  24  25
BRANCH  24  27
HETATM   27  C18 UNL     1      29.205   0.429  53.475  1.00  0.00     0.210 C 
HETATM   28  S1  UNL     1      29.012   1.753  53.994  1.00  0.00    -0.194 SA
ENDBRANCH  24  27
ENDBRANCH  23  24
ENDBRANCH  22  23
ENDBRANCH   8  22
TORSDOF 12
ENDMDL
MODEL 2
REMARK VINA RESULT:      -6.8      1.525      1.908
REMARK  12 active torsions:
REMARK  status: ('A' for Active; 'I' for Inactive)
REMARK    1  A    between atoms: O1_2  and  C2_3 
REMARK    2  A    between atoms: C2_3  and  C3_5 
REMARK    3  A    between atoms: C3_5  and  C4_6 
REMARK    4  A    between atoms: C4_6  and  C5_7 
REMARK    5  A    between atoms: C5_7  and  C6_8 
REMARK    6  A    between atoms: C6_8  and  C7_9 
REMARK    7  A    between atoms: C7_9  and  O4_11 
REMARK    8  A    between atoms: N1_19  and  C15_20 
REMARK    9  A    between atoms: C15_20  and  C16_21 
REMARK   10  A    between atoms: C16_21  and  C17_22 
REMARK   11  A    between atoms: C17_22  and  O5_23 
REMARK   12  A    between atoms: C17_22  and  C18_24 
ROOT
HETATM    1  C5  UNL     1      22.625   1.860  52.134  1.00  0.00     0.018 C 
HETATM    2  C9  UNL     1      22.425   0.821  53.139  1.00  0.00    -0.020 A 
HETATM    3  C10 UNL     1      21.248   0.485  53.793  1.00  0.00     0.010 A 
HETATM    4  C11 UNL     1      21.321  -0.537  54.716  1.00  0.00     0.001 A 
HETATM    5  C12 UNL     1      22.486  -1.216  55.001  1.00  0.00     0.002 A 
HETATM    6  C13 UNL     1      23.616  -0.830  54.315  1.00  0.00     0.030 A 
HETATM    7  C14 UNL     1      23.630   0.196  53.363  1.00  0.00     0.037 A 
HETATM    8  N1  UNL     1      24.640   0.787  52.516  1.00  0.00    -0.375 N 
HETATM    9  C19 UNL     1      24.097   2.059  52.075  1.00  0.00     0.094 C 
HETATM   10  C20 UNL     1      24.655   3.124  52.973  1.00  0.00     0.033 C 
ENDROOT
BRANCH   1  11
HETATM   11  C4  UNL     1      22.206   1.454  50.729  1.00  0.00     0.027 C 
BRANCH  11  12
HETATM   12  C3  UNL     1      22.932   2.157  49.638  1.00  0.00     0.112 C 
BRANCH  12  13
HETATM   13  C2  UNL     1      21.924   2.332  48.527  1.00  0.00     0.258 C 
HETATM   14  O2  UNL     1      22.180   2.786  47.383  1.00  0.00    -0.265 OA
BRANCH  13  15
HETATM   15  O1  UNL     1      20.583   2.007  48.653  1.00  0.00    -0.326 OA
HETATM   16  C1  UNL     1      19.548   2.772  48.065  1.00  0.00     0.213 C 
ENDBRANCH  13  15
ENDBRANCH  12  13
ENDBRANCH  11  12
ENDBRANCH   1  11
BRANCH   1  17
HETATM   17  C6  UNL     1      21.817   3.110  52.428  1.00  0.00     0.127 C 
BRANCH  17  18
HETATM   18  C7  UNL     1      20.392   2.995  52.043  1.00  0.00     0.259 C 
HETATM   19  O3  UNL     1      19.198   2.644  51.872  1.00  0.00    -0.265 OA
BRANCH  18  20
HETATM   20  O4  UNL     1      20.023   4.086  51.270  1.00  0.00    -0.326 OA
HETATM   21  C8  UNL     1      20.895   5.121  50.867  1.00  0.00     0.213 C 
ENDBRANCH  18  20
ENDBRANCH  17  18
ENDBRANCH   1  17
BRANCH   8  22
HETATM   22  C15 UNL     1      25.856   0.037  52.321  1.00  0.00     0.126 C 
BRANCH  22  23
HETATM   23  C16 UNL     1      27.098   0.663  52.854  1.00  0.00     0.053 C 
BRANCH  23  24
HETATM   24  C17 UNL     1      27.294   0.114  54.282  1.00  0.00     0.135 C 
BRANCH  24  25
HETATM   25  O5  UNL     1      26.645   0.933  55.202  1.00  0.00    -0.394 OA
HETATM   26  H22 UNL     1      25.679   0.920  55.001  1.00  0.00     0.210 HD
ENDBRANCH  24  25
BRANCH  24  27
HETATM   27  C18 UNL     1      28.753   0.018  54.571  1.00  0.00     0.210 C 
HETATM   28  S1  UNL     1      29.583  -0.714  53.657  1.00  0.00    -0.194 SA
ENDBRANCH  24  27
ENDBRANCH  23  24
ENDBRANCH  22  23
ENDBRANCH   8  22
TORSDOF 12
ENDMDL
MODEL 3
REMARK VINA RESULT:      -6.3      2.621      5.446
REMARK  12 active torsions:
REMARK  status: ('A' for Active; 'I' for Inactive)
REMARK    1  A    between atoms: O1_2  and  C2_3 
REMARK    2  A    between atoms: C2_3  and  C3_5 
REMARK    3  A    between atoms: C3_5  and  C4_6 
REMARK    4  A    between atoms: C4_6  and  C5_7 
REMARK    5  A    between atoms: C5_7  and  C6_8 
REMARK    6  A    between atoms: C6_8  and  C7_9 
REMARK    7  A    between atoms: C7_9  and  O4_11 
REMARK    8  A    between atoms: N1_19  and  C15_20 
REMARK    9  A    between atoms: C15_20  and  C16_21 
REMARK   10  A    between atoms: C16_21  and  C17_22 
REMARK   11  A    between atoms: C17_22  and  O5_23 
REMARK   12  A    between atoms: C17_22  and  C18_24 
ROOT
HETATM    1  C5  UNL     1      24.270   2.917  51.076  1.00  0.00     0.018 C 
HETATM    2  C9  UNL     1      23.329   2.440  50.068  1.00  0.00    -0.020 A 
HETATM    3  C10 UNL     1      23.407   2.592  48.691  1.00  0.00     0.010 A 
HETATM    4  C11 UNL     1      22.377   2.055  47.947  1.00  0.00     0.001 A 
HETATM    5  C12 UNL     1      21.308   1.391  48.507  1.00  0.00     0.002 A 
HETATM    6  C13 UNL     1      21.294   1.277  49.879  1.00  0.00     0.030 A 
HETATM    7  C14 UNL     1      22.297   1.792  50.709  1.00  0.00     0.037 A 
HETATM    8  N1  UNL     1      22.532   1.812  52.134  1.00  0.00    -0.375 N 
HETATM    9  C19 UNL     1      23.525   2.847  52.360  1.00  0.00     0.094 C 
HETATM   10  C20 UNL     1      22.794   4.094  52.767  1.00  0.00     0.033 C 
ENDROOT
BRANCH   1  11
HETATM   11  C4  UNL     1      25.491   2.026  51.258  1.00  0.00     0.027 C 
BRANCH  11  12
HETATM   12  C3  UNL     1      25.666   1.487  52.632  1.00  0.00     0.112 C 
BRANCH  12  13
HETATM   13  C2  UNL     1      27.070   1.867  53.040  1.00  0.00     0.258 C 
HETATM   14  O2  UNL     1      27.918   2.415  52.290  1.00  0.00    -0.265 OA
BRANCH  13  15
HETATM   15  O1  UNL     1      27.584   1.647  54.308  1.00  0.00    -0.326 OA
HETATM   16  C1  UNL     1      28.297   0.476  54.656  1.00  0.00     0.213 C 
ENDBRANCH  13  15
ENDBRANCH  12  13
ENDBRANCH  11  12
ENDBRANCH   1  11
BRANCH   1  17
HETATM   17  C6  UNL     1      24.839   4.281  50.734  1.00  0.00     0.127 C 
BRANCH  17  18
HETATM   18  C7  UNL     1      26.068   4.218  49.910  1.00  0.00     0.259 C 
HETATM   19  O3  UNL     1      27.188   3.953  49.407  1.00  0.00    -0.265 OA
BRANCH  18  20
HETATM   20  O4  UNL     1      25.989   5.136  48.874  1.00  0.00    -0.326 OA
HETATM   21  C8  UNL     1      26.901   6.193  48.661  1.00  0.00     0.213 C 
ENDBRANCH  18  20
ENDBRANCH  17  18
ENDBRANCH   1  17
BRANCH   8  22
HETATM   22  C15 UNL     1      21.787   0.875  52.936  1.00  0.00     0.126 C 
BRANCH  22  23
HETATM   23  C16 UNL     1      22.213  -0.549  52.835  1.00  0.00     0.053 C 
BRANCH  23  24
HETATM   24  C17 UNL     1      21.579  -1.288  54.031  1.00  0.00     0.135 C 
BRANCH  24  25
HETATM   25  O5  UNL     1      20.251  -0.895  54.185  1.00  0.00    -0.394 OA
HETATM   26  H22 UNL     1      20.177  -0.379  55.021  1.00  0.00     0.210 HD
ENDBRANCH  24  25
BRANCH  24  27
HETATM   27  C18 UNL     1      22.377  -1.005  55.257  1.00  0.00     0.210 C 
HETATM   28  S1  UNL     1      23.778  -1.313  55.244  1.00  0.00    -0.194 SA
ENDBRANCH  24  27
ENDBRANCH  23  24
ENDBRANCH  22  23
ENDBRANCH   8  22
TORSDOF 12
ENDMDL
MODEL 4
REMARK VINA RESULT:      -6.2      2.189      3.005
REMARK  12 active torsions:
REMARK  status: ('A' for Active; 'I' for Inactive)
REMARK    1  A    between atoms: O1_2  and  C2_3 
REMARK    2  A    between atoms: C2_3  and  C3_5 
REMARK    3  A    between atoms: C3_5  and  C4_6 
REMARK    4  A    between atoms: C4_6  and  C5_7 
REMARK    5  A    between atoms: C5_7  and  C6_8 
REMARK    6  A    between atoms: C6_8  and  C7_9 
REMARK    7  A    between atoms: C7_9  and  O4_11 
REMARK    8  A    between atoms: N1_19  and  C15_20 
REMARK    9  A    between atoms: C15_20  and  C16_21 
REMARK   10  A    between atoms: C16_21  and  C17_22 
REMARK   11  A    between atoms: C17_22  and  O5_23 
REMARK   12  A    between atoms: C17_22  and  C18_24 
ROOT
HETATM    1  C5  UNL     1      23.460   2.916  51.230  1.00  0.00     0.018 C 
HETATM    2  C9  UNL     1      22.951   1.643  51.730  1.00  0.00    -0.020 A 
HETATM    3  C10 UNL     1      21.864   0.918  51.261  1.00  0.00     0.010 A 
HETATM    4  C11 UNL     1      21.577  -0.262  51.915  1.00  0.00     0.001 A 
HETATM    5  C12 UNL     1      22.310  -0.732  52.983  1.00  0.00     0.002 A 
HETATM    6  C13 UNL     1      23.375   0.038  53.395  1.00  0.00     0.030 A 
HETATM    7  C14 UNL     1      23.736   1.247  52.789  1.00  0.00     0.037 A 
HETATM    8  N1  UNL     1      24.776   2.226  53.006  1.00  0.00    -0.375 N 
HETATM    9  C19 UNL     1      24.346   3.425  52.311  1.00  0.00     0.094 C 
HETATM   10  C20 UNL     1      23.701   4.328  53.321  1.00  0.00     0.033 C 
ENDROOT
BRANCH   1  11
HETATM   11  C4  UNL     1      24.342   2.792  49.997  1.00  0.00     0.027 C 
BRANCH  11  12
HETATM   12  C3  UNL     1      24.871   4.082  49.480  1.00  0.00     0.112 C 
BRANCH  12  13
HETATM   13  C2  UNL     1      26.373   3.923  49.456  1.00  0.00     0.258 C 
HETATM   14  O2  UNL     1      27.020   3.061  50.105  1.00  0.00    -0.265 OA
BRANCH  13  15
HETATM   15  O1  UNL     1      27.216   4.726  48.705  1.00  0.00    -0.326 OA
HETATM   16  C1  UNL     1      27.010   6.117  48.543  1.00  0.00     0.213 C 
ENDBRANCH  13  15
ENDBRANCH  12  13
ENDBRANCH  11  12
ENDBRANCH   1  11
BRANCH   1  17
HETATM   17  C6  UNL     1      22.347   3.858  50.812  1.00  0.00     0.127 C 
BRANCH  17  18
HETATM   18  C7  UNL     1      21.159   3.794  51.693  1.00  0.00     0.259 C 
HETATM   19  O3  UNL     1      20.355   3.685  52.652  1.00  0.00    -0.265 OA
BRANCH  18  20
HETATM   20  O4  UNL     1      20.009   4.017  50.952  1.00  0.00    -0.326 OA
HETATM   21  C8  UNL     1      18.703   3.677  51.365  1.00  0.00     0.213 C 
ENDBRANCH  18  20
ENDBRANCH  17  18
ENDBRANCH   1  17
BRANCH   8  22
HETATM   22  C15 UNL     1      25.908   1.818  53.800  1.00  0.00     0.126 C 
BRANCH  22  23
HETATM   23  C16 UNL     1      26.988   1.097  53.068  1.00  0.00     0.053 C 
BRANCH  23  24
HETATM   24  C17 UNL     1      27.101  -0.300  53.708  1.00  0.00     0.135 C 
BRANCH  24  25
HETATM   25  O5  UNL     1      27.098  -0.191  55.097  1.00  0.00    -0.394 OA
HETATM   26  H22 UNL     1      28.005   0.062  55.389  1.00  0.00     0.210 HD
ENDBRANCH  24  25
BRANCH  24  27
HETATM   27  C18 UNL     1      28.342  -0.963  53.216  1.00  0.00     0.210 C 
HETATM   28  S1  UNL     1      29.604  -0.517  53.734  1.00  0.00    -0.194 SA
ENDBRANCH  24  27
ENDBRANCH  23  24
ENDBRANCH  22  23
ENDBRANCH   8  22
TORSDOF 12
ENDMDL
MODEL 5
REMARK VINA RESULT:      -6.2      2.772      6.122
REMARK  12 active torsions:
REMARK  status: ('A' for Active; 'I' for Inactive)
REMARK    1  A    between atoms: O1_2  and  C2_3 
REMARK    2  A    between atoms: C2_3  and  C3_5 
REMARK    3  A    between atoms: C3_5  and  C4_6 
REMARK    4  A    between atoms: C4_6  and  C5_7 
REMARK    5  A    between atoms: C5_7  and  C6_8 
REMARK    6  A    between atoms: C6_8  and  C7_9 
REMARK    7  A    between atoms: C7_9  and  O4_11 
REMARK    8  A    between atoms: N1_19  and  C15_20 
REMARK    9  A    between atoms: C15_20  and  C16_21 
REMARK   10  A    between atoms: C16_21  and  C17_22 
REMARK   11  A    between atoms: C17_22  and  O5_23 
REMARK   12  A    between atoms: C17_22  and  C18_24 
ROOT
HETATM    1  C5  UNL     1      24.608   1.292  52.686  1.00  0.00     0.018 C 
HETATM    2  C9  UNL     1      23.888   2.561  52.698  1.00  0.00    -0.020 A 
HETATM    3  C10 UNL     1      24.317   3.778  53.207  1.00  0.00     0.010 A 
HETATM    4  C11 UNL     1      23.440   4.838  53.105  1.00  0.00     0.001 A 
HETATM    5  C12 UNL     1      22.192   4.732  52.531  1.00  0.00     0.002 A 
HETATM    6  C13 UNL     1      21.831   3.495  52.047  1.00  0.00     0.030 A 
HETATM    7  C14 UNL     1      22.659   2.368  52.110  1.00  0.00     0.037 A 
HETATM    8  N1  UNL     1      22.541   0.991  51.689  1.00  0.00    -0.375 N 
HETATM    9  C19 UNL     1      23.570   0.264  52.409  1.00  0.00     0.094 C 
HETATM   10  C20 UNL     1      22.924  -0.362  53.611  1.00  0.00     0.033 C 
ENDROOT
BRANCH   1  11
HETATM   11  C4  UNL     1      25.626   1.164  51.563  1.00  0.00     0.027 C 
BRANCH  11  12
HETATM   12  C3  UNL     1      26.636   2.255  51.514  1.00  0.00     0.112 C 
BRANCH  12  13
HETATM   13  C2  UNL     1      26.346   3.018  50.243  1.00  0.00     0.258 C 
HETATM   14  O2  UNL     1      27.171   3.745  49.632  1.00  0.00    -0.265 OA
BRANCH  13  15
HETATM   15  O1  UNL     1      25.117   3.001  49.603  1.00  0.00    -0.326 OA
HETATM   16  C1  UNL     1      24.378   4.176  49.326  1.00  0.00     0.213 C 
ENDBRANCH  13  15
ENDBRANCH  12  13
ENDBRANCH  11  12
ENDBRANCH   1  11
BRANCH   1  17
HETATM   17  C6  UNL     1      25.409   1.072  53.955  1.00  0.00     0.127 C 
BRANCH  17  18
HETATM   18  C7  UNL     1      26.100  -0.237  53.997  1.00  0.00     0.259 C 
HETATM   19  O3  UNL     1      26.484  -1.421  53.826  1.00  0.00    -0.265 OA
BRANCH  18  20
HETATM   20  O4  UNL     1      27.134  -0.196  54.921  1.00  0.00    -0.326 OA
HETATM   21  C8  UNL     1      28.392   0.405  54.697  1.00  0.00     0.213 C 
ENDBRANCH  18  20
ENDBRANCH  17  18
ENDBRANCH   1  17
BRANCH   8  22
HETATM   22  C15 UNL     1      21.511   0.683  50.728  1.00  0.00     0.126 C 
BRANCH  22  23
HETATM   23  C16 UNL     1      21.782   1.110  49.326  1.00  0.00     0.053 C 
BRANCH  23  24
HETATM   24  C17 UNL     1      20.508   1.820  48.825  1.00  0.00     0.135 C 
BRANCH  24  25
HETATM   25  O5  UNL     1      20.741   3.188  48.701  1.00  0.00    -0.394 OA
HETATM   26  H22 UNL     1      21.606   3.394  49.128  1.00  0.00     0.210 HD
ENDBRANCH  24  25
BRANCH  24  27
HETATM   27  C18 UNL     1      19.391   1.541  49.771  1.00  0.00     0.210 C 
HETATM   28  S1  UNL     1      18.459   2.594  50.055  1.00  0.00    -0.194 SA
ENDBRANCH  24  27
ENDBRANCH  23  24
ENDBRANCH  22  23
ENDBRANCH   8  22
TORSDOF 12
ENDMDL
MODEL 6
REMARK VINA RESULT:      -5.9      3.148      5.819
REMARK  12 active torsions:
REMARK  status: ('A' for Active; 'I' for Inactive)
REMARK    1  A    between atoms: O1_2  and  C2_3 
REMARK    2  A    between atoms: C2_3  and  C3_5 
REMARK    3  A    between atoms: C3_5  and  C4_6 
REMARK    4  A    between atoms: C4_6  and  C5_7 
REMARK    5  A    between atoms: C5_7  and  C6_8 
REMARK    6  A    between atoms: C6_8  and  C7_9 
REMARK    7  A    between atoms: C7_9  and  O4_11 
REMARK    8  A    between atoms: N1_19  and  C15_20 
REMARK    9  A    between atoms: C15_20  and  C16_21 
REMARK   10  A    between atoms: C16_21  and  C17_22 
REMARK   11  A    between atoms: C17_22  and  O5_23 
REMARK   12  A    between atoms: C17_22  and  C18_24 
ROOT
HETATM    1  C5  UNL     1      23.798   2.513  51.510  1.00  0.00     0.018 C 
HETATM    2  C9  UNL     1      22.994   2.150  50.348  1.00  0.00    -0.020 A 
HETATM    3  C10 UNL     1      22.065   1.124  50.243  1.00  0.00     0.010 A 
HETATM    4  C11 UNL     1      21.437   0.978  49.024  1.00  0.00     0.001 A 
HETATM    5  C12 UNL     1      21.691   1.791  47.941  1.00  0.00     0.002 A 
HETATM    6  C13 UNL     1      22.624   2.788  48.116  1.00  0.00     0.030 A 
HETATM    7  C14 UNL     1      23.308   3.006  49.317  1.00  0.00     0.037 A 
HETATM    8  N1  UNL     1      24.303   3.951  49.768  1.00  0.00    -0.375 N 
HETATM    9  C19 UNL     1      24.879   3.381  50.972  1.00  0.00     0.094 C 
HETATM   10  C20 UNL     1      26.150   2.686  50.581  1.00  0.00     0.033 C 
ENDROOT
BRANCH   1  11
HETATM   11  C4  UNL     1      23.061   3.359  52.537  1.00  0.00     0.027 C 
BRANCH  11  12
HETATM   12  C3  UNL     1      21.976   4.208  51.979  1.00  0.00     0.112 C 
BRANCH  12  13
HETATM   13  C2  UNL     1      20.686   3.526  52.368  1.00  0.00     0.258 C 
HETATM   14  O2  UNL     1      20.590   2.572  53.181  1.00  0.00    -0.265 OA
BRANCH  13  15
HETATM   15  O1  UNL     1      19.448   3.885  51.861  1.00  0.00    -0.326 OA
HETATM   16  C1  UNL     1      18.780   3.137  50.863  1.00  0.00     0.213 C 
ENDBRANCH  13  15
ENDBRANCH  12  13
ENDBRANCH  11  12
ENDBRANCH   1  11
BRANCH   1  17
HETATM   17  C6  UNL     1      24.274   1.299  52.285  1.00  0.00     0.127 C 
BRANCH  17  18
HETATM   18  C7  UNL     1      25.256   1.622  53.344  1.00  0.00     0.259 C 
HETATM   19  O3  UNL     1      25.961   2.166  54.231  1.00  0.00    -0.265 OA
BRANCH  18  20
HETATM   20  O4  UNL     1      26.036   0.509  53.620  1.00  0.00    -0.326 OA
HETATM   21  C8  UNL     1      26.750   0.302  54.820  1.00  0.00     0.213 C 
ENDBRANCH  18  20
ENDBRANCH  17  18
ENDBRANCH   1  17
BRANCH   8  22
HETATM   22  C15 UNL     1      24.480   5.146  48.980  1.00  0.00     0.126 C 
BRANCH  22  23
HETATM   23  C16 UNL     1      24.027   6.416  49.614  1.00  0.00     0.053 C 
BRANCH  23  24
HETATM   24  C17 UNL     1      25.106   6.807  50.643  1.00  0.00     0.135 C 
BRANCH  24  25
HETATM   25  O5  UNL     1      24.513   7.107  51.867  1.00  0.00    -0.394 OA
HETATM   26  H22 UNL     1      23.534   7.064  51.755  1.00  0.00     0.210 HD
ENDBRANCH  24  25
BRANCH  24  27
HETATM   27  C18 UNL     1      25.885   7.963  50.116  1.00  0.00     0.210 C 
HETATM   28  S1  UNL     1      25.214   8.908  49.270  1.00  0.00    -0.194 SA
ENDBRANCH  24  27
ENDBRANCH  23  24
ENDBRANCH  22  23
ENDBRANCH   8  22
TORSDOF 12
ENDMDL
MODEL 7
REMARK VINA RESULT:      -5.7      9.221     11.981
REMARK  12 active torsions:
REMARK  status: ('A' for Active; 'I' for Inactive)
REMARK    1  A    between atoms: O1_2  and  C2_3 
REMARK    2  A    between atoms: C2_3  and  C3_5 
REMARK    3  A    between atoms: C3_5  and  C4_6 
REMARK    4  A    between atoms: C4_6  and  C5_7 
REMARK    5  A    between atoms: C5_7  and  C6_8 
REMARK    6  A    between atoms: C6_8  and  C7_9 
REMARK    7  A    between atoms: C7_9  and  O4_11 
REMARK    8  A    between atoms: N1_19  and  C15_20 
REMARK    9  A    between atoms: C15_20  and  C16_21 
REMARK   10  A    between atoms: C16_21  and  C17_22 
REMARK   11  A    between atoms: C17_22  and  O5_23 
REMARK   12  A    between atoms: C17_22  and  C18_24 
ROOT
HETATM    1  C5  UNL     1      30.835   7.043  47.364  1.00  0.00     0.018 C 
HETATM    2  C9  UNL     1      29.491   6.664  47.788  1.00  0.00    -0.020 A 
HETATM    3  C10 UNL     1      29.045   5.411  48.184  1.00  0.00     0.010 A 
HETATM    4  C11 UNL     1      27.715   5.307  48.532  1.00  0.00     0.001 A 
HETATM    5  C12 UNL     1      26.841   6.372  48.502  1.00  0.00     0.002 A 
HETATM    6  C13 UNL     1      27.351   7.586  48.100  1.00  0.00     0.030 A 
HETATM    7  C14 UNL     1      28.687   7.779  47.730  1.00  0.00     0.037 A 
HETATM    8  N1  UNL     1      29.468   8.910  47.285  1.00  0.00    -0.375 N 
HETATM    9  C19 UNL     1      30.667   8.354  46.684  1.00  0.00     0.094 C 
HETATM   10  C20 UNL     1      30.448   8.304  45.200  1.00  0.00     0.033 C 
ENDROOT
BRANCH   1  11
HETATM   11  C4  UNL     1      31.802   7.293  48.511  1.00  0.00     0.027 C 
BRANCH  11  12
HETATM   12  C3  UNL     1      32.797   8.369  48.261  1.00  0.00     0.112 C 
BRANCH  12  13
HETATM   13  C2  UNL     1      34.145   7.748  48.540  1.00  0.00     0.258 C 
HETATM   14  O2  UNL     1      35.254   8.280  48.280  1.00  0.00    -0.265 OA
BRANCH  13  15
HETATM   15  O1  UNL     1      34.307   6.501  49.121  1.00  0.00    -0.326 OA
HETATM   16  C1  UNL     1      35.430   5.677  48.873  1.00  0.00     0.213 C 
ENDBRANCH  13  15
ENDBRANCH  12  13
ENDBRANCH  11  12
ENDBRANCH   1  11
BRANCH   1  17
HETATM   17  C6  UNL     1      31.501   5.965  46.530  1.00  0.00     0.127 C 
BRANCH  17  18
HETATM   18  C7  UNL     1      32.013   4.830  47.332  1.00  0.00     0.259 C 
HETATM   19  O3  UNL     1      32.241   3.960  48.208  1.00  0.00    -0.265 OA
BRANCH  18  20
HETATM   20  O4  UNL     1      33.027   4.184  46.641  1.00  0.00    -0.326 OA
HETATM   21  C8  UNL     1      33.257   4.297  45.253  1.00  0.00     0.213 C 
ENDBRANCH  18  20
ENDBRANCH  17  18
ENDBRANCH   1  17
BRANCH   8  22
HETATM   22  C15 UNL     1      28.921  10.222  47.521  1.00  0.00     0.126 C 
BRANCH  22  23
HETATM   23  C16 UNL     1      29.907  11.285  47.865  1.00  0.00     0.053 C 
BRANCH  23  24
HETATM   24  C17 UNL     1      29.201  12.245  48.843  1.00  0.00     0.135 C 
BRANCH  24  25
HETATM   25  O5  UNL     1      28.212  11.565  49.549  1.00  0.00    -0.394 OA
HETATM   26  H22 UNL     1      27.525  12.217  49.824  1.00  0.00     0.210 HD
ENDBRANCH  24  25
BRANCH  24  27
HETATM   27  C18 UNL     1      28.635  13.391  48.077  1.00  0.00     0.210 C 
HETATM   28  S1  UNL     1      27.238  13.685  48.223  1.00  0.00    -0.194 SA
ENDBRANCH  24  27
ENDBRANCH  23  24
ENDBRANCH  22  23
ENDBRANCH   8  22
TORSDOF 12
ENDMDL
MODEL 8
REMARK VINA RESULT:      -5.7      8.450     11.153
REMARK  12 active torsions:
REMARK  status: ('A' for Active; 'I' for Inactive)
REMARK    1  A    between atoms: O1_2  and  C2_3 
REMARK    2  A    between atoms: C2_3  and  C3_5 
REMARK    3  A    between atoms: C3_5  and  C4_6 
REMARK    4  A    between atoms: C4_6  and  C5_7 
REMARK    5  A    between atoms: C5_7  and  C6_8 
REMARK    6  A    between atoms: C6_8  and  C7_9 
REMARK    7  A    between atoms: C7_9  and  O4_11 
REMARK    8  A    between atoms: N1_19  and  C15_20 
REMARK    9  A    between atoms: C15_20  and  C16_21 
REMARK   10  A    between atoms: C16_21  and  C17_22 
REMARK   11  A    between atoms: C17_22  and  O5_23 
REMARK   12  A    between atoms: C17_22  and  C18_24 
ROOT
HETATM    1  C5  UNL     1      29.689   7.103  47.604  1.00  0.00     0.018 C 
HETATM    2  C9  UNL     1      28.494   6.404  48.065  1.00  0.00    -0.020 A 
HETATM    3  C10 UNL     1      28.398   5.102  48.535  1.00  0.00     0.010 A 
HETATM    4  C11 UNL     1      27.142   4.667  48.904  1.00  0.00     0.001 A 
HETATM    5  C12 UNL     1      26.015   5.456  48.826  1.00  0.00     0.002 A 
HETATM    6  C13 UNL     1      26.184   6.738  48.351  1.00  0.00     0.030 A 
HETATM    7  C14 UNL     1      27.421   7.259  47.955  1.00  0.00     0.037 A 
HETATM    8  N1  UNL     1      27.874   8.530  47.438  1.00  0.00    -0.375 N 
HETATM    9  C19 UNL     1      29.180   8.281  46.855  1.00  0.00     0.094 C 
HETATM   10  C20 UNL     1      28.987   8.091  45.378  1.00  0.00     0.033 C 
ENDROOT
BRANCH   1  11
HETATM   11  C4  UNL     1      30.551   7.666  48.724  1.00  0.00     0.027 C 
BRANCH  11  12
HETATM   12  C3  UNL     1      31.534   8.695  48.294  1.00  0.00     0.112 C 
BRANCH  12  13
HETATM   13  C2  UNL     1      31.064   9.989  48.912  1.00  0.00     0.258 C 
HETATM   14  O2  UNL     1      30.487  10.092  50.025  1.00  0.00    -0.265 OA
BRANCH  13  15
HETATM   15  O1  UNL     1      31.219  11.227  48.309  1.00  0.00    -0.326 OA
HETATM   16  C1  UNL     1      32.001  11.423  47.146  1.00  0.00     0.213 C 
ENDBRANCH  13  15
ENDBRANCH  12  13
ENDBRANCH  11  12
ENDBRANCH   1  11
BRANCH   1  17
HETATM   17  C6  UNL     1      30.622   6.196  46.823  1.00  0.00     0.127 C 
BRANCH  17  18
HETATM   18  C7  UNL     1      31.359   5.235  47.674  1.00  0.00     0.259 C 
HETATM   19  O3  UNL     1      31.964   4.637  48.599  1.00  0.00    -0.265 OA
BRANCH  18  20
HETATM   20  O4  UNL     1      31.611   4.071  46.962  1.00  0.00    -0.326 OA
HETATM   21  C8  UNL     1      32.645   3.913  46.014  1.00  0.00     0.213 C 
ENDBRANCH  18  20
ENDBRANCH  17  18
ENDBRANCH   1  17
BRANCH   8  22
HETATM   22  C15 UNL     1      26.995   9.660  47.609  1.00  0.00     0.126 C 
BRANCH  22  23
HETATM   23  C16 UNL     1      27.185  10.448  48.859  1.00  0.00     0.053 C 
BRANCH  23  24
HETATM   24  C17 UNL     1      27.788  11.804  48.442  1.00  0.00     0.135 C 
BRANCH  24  25
HETATM   25  O5  UNL     1      28.492  12.361  49.507  1.00  0.00    -0.394 OA
HETATM   26  H22 UNL     1      28.693  13.301  49.287  1.00  0.00     0.210 HD
ENDBRANCH  24  25
BRANCH  24  27
HETATM   27  C18 UNL     1      26.692  12.703  47.983  1.00  0.00     0.210 C 
HETATM   28  S1  UNL     1      26.898  14.121  48.056  1.00  0.00    -0.194 SA
ENDBRANCH  24  27
ENDBRANCH  23  24
ENDBRANCH  22  23
ENDBRANCH   8  22
TORSDOF 12
ENDMDL
MODEL 9
REMARK VINA RESULT:      -5.6      3.493      5.914
REMARK  12 active torsions:
REMARK  status: ('A' for Active; 'I' for Inactive)
REMARK    1  A    between atoms: O1_2  and  C2_3 
REMARK    2  A    between atoms: C2_3  and  C3_5 
REMARK    3  A    between atoms: C3_5  and  C4_6 
REMARK    4  A    between atoms: C4_6  and  C5_7 
REMARK    5  A    between atoms: C5_7  and  C6_8 
REMARK    6  A    between atoms: C6_8  and  C7_9 
REMARK    7  A    between atoms: C7_9  and  O4_11 
REMARK    8  A    between atoms: N1_19  and  C15_20 
REMARK    9  A    between atoms: C15_20  and  C16_21 
REMARK   10  A    between atoms: C16_21  and  C17_22 
REMARK   11  A    between atoms: C17_22  and  O5_23 
REMARK   12  A    between atoms: C17_22  and  C18_24 
ROOT
HETATM    1  C5  UNL     1      22.682   2.432  51.069  1.00  0.00     0.018 C 
HETATM    2  C9  UNL     1      23.268   1.437  51.961  1.00  0.00    -0.020 A 
HETATM    3  C10 UNL     1      24.571   1.383  52.437  1.00  0.00     0.010 A 
HETATM    4  C11 UNL     1      24.885   0.327  53.267  1.00  0.00     0.001 A 
HETATM    5  C12 UNL     1      23.977  -0.645  53.630  1.00  0.00     0.002 A 
HETATM    6  C13 UNL     1      22.703  -0.529  53.120  1.00  0.00     0.030 A 
HETATM    7  C14 UNL     1      22.300   0.509  52.272  1.00  0.00     0.037 A 
HETATM    8  N1  UNL     1      21.065   0.868  51.615  1.00  0.00    -0.375 N 
HETATM    9  C19 UNL     1      21.427   1.809  50.571  1.00  0.00     0.094 C 
HETATM   10  C20 UNL     1      21.537   1.040  49.287  1.00  0.00     0.033 C 
ENDROOT
BRANCH   1  11
HETATM   11  C4  UNL     1      22.258   3.717  51.764  1.00  0.00     0.027 C 
BRANCH  11  12
HETATM   12  C3  UNL     1      20.860   4.140  51.488  1.00  0.00     0.112 C 
BRANCH  12  13
HETATM   13  C2  UNL     1      20.972   5.437  50.723  1.00  0.00     0.258 C 
HETATM   14  O2  UNL     1      21.497   6.492  51.161  1.00  0.00    -0.265 OA
BRANCH  13  15
HETATM   15  O1  UNL     1      20.498   5.607  49.432  1.00  0.00    -0.326 OA
HETATM   16  C1  UNL     1      21.016   4.897  48.323  1.00  0.00     0.213 C 
ENDBRANCH  13  15
ENDBRANCH  12  13
ENDBRANCH  11  12
ENDBRANCH   1  11
BRANCH   1  17
HETATM   17  C6  UNL     1      23.650   2.881  49.991  1.00  0.00     0.127 C 
BRANCH  17  18
HETATM   18  C7  UNL     1      24.297   4.180  50.284  1.00  0.00     0.259 C 
HETATM   19  O3  UNL     1      24.569   5.387  50.501  1.00  0.00    -0.265 OA
BRANCH  18  20
HETATM   20  O4  UNL     1      25.657   3.995  50.483  1.00  0.00    -0.326 OA
HETATM   21  C8  UNL     1      26.509   3.275  49.617  1.00  0.00     0.213 C 
ENDBRANCH  18  20
ENDBRANCH  17  18
ENDBRANCH   1  17
BRANCH   8  22
HETATM   22  C15 UNL     1      19.856   0.257  52.108  1.00  0.00     0.126 C 
BRANCH  22  23
HETATM   23  C16 UNL     1      18.584   0.933  51.727  1.00  0.00     0.053 C 
BRANCH  23  24
HETATM   24  C17 UNL     1      17.852  -0.014  50.755  1.00  0.00     0.135 C 
BRANCH  24  25
HETATM   25  O5  UNL     1      17.877   0.513  49.466  1.00  0.00    -0.394 OA
HETATM   26  H22 UNL     1      17.485   1.418  49.494  1.00  0.00     0.210 HD
ENDBRANCH  24  25
BRANCH  24  27
HETATM   27  C18 UNL     1      16.456  -0.219  51.233  1.00  0.00     0.210 C 
HETATM   28  S1  UNL     1      16.230  -1.158  52.294  1.00  0.00    -0.194 SA
ENDBRANCH  24  27
ENDBRANCH  23  24
ENDBRANCH  22  23
ENDBRANCH   8  22
TORSDOF 12
ENDMDL
