MODEL 1
REMARK VINA RESULT:      -8.7      0.000      0.000
REMARK  5 active torsions:
REMARK  status: ('A' for Active; 'I' for Inactive)
REMARK    1  A    between atoms: C2_2  and  C3_3 
REMARK    2  A    between atoms: C3_3  and  C4_4 
REMARK    3  A    between atoms: C4_4  and  C5_5 
REMARK       I    between atoms: C5_5  and  N1_7 
REMARK    4  A    between atoms: N1_7  and  C6_8 
REMARK    5  A    between atoms: C14_16  and  O2_17 
ROOT
HETATM    1  C6  UNL     1      24.664  -0.384  54.226  1.00  0.00     0.035 A 
HETATM    2  C7  UNL     1      23.617  -1.098  54.757  1.00  0.00     0.032 A 
HETATM    3  C8  UNL     1      22.300  -0.809  54.514  1.00  0.00     0.033 A 
HETATM    4  C9  UNL     1      22.050   0.263  53.687  1.00  0.00     0.046 A 
HETATM    5  C10 UNL     1      23.024   1.063  53.088  1.00  0.00     0.011 A 
HETATM    6  C11 UNL     1      24.294   0.659  53.420  1.00  0.00     0.044 A 
HETATM    7  C12 UNL     1      22.443   2.103  52.278  1.00  0.00     0.070 A 
HETATM    8  C13 UNL     1      23.133   3.041  51.581  1.00  0.00     0.054 C 
HETATM    9  C14 UNL     1      24.497   3.484  51.286  1.00  0.00     0.180 C 
HETATM   10  C16 UNL     1      24.257   4.705  50.338  1.00  0.00     0.061 C 
HETATM   11  C17 UNL     1      23.653   4.266  49.033  1.00  0.00    -0.020 C 
HETATM   12  C18 UNL     1      22.337   4.419  48.609  1.00  0.00    -0.011 C 
HETATM   13  C19 UNL     1      21.327   4.024  49.758  1.00  0.00     0.149 C 
HETATM   14  N2  UNL     1      22.351   3.906  50.782  1.00  0.00    -0.377 N 
HETATM   15  C20 UNL     1      22.993   5.236  51.080  1.00  0.00     0.134 C 
HETATM   16  C21 UNL     1      21.008   1.866  52.437  1.00  0.00     0.259 A 
HETATM   17  O3  UNL     1      20.091   2.536  51.909  1.00  0.00    -0.267 OA
HETATM   18  N3  UNL     1      20.794   0.763  53.281  1.00  0.00    -0.322 N 
HETATM   19  H25 UNL     1      19.854   0.404  53.542  1.00  0.00     0.169 HD
ENDROOT
BRANCH   9  20
HETATM   20  O2  UNL     1      25.289   2.580  50.575  1.00  0.00    -0.384 OA
HETATM   21  C15 UNL     1      26.558   2.566  51.136  1.00  0.00     0.202 C 
ENDBRANCH   9  20
BRANCH   1  22
HETATM   22  N1  UNL     1      26.045  -0.612  54.417  1.00  0.00    -0.327 N 
HETATM   23  C5  UNL     1      27.060   0.316  54.721  1.00  0.00     0.222 C 
HETATM   24  O1  UNL     1      26.729   1.514  54.848  1.00  0.00    -0.273 OA
HETATM   25  H10 UNL     1      26.442  -1.572  54.336  1.00  0.00     0.169 HD
BRANCH  23  26
HETATM   26  C4  UNL     1      28.493  -0.010  54.904  1.00  0.00     0.103 C 
BRANCH  26  27
HETATM   27  C3  UNL     1      29.058  -0.268  53.516  1.00  0.00     0.009 C 
BRANCH  27  28
HETATM   28  C2  UNL     1      29.706  -1.610  53.412  1.00  0.00    -0.004 C 
HETATM   29  C1  UNL     1      28.759  -2.721  53.039  1.00  0.00     0.005 C 
ENDBRANCH  27  28
ENDBRANCH  26  27
ENDBRANCH  23  26
ENDBRANCH   1  22
TORSDOF 5
ENDMDL
MODEL 2
REMARK VINA RESULT:      -8.3      2.204      6.667
REMARK  5 active torsions:
REMARK  status: ('A' for Active; 'I' for Inactive)
REMARK    1  A    between atoms: C2_2  and  C3_3 
REMARK    2  A    between atoms: C3_3  and  C4_4 
REMARK    3  A    between atoms: C4_4  and  C5_5 
REMARK       I    between atoms: C5_5  and  N1_7 
REMARK    4  A    between atoms: N1_7  and  C6_8 
REMARK    5  A    between atoms: C14_16  and  O2_17 
ROOT
HETATM    1  C6  UNL     1      19.893   0.861  51.236  1.00  0.00     0.035 A 
HETATM    2  C7  UNL     1      18.855   0.276  51.919  1.00  0.00     0.032 A 
HETATM    3  C8  UNL     1      19.023  -0.504  53.033  1.00  0.00     0.033 A 
HETATM    4  C9  UNL     1      20.317  -0.691  53.461  1.00  0.00     0.046 A 
HETATM    5  C10 UNL     1      21.452  -0.152  52.855  1.00  0.00     0.011 A 
HETATM    6  C11 UNL     1      21.134   0.605  51.753  1.00  0.00     0.044 A 
HETATM    7  C12 UNL     1      22.661  -0.529  53.542  1.00  0.00     0.070 A 
HETATM    8  C13 UNL     1      23.919  -0.168  53.184  1.00  0.00     0.054 C 
HETATM    9  C14 UNL     1      24.655   0.598  52.176  1.00  0.00     0.180 C 
HETATM   10  C16 UNL     1      26.140   0.416  52.632  1.00  0.00     0.061 C 
HETATM   11  C17 UNL     1      26.387   1.090  53.953  1.00  0.00    -0.020 C 
HETATM   12  C18 UNL     1      26.540   0.492  55.200  1.00  0.00    -0.011 C 
HETATM   13  C19 UNL     1      25.438  -0.618  55.430  1.00  0.00     0.149 C 
HETATM   14  N2  UNL     1      24.946  -0.583  54.063  1.00  0.00    -0.377 N 
HETATM   15  C20 UNL     1      25.986  -1.068  53.086  1.00  0.00     0.134 C 
HETATM   16  C21 UNL     1      22.159  -1.359  54.637  1.00  0.00     0.259 A 
HETATM   17  O3  UNL     1      22.857  -1.921  55.512  1.00  0.00    -0.267 OA
HETATM   18  N3  UNL     1      20.757  -1.443  54.572  1.00  0.00    -0.322 N 
HETATM   19  H25 UNL     1      20.175  -1.979  55.246  1.00  0.00     0.169 HD
ENDROOT
BRANCH   9  20
HETATM   20  O2  UNL     1      24.411   1.973  52.160  1.00  0.00    -0.384 OA
HETATM   21  C15 UNL     1      24.657   2.451  50.882  1.00  0.00     0.202 C 
ENDBRANCH   9  20
BRANCH   1  22
HETATM   22  N1  UNL     1      19.813   1.681  50.088  1.00  0.00    -0.327 N 
HETATM   23  C5  UNL     1      19.691   3.082  50.010  1.00  0.00     0.222 C 
HETATM   24  O1  UNL     1      19.646   3.719  51.084  1.00  0.00    -0.273 OA
HETATM   25  H10 UNL     1      19.840   1.264  49.134  1.00  0.00     0.169 HD
BRANCH  23  26
HETATM   26  C4  UNL     1      19.612   3.868  48.757  1.00  0.00     0.103 C 
BRANCH  26  27
HETATM   27  C3  UNL     1      20.106   2.957  47.644  1.00  0.00     0.009 C 
BRANCH  27  28
HETATM   28  C2  UNL     1      21.537   3.213  47.300  1.00  0.00    -0.004 C 
HETATM   29  C1  UNL     1      22.469   2.092  47.675  1.00  0.00     0.005 C 
ENDBRANCH  27  28
ENDBRANCH  26  27
ENDBRANCH  23  26
ENDBRANCH   1  22
TORSDOF 5
ENDMDL
MODEL 3
REMARK VINA RESULT:      -8.3      2.354      7.037
REMARK  5 active torsions:
REMARK  status: ('A' for Active; 'I' for Inactive)
REMARK    1  A    between atoms: C2_2  and  C3_3 
REMARK    2  A    between atoms: C3_3  and  C4_4 
REMARK    3  A    between atoms: C4_4  and  C5_5 
REMARK       I    between atoms: C5_5  and  N1_7 
REMARK    4  A    between atoms: N1_7  and  C6_8 
REMARK    5  A    between atoms: C14_16  and  O2_17 
ROOT
HETATM    1  C6  UNL     1      20.532   0.487  52.618  1.00  0.00     0.035 A 
HETATM    2  C7  UNL     1      19.971  -0.271  53.616  1.00  0.00     0.032 A 
HETATM    3  C8  UNL     1      20.700  -0.936  54.567  1.00  0.00     0.033 A 
HETATM    4  C9  UNL     1      22.068  -0.813  54.486  1.00  0.00     0.046 A 
HETATM    5  C10 UNL     1      22.756  -0.074  53.523  1.00  0.00     0.011 A 
HETATM    6  C11 UNL     1      21.900   0.535  52.638  1.00  0.00     0.044 A 
HETATM    7  C12 UNL     1      24.183  -0.142  53.709  1.00  0.00     0.070 A 
HETATM    8  C13 UNL     1      25.112   0.463  52.926  1.00  0.00     0.054 C 
HETATM    9  C14 UNL     1      25.242   1.316  51.742  1.00  0.00     0.180 C 
HETATM   10  C16 UNL     1      26.792   1.485  51.618  1.00  0.00     0.061 C 
HETATM   11  C17 UNL     1      27.345   2.267  52.777  1.00  0.00    -0.020 C 
HETATM   12  C18 UNL     1      28.069   1.784  53.862  1.00  0.00    -0.011 C 
HETATM   13  C19 UNL     1      27.402   0.476  54.445  1.00  0.00     0.149 C 
HETATM   14  N2  UNL     1      26.452   0.330  53.355  1.00  0.00    -0.377 N 
HETATM   15  C20 UNL     1      27.146   0.030  52.052  1.00  0.00     0.134 C 
HETATM   16  C21 UNL     1      24.310  -1.001  54.886  1.00  0.00     0.259 A 
HETATM   17  O3  UNL     1      25.384  -1.350  55.427  1.00  0.00    -0.267 OA
HETATM   18  N3  UNL     1      23.037  -1.391  55.335  1.00  0.00    -0.322 N 
HETATM   19  H25 UNL     1      22.873  -2.004  56.159  1.00  0.00     0.169 HD
ENDROOT
BRANCH   9  20
HETATM   20  O2  UNL     1      24.710   2.602  51.859  1.00  0.00    -0.384 OA
HETATM   21  C15 UNL     1      24.093   2.936  50.662  1.00  0.00     0.202 C 
ENDBRANCH   9  20
BRANCH   1  22
HETATM   22  N1  UNL     1      19.861   1.207  51.604  1.00  0.00    -0.327 N 
HETATM   23  C5  UNL     1      19.458   2.557  51.600  1.00  0.00     0.222 C 
HETATM   24  O1  UNL     1      19.714   3.241  52.613  1.00  0.00    -0.273 OA
HETATM   25  H10 UNL     1      19.595   0.745  50.710  1.00  0.00     0.169 HD
BRANCH  23  26
HETATM   26  C4  UNL     1      18.754   3.238  50.488  1.00  0.00     0.103 C 
BRANCH  26  27
HETATM   27  C3  UNL     1      17.266   3.054  50.744  1.00  0.00     0.009 C 
BRANCH  27  28
HETATM   28  C2  UNL     1      16.642   4.275  51.338  1.00  0.00    -0.004 C 
HETATM   29  C1  UNL     1      15.692   3.990  52.472  1.00  0.00     0.005 C 
ENDBRANCH  27  28
ENDBRANCH  26  27
ENDBRANCH  23  26
ENDBRANCH   1  22
TORSDOF 5
ENDMDL
MODEL 4
REMARK VINA RESULT:      -8.2      2.018      3.033
REMARK  5 active torsions:
REMARK  status: ('A' for Active; 'I' for Inactive)
REMARK    1  A    between atoms: C2_2  and  C3_3 
REMARK    2  A    between atoms: C3_3  and  C4_4 
REMARK    3  A    between atoms: C4_4  and  C5_5 
REMARK       I    between atoms: C5_5  and  N1_7 
REMARK    4  A    between atoms: N1_7  and  C6_8 
REMARK    5  A    between atoms: C14_16  and  O2_17 
ROOT
HETATM    1  C6  UNL     1      24.729   0.013  53.659  1.00  0.00     0.035 A 
HETATM    2  C7  UNL     1      24.554  -0.910  54.660  1.00  0.00     0.032 A 
HETATM    3  C8  UNL     1      23.327  -1.352  55.080  1.00  0.00     0.033 A 
HETATM    4  C9  UNL     1      22.231  -0.819  54.440  1.00  0.00     0.046 A 
HETATM    5  C10 UNL     1      22.279   0.122  53.411  1.00  0.00     0.011 A 
HETATM    6  C11 UNL     1      23.569   0.472  53.096  1.00  0.00     0.044 A 
HETATM    7  C12 UNL     1      20.962   0.481  52.947  1.00  0.00     0.070 A 
HETATM    8  C13 UNL     1      20.687   1.377  51.966  1.00  0.00     0.054 C 
HETATM    9  C14 UNL     1      21.337   2.291  51.025  1.00  0.00     0.180 C 
HETATM   10  C16 UNL     1      20.120   2.918  50.268  1.00  0.00     0.061 C 
HETATM   11  C17 UNL     1      19.406   1.883  49.443  1.00  0.00    -0.020 C 
HETATM   12  C18 UNL     1      18.183   1.276  49.709  1.00  0.00    -0.011 C 
HETATM   13  C19 UNL     1      18.101   0.819  51.220  1.00  0.00     0.149 C 
HETATM   14  N2  UNL     1      19.322   1.500  51.617  1.00  0.00    -0.377 N 
HETATM   15  C20 UNL     1      19.183   2.996  51.511  1.00  0.00     0.134 C 
HETATM   16  C21 UNL     1      20.093  -0.335  53.796  1.00  0.00     0.259 A 
HETATM   17  O3  UNL     1      18.842  -0.357  53.757  1.00  0.00    -0.267 OA
HETATM   18  N3  UNL     1      20.870  -1.104  54.679  1.00  0.00    -0.322 N 
HETATM   19  H25 UNL     1      20.473  -1.762  55.380  1.00  0.00     0.169 HD
ENDROOT
BRANCH   9  20
HETATM   20  O2  UNL     1      22.142   1.692  50.054  1.00  0.00    -0.384 OA
HETATM   21  C15 UNL     1      23.184   2.556  49.749  1.00  0.00     0.202 C 
ENDBRANCH   9  20
BRANCH   1  22
HETATM   22  N1  UNL     1      25.950   0.519  53.159  1.00  0.00    -0.327 N 
HETATM   23  C5  UNL     1      26.637   1.691  53.529  1.00  0.00     0.222 C 
HETATM   24  O1  UNL     1      26.126   2.405  54.418  1.00  0.00    -0.273 OA
HETATM   25  H10 UNL     1      26.471   0.011  52.414  1.00  0.00     0.169 HD
BRANCH  23  26
HETATM   26  C4  UNL     1      27.921   2.152  52.950  1.00  0.00     0.103 C 
BRANCH  26  27
HETATM   27  C3  UNL     1      28.984   1.906  54.009  1.00  0.00     0.009 C 
BRANCH  27  28
HETATM   28  C2  UNL     1      29.069   0.466  54.397  1.00  0.00    -0.004 C 
HETATM   29  C1  UNL     1      29.939  -0.363  53.489  1.00  0.00     0.005 C 
ENDBRANCH  27  28
ENDBRANCH  26  27
ENDBRANCH  23  26
ENDBRANCH   1  22
TORSDOF 5
ENDMDL
MODEL 5
REMARK VINA RESULT:      -8.0      2.527      5.951
REMARK  5 active torsions:
REMARK  status: ('A' for Active; 'I' for Inactive)
REMARK    1  A    between atoms: C2_2  and  C3_3 
REMARK    2  A    between atoms: C3_3  and  C4_4 
REMARK    3  A    between atoms: C4_4  and  C5_5 
REMARK       I    between atoms: C5_5  and  N1_7 
REMARK    4  A    between atoms: N1_7  and  C6_8 
REMARK    5  A    between atoms: C14_16  and  O2_17 
ROOT
HETATM    1  C6  UNL     1      26.537   2.393  52.108  1.00  0.00     0.035 A 
HETATM    2  C7  UNL     1      27.622   1.714  52.604  1.00  0.00     0.032 A 
HETATM    3  C8  UNL     1      27.523   0.632  53.439  1.00  0.00     0.033 A 
HETATM    4  C9  UNL     1      26.250   0.233  53.777  1.00  0.00     0.046 A 
HETATM    5  C10 UNL     1      25.072   0.839  53.339  1.00  0.00     0.011 A 
HETATM    6  C11 UNL     1      25.323   1.907  52.512  1.00  0.00     0.044 A 
HETATM    7  C12 UNL     1      23.901   0.186  53.867  1.00  0.00     0.070 A 
HETATM    8  C13 UNL     1      22.616   0.553  53.629  1.00  0.00     0.054 C 
HETATM    9  C14 UNL     1      21.817   1.546  52.907  1.00  0.00     0.180 C 
HETATM   10  C16 UNL     1      20.354   1.122  53.263  1.00  0.00     0.061 C 
HETATM   11  C17 UNL     1      20.019  -0.218  52.668  1.00  0.00    -0.020 C 
HETATM   12  C18 UNL     1      19.914  -1.440  53.325  1.00  0.00    -0.011 C 
HETATM   13  C19 UNL     1      21.124  -1.649  54.320  1.00  0.00     0.149 C 
HETATM   14  N2  UNL     1      21.628  -0.293  54.182  1.00  0.00    -0.377 N 
HETATM   15  C20 UNL     1      20.659   0.718  54.737  1.00  0.00     0.134 C 
HETATM   16  C21 UNL     1      24.474  -0.887  54.679  1.00  0.00     0.259 A 
HETATM   17  O3  UNL     1      23.828  -1.729  55.344  1.00  0.00    -0.267 OA
HETATM   18  N3  UNL     1      25.878  -0.843  54.612  1.00  0.00    -0.322 N 
HETATM   19  H25 UNL     1      26.504  -1.508  55.108  1.00  0.00     0.169 HD
ENDROOT
BRANCH   9  20
HETATM   20  O2  UNL     1      21.914   1.508  51.515  1.00  0.00    -0.384 OA
HETATM   21  C15 UNL     1      21.711   2.789  51.023  1.00  0.00     0.202 C 
ENDBRANCH   9  20
BRANCH   1  22
HETATM   22  N1  UNL     1      26.544   3.510  51.241  1.00  0.00    -0.327 N 
HETATM   23  C5  UNL     1      26.597   3.535  49.834  1.00  0.00     0.222 C 
HETATM   24  O1  UNL     1      26.643   2.439  49.237  1.00  0.00    -0.273 OA
HETATM   25  H10 UNL     1      26.509   4.479  51.622  1.00  0.00     0.169 HD
BRANCH  23  26
HETATM   26  C4  UNL     1      26.602   4.758  48.998  1.00  0.00     0.103 C 
BRANCH  26  27
HETATM   27  C3  UNL     1      28.043   4.979  48.565  1.00  0.00     0.009 C 
BRANCH  27  28
HETATM   28  C2  UNL     1      28.264   6.353  48.023  1.00  0.00    -0.004 C 
HETATM   29  C1  UNL     1      29.707   6.675  47.736  1.00  0.00     0.005 C 
ENDBRANCH  27  28
ENDBRANCH  26  27
ENDBRANCH  23  26
ENDBRANCH   1  22
TORSDOF 5
ENDMDL
MODEL 6
REMARK VINA RESULT:      -8.0      1.905      4.221
REMARK  5 active torsions:
REMARK  status: ('A' for Active; 'I' for Inactive)
REMARK    1  A    between atoms: C2_2  and  C3_3 
REMARK    2  A    between atoms: C3_3  and  C4_4 
REMARK    3  A    between atoms: C4_4  and  C5_5 
REMARK       I    between atoms: C5_5  and  N1_7 
REMARK    4  A    between atoms: N1_7  and  C6_8 
REMARK    5  A    between atoms: C14_16  and  O2_17 
ROOT
HETATM    1  C6  UNL     1      26.104   2.095  51.338  1.00  0.00     0.035 A 
HETATM    2  C7  UNL     1      26.745   3.069  50.615  1.00  0.00     0.032 A 
HETATM    3  C8  UNL     1      26.101   3.939  49.775  1.00  0.00     0.033 A 
HETATM    4  C9  UNL     1      24.735   3.798  49.676  1.00  0.00     0.046 A 
HETATM    5  C10 UNL     1      23.972   2.850  50.358  1.00  0.00     0.011 A 
HETATM    6  C11 UNL     1      24.748   2.049  51.160  1.00  0.00     0.044 A 
HETATM    7  C12 UNL     1      22.570   2.960  50.044  1.00  0.00     0.070 A 
HETATM    8  C13 UNL     1      21.584   2.171  50.542  1.00  0.00     0.054 C 
HETATM    9  C14 UNL     1      21.360   1.039  51.443  1.00  0.00     0.180 C 
HETATM   10  C16 UNL     1      19.809   0.848  51.364  1.00  0.00     0.061 C 
HETATM   11  C17 UNL     1      19.088   2.025  51.961  1.00  0.00    -0.020 C 
HETATM   12  C18 UNL     1      18.414   3.040  51.291  1.00  0.00    -0.011 C 
HETATM   13  C19 UNL     1      19.267   3.573  50.073  1.00  0.00     0.149 C 
HETATM   14  N2  UNL     1      20.269   2.524  50.161  1.00  0.00    -0.377 N 
HETATM   15  C20 UNL     1      19.686   1.172  49.844  1.00  0.00     0.134 C 
HETATM   16  C21 UNL     1      22.543   4.074  49.096  1.00  0.00     0.259 A 
HETATM   17  O3  UNL     1      21.522   4.538  48.538  1.00  0.00    -0.267 OA
HETATM   18  N3  UNL     1      23.845   4.561  48.890  1.00  0.00    -0.322 N 
HETATM   19  H25 UNL     1      24.076   5.352  48.256  1.00  0.00     0.169 HD
ENDROOT
BRANCH   9  20
HETATM   20  O2  UNL     1      21.664   1.261  52.787  1.00  0.00    -0.384 OA
HETATM   21  C15 UNL     1      22.318   0.144  53.284  1.00  0.00     0.202 C 
ENDBRANCH   9  20
BRANCH   1  22
HETATM   22  N1  UNL     1      26.684   1.162  52.228  1.00  0.00    -0.327 N 
HETATM   23  C5  UNL     1      26.864   1.266  53.621  1.00  0.00     0.222 C 
HETATM   24  O1  UNL     1      26.467   2.310  54.180  1.00  0.00    -0.273 OA
HETATM   25  H10 UNL     1      27.052   0.253  51.880  1.00  0.00     0.169 HD
BRANCH  23  26
HETATM   26  C4  UNL     1      27.487   0.235  54.485  1.00  0.00     0.103 C 
BRANCH  26  27
HETATM   27  C3  UNL     1      28.963   0.589  54.582  1.00  0.00     0.009 C 
BRANCH  27  28
HETATM   28  C2  UNL     1      29.791  -0.179  53.604  1.00  0.00    -0.004 C 
HETATM   29  C1  UNL     1      29.324  -1.594  53.383  1.00  0.00     0.005 C 
ENDBRANCH  27  28
ENDBRANCH  26  27
ENDBRANCH  23  26
ENDBRANCH   1  22
TORSDOF 5
ENDMDL
MODEL 7
REMARK VINA RESULT:      -7.9      2.563      5.091
REMARK  5 active torsions:
REMARK  status: ('A' for Active; 'I' for Inactive)
REMARK    1  A    between atoms: C2_2  and  C3_3 
REMARK    2  A    between atoms: C3_3  and  C4_4 
REMARK    3  A    between atoms: C4_4  and  C5_5 
REMARK       I    between atoms: C5_5  and  N1_7 
REMARK    4  A    between atoms: N1_7  and  C6_8 
REMARK    5  A    between atoms: C14_16  and  O2_17 
ROOT
HETATM    1  C6  UNL     1      25.832   1.408  51.712  1.00  0.00     0.035 A 
HETATM    2  C7  UNL     1      26.376   0.647  52.718  1.00  0.00     0.032 A 
HETATM    3  C8  UNL     1      25.629  -0.056  53.627  1.00  0.00     0.033 A 
HETATM    4  C9  UNL     1      24.262   0.028  53.493  1.00  0.00     0.046 A 
HETATM    5  C10 UNL     1      23.592   0.765  52.516  1.00  0.00     0.011 A 
HETATM    6  C11 UNL     1      24.464   1.417  51.678  1.00  0.00     0.044 A 
HETATM    7  C12 UNL     1      22.161   0.649  52.641  1.00  0.00     0.070 A 
HETATM    8  C13 UNL     1      21.246   1.258  51.844  1.00  0.00     0.054 C 
HETATM    9  C14 UNL     1      21.138   2.158  50.694  1.00  0.00     0.180 C 
HETATM   10  C16 UNL     1      19.590   2.276  50.504  1.00  0.00     0.061 C 
HETATM   11  C17 UNL     1      18.994   0.961  50.082  1.00  0.00    -0.020 C 
HETATM   12  C18 UNL     1      18.247   0.078  50.855  1.00  0.00    -0.011 C 
HETATM   13  C19 UNL     1      18.915  -0.134  52.271  1.00  0.00     0.149 C 
HETATM   14  N2  UNL     1      19.896   0.924  52.100  1.00  0.00    -0.377 N 
HETATM   15  C20 UNL     1      19.243   2.279  52.024  1.00  0.00     0.134 C 
HETATM   16  C21 UNL     1      22.013  -0.235  53.797  1.00  0.00     0.259 A 
HETATM   17  O3  UNL     1      20.929  -0.624  54.289  1.00  0.00    -0.267 OA
HETATM   18  N3  UNL     1      23.279  -0.595  54.291  1.00  0.00    -0.322 N 
HETATM   19  H25 UNL     1      23.427  -1.218  55.110  1.00  0.00     0.169 HD
ENDROOT
BRANCH   9  20
HETATM   20  O2  UNL     1      21.649   1.669  49.490  1.00  0.00    -0.384 OA
HETATM   21  C15 UNL     1      22.430   2.655  48.908  1.00  0.00     0.202 C 
ENDBRANCH   9  20
BRANCH   1  22
HETATM   22  N1  UNL     1      26.521   2.158  50.733  1.00  0.00    -0.327 N 
HETATM   23  C5  UNL     1      26.238   3.450  50.250  1.00  0.00     0.222 C 
HETATM   24  O1  UNL     1      25.251   4.045  50.732  1.00  0.00    -0.273 OA
HETATM   25  H10 UNL     1      27.361   1.767  50.257  1.00  0.00     0.169 HD
BRANCH  23  26
HETATM   26  C4  UNL     1      27.016   4.168  49.213  1.00  0.00     0.103 C 
BRANCH  26  27
HETATM   27  C3  UNL     1      26.374   5.539  49.064  1.00  0.00     0.009 C 
BRANCH  27  28
HETATM   28  C2  UNL     1      27.253   6.494  48.324  1.00  0.00    -0.004 C 
HETATM   29  C1  UNL     1      28.662   6.002  48.124  1.00  0.00     0.005 C 
ENDBRANCH  27  28
ENDBRANCH  26  27
ENDBRANCH  23  26
ENDBRANCH   1  22
TORSDOF 5
ENDMDL
MODEL 8
REMARK VINA RESULT:      -7.9      2.374      5.084
REMARK  5 active torsions:
REMARK  status: ('A' for Active; 'I' for Inactive)
REMARK    1  A    between atoms: C2_2  and  C3_3 
REMARK    2  A    between atoms: C3_3  and  C4_4 
REMARK    3  A    between atoms: C4_4  and  C5_5 
REMARK       I    between atoms: C5_5  and  N1_7 
REMARK    4  A    between atoms: N1_7  and  C6_8 
REMARK    5  A    between atoms: C14_16  and  O2_17 
ROOT
HETATM    1  C6  UNL     1      24.558   0.991  52.383  1.00  0.00     0.035 A 
HETATM    2  C7  UNL     1      25.911   0.777  52.281  1.00  0.00     0.032 A 
HETATM    3  C8  UNL     1      26.766   1.621  51.621  1.00  0.00     0.033 A 
HETATM    4  C9  UNL     1      26.201   2.734  51.040  1.00  0.00     0.046 A 
HETATM    5  C10 UNL     1      24.846   3.062  51.075  1.00  0.00     0.011 A 
HETATM    6  C11 UNL     1      24.111   2.129  51.767  1.00  0.00     0.044 A 
HETATM    7  C12 UNL     1      24.570   4.291  50.376  1.00  0.00     0.070 A 
HETATM    8  C13 UNL     1      23.346   4.859  50.229  1.00  0.00     0.054 C 
HETATM    9  C14 UNL     1      21.936   4.662  50.570  1.00  0.00     0.180 C 
HETATM   10  C16 UNL     1      21.256   5.917  49.930  1.00  0.00     0.061 C 
HETATM   11  C17 UNL     1      21.695   7.180  50.618  1.00  0.00    -0.020 C 
HETATM   12  C18 UNL     1      22.582   8.142  50.147  1.00  0.00    -0.011 C 
HETATM   13  C19 UNL     1      23.869   7.465  49.529  1.00  0.00     0.149 C 
HETATM   14  N2  UNL     1      23.331   6.116  49.581  1.00  0.00    -0.377 N 
HETATM   15  C20 UNL     1      22.154   5.952  48.656  1.00  0.00     0.134 C 
HETATM   16  C21 UNL     1      25.895   4.693  49.904  1.00  0.00     0.259 A 
HETATM   17  O3  UNL     1      26.156   5.718  49.234  1.00  0.00    -0.267 OA
HETATM   18  N3  UNL     1      26.856   3.751  50.311  1.00  0.00    -0.322 N 
HETATM   19  H25 UNL     1      27.870   3.823  50.093  1.00  0.00     0.169 HD
ENDROOT
BRANCH   9  20
HETATM   20  O2  UNL     1      21.630   4.696  51.932  1.00  0.00    -0.384 OA
HETATM   21  C15 UNL     1      20.792   3.630  52.224  1.00  0.00     0.202 C 
ENDBRANCH   9  20
BRANCH   1  22
HETATM   22  N1  UNL     1      23.607   0.183  53.045  1.00  0.00    -0.327 N 
HETATM   23  C5  UNL     1      23.781  -0.640  54.174  1.00  0.00     0.222 C 
HETATM   24  O1  UNL     1      24.919  -0.684  54.688  1.00  0.00    -0.273 OA
HETATM   25  H10 UNL     1      22.622   0.136  52.709  1.00  0.00     0.169 HD
BRANCH  23  26
HETATM   26  C4  UNL     1      22.724  -1.462  54.808  1.00  0.00     0.103 C 
BRANCH  26  27
HETATM   27  C3  UNL     1      21.472  -0.600  54.846  1.00  0.00     0.009 C 
BRANCH  27  28
HETATM   28  C2  UNL     1      20.410  -1.109  53.926  1.00  0.00    -0.004 C 
HETATM   29  C1  UNL     1      20.005  -0.130  52.855  1.00  0.00     0.005 C 
ENDBRANCH  27  28
ENDBRANCH  26  27
ENDBRANCH  23  26
ENDBRANCH   1  22
TORSDOF 5
ENDMDL
MODEL 9
REMARK VINA RESULT:      -7.5      7.844      9.882
REMARK  5 active torsions:
REMARK  status: ('A' for Active; 'I' for Inactive)
REMARK    1  A    between atoms: C2_2  and  C3_3 
REMARK    2  A    between atoms: C3_3  and  C4_4 
REMARK    3  A    between atoms: C4_4  and  C5_5 
REMARK       I    between atoms: C5_5  and  N1_7 
REMARK    4  A    between atoms: N1_7  and  C6_8 
REMARK    5  A    between atoms: C14_16  and  O2_17 
ROOT
HETATM    1  C6  UNL     1      29.374   5.692  48.004  1.00  0.00     0.035 A 
HETATM    2  C7  UNL     1      28.166   5.176  48.404  1.00  0.00     0.032 A 
HETATM    3  C8  UNL     1      27.117   5.946  48.835  1.00  0.00     0.033 A 
HETATM    4  C9  UNL     1      27.323   7.306  48.855  1.00  0.00     0.046 A 
HETATM    5  C10 UNL     1      28.500   7.949  48.473  1.00  0.00     0.011 A 
HETATM    6  C11 UNL     1      29.462   7.057  48.066  1.00  0.00     0.044 A 
HETATM    7  C12 UNL     1      28.400   9.381  48.606  1.00  0.00     0.070 A 
HETATM    8  C13 UNL     1      29.385  10.271  48.323  1.00  0.00     0.054 C 
HETATM    9  C14 UNL     1      30.768  10.347  47.848  1.00  0.00     0.180 C 
HETATM   10  C16 UNL     1      31.040  11.887  47.850  1.00  0.00     0.061 C 
HETATM   11  C17 UNL     1      30.192  12.588  46.825  1.00  0.00    -0.020 C 
HETATM   12  C18 UNL     1      29.066  13.375  47.044  1.00  0.00    -0.011 C 
HETATM   13  C19 UNL     1      28.091  12.684  48.077  1.00  0.00     0.149 C 
HETATM   14  N2  UNL     1      29.027  11.634  48.442  1.00  0.00    -0.377 N 
HETATM   15  C20 UNL     1      30.235  12.190  49.150  1.00  0.00     0.134 C 
HETATM   16  C21 UNL     1      27.039   9.559  49.110  1.00  0.00     0.259 A 
HETATM   17  O3  UNL     1      26.495  10.654  49.382  1.00  0.00    -0.267 OA
HETATM   18  N3  UNL     1      26.411   8.309  49.251  1.00  0.00    -0.322 N 
HETATM   19  H25 UNL     1      25.438   8.183  49.594  1.00  0.00     0.169 HD
ENDROOT
BRANCH   9  20
HETATM   20  O2  UNL     1      30.987   9.907  46.541  1.00  0.00    -0.384 OA
HETATM   21  C15 UNL     1      32.165   9.177  46.512  1.00  0.00     0.202 C 
ENDBRANCH   9  20
BRANCH   1  22
HETATM   22  N1  UNL     1      30.503   4.979  47.542  1.00  0.00    -0.327 N 
HETATM   23  C5  UNL     1      31.737   4.766  48.186  1.00  0.00     0.222 C 
HETATM   24  O1  UNL     1      31.889   5.260  49.323  1.00  0.00    -0.273 OA
HETATM   25  H10 UNL     1      30.497   4.522  46.606  1.00  0.00     0.169 HD
BRANCH  23  26
HETATM   26  C4  UNL     1      32.877   4.002  47.626  1.00  0.00     0.103 C 
BRANCH  26  27
HETATM   27  C3  UNL     1      32.278   2.930  46.729  1.00  0.00     0.009 C 
BRANCH  27  28
HETATM   28  C2  UNL     1      32.691   1.555  47.142  1.00  0.00    -0.004 C 
HETATM   29  C1  UNL     1      31.871   0.455  46.521  1.00  0.00     0.005 C 
ENDBRANCH  27  28
ENDBRANCH  26  27
ENDBRANCH  23  26
ENDBRANCH   1  22
TORSDOF 5
ENDMDL
