MODEL 1
REMARK VINA RESULT:      -7.9      0.000      0.000
REMARK  1 active torsions:
REMARK  status: ('A' for Active; 'I' for Inactive)
REMARK    1  A    between atoms: C2_2  and  C3_3 
ROOT
HETATM    1  C3  UNL     1      22.140   2.651  52.458  1.00  0.00     0.162 C 
HETATM    2  N1  UNL     1      21.714   1.444  51.807  1.00  0.00    -0.387 N 
HETATM    3  C4  UNL     1      20.840   0.367  52.102  1.00  0.00     0.080 C 
HETATM    4  C5  UNL     1      21.626  -0.579  52.707  1.00  0.00    -0.004 C 
HETATM    5  C6  UNL     1      23.022  -0.892  53.164  1.00  0.00     0.050 C 
HETATM    6  C7  UNL     1      24.155  -0.113  53.082  1.00  0.00     0.008 C 
HETATM    7  C8  UNL     1      25.570  -0.309  53.483  1.00  0.00     0.123 C 
HETATM    8  C9  UNL     1      26.042   0.501  54.622  1.00  0.00     0.114 C 
HETATM    9  N2  UNL     1      26.906   1.493  54.532  1.00  0.00    -0.273 NA
HETATM   10  C10 UNL     1      27.139   2.081  53.223  1.00  0.00     0.145 C 
HETATM   11  C11 UNL     1      26.406   1.489  52.294  1.00  0.00     0.059 C 
HETATM   12  N3  UNL     1      26.470   0.037  52.349  1.00  0.00    -0.379 N 
HETATM   13  C12 UNL     1      25.761   2.529  51.440  1.00  0.00     0.024 A 
HETATM   14  C13 UNL     1      26.792   2.773  50.554  1.00  0.00     0.017 A 
HETATM   15  C14 UNL     1      26.660   3.699  49.505  1.00  0.00     0.020 A 
HETATM   16  C15 UNL     1      25.488   4.394  49.332  1.00  0.00     0.117 A 
HETATM   17  N4  UNL     1      24.532   4.109  50.230  1.00  0.00    -0.256 NA
HETATM   18  C16 UNL     1      24.611   3.245  51.235  1.00  0.00     0.117 A 
HETATM   19  C17 UNL     1      23.397   3.219  52.031  1.00  0.00     0.201 C 
HETATM   20  O1  UNL     1      23.508   4.285  52.743  1.00  0.00    -0.288 OA
HETATM   21  H5  UNL     1      21.992   1.079  50.847  1.00  0.00     0.159 HD
HETATM   22  H13 UNL     1      27.014  -0.605  51.741  1.00  0.00     0.160 HD
ENDROOT
BRANCH   1  23
HETATM   23  C2  UNL     1      21.001   3.607  52.528  1.00  0.00     0.022 C 
HETATM   24  C1  UNL     1      20.397   3.969  51.399  1.00  0.00     0.008 C 
ENDBRANCH   1  23
TORSDOF 1
ENDMDL
MODEL 2
REMARK VINA RESULT:      -7.2      1.925      4.299
REMARK  1 active torsions:
REMARK  status: ('A' for Active; 'I' for Inactive)
REMARK    1  A    between atoms: C2_2  and  C3_3 
ROOT
HETATM    1  C3  UNL     1      23.695   3.452  51.341  1.00  0.00     0.162 C 
HETATM    2  N1  UNL     1      23.724   2.778  50.073  1.00  0.00    -0.387 N 
HETATM    3  C4  UNL     1      23.024   2.866  48.843  1.00  0.00     0.080 C 
HETATM    4  C5  UNL     1      21.978   1.987  48.961  1.00  0.00    -0.004 C 
HETATM    5  C6  UNL     1      21.315   0.997  49.876  1.00  0.00     0.050 C 
HETATM    6  C7  UNL     1      21.666   0.634  51.158  1.00  0.00     0.008 C 
HETATM    7  C8  UNL     1      21.107  -0.320  52.146  1.00  0.00     0.123 C 
HETATM    8  C9  UNL     1      20.458   0.275  53.330  1.00  0.00     0.114 C 
HETATM    9  N2  UNL     1      20.939   0.223  54.556  1.00  0.00    -0.273 NA
HETATM   10  C10 UNL     1      22.346  -0.102  54.726  1.00  0.00     0.145 C 
HETATM   11  C11 UNL     1      22.937  -0.302  53.559  1.00  0.00     0.059 C 
HETATM   12  N3  UNL     1      22.190  -1.189  52.681  1.00  0.00    -0.379 N 
HETATM   13  C12 UNL     1      24.233   0.438  53.531  1.00  0.00     0.024 A 
HETATM   14  C13 UNL     1      25.040  -0.487  54.164  1.00  0.00     0.017 A 
HETATM   15  C14 UNL     1      26.411  -0.252  54.368  1.00  0.00     0.020 A 
HETATM   16  C15 UNL     1      26.989   0.918  53.939  1.00  0.00     0.117 A 
HETATM   17  N4  UNL     1      26.145   1.770  53.336  1.00  0.00    -0.256 NA
HETATM   18  C16 UNL     1      24.848   1.592  53.122  1.00  0.00     0.117 A 
HETATM   19  C17 UNL     1      24.238   2.740  52.474  1.00  0.00     0.201 C 
HETATM   20  O1  UNL     1      24.114   3.575  53.446  1.00  0.00    -0.288 OA
HETATM   21  H5  UNL     1      24.367   1.991  49.758  1.00  0.00     0.159 HD
HETATM   22  H13 UNL     1      22.373  -2.191  52.477  1.00  0.00     0.160 HD
ENDROOT
BRANCH   1  23
HETATM   23  C2  UNL     1      24.184   4.848  51.174  1.00  0.00     0.022 C 
HETATM   24  C1  UNL     1      23.294   5.825  51.020  1.00  0.00     0.008 C 
ENDBRANCH   1  23
TORSDOF 1
ENDMDL
MODEL 3
REMARK VINA RESULT:      -7.2      6.700     10.771
REMARK  1 active torsions:
REMARK  status: ('A' for Active; 'I' for Inactive)
REMARK    1  A    between atoms: C2_2  and  C3_3 
ROOT
HETATM    1  C3  UNL     1      32.238   5.426  47.474  1.00  0.00     0.162 C 
HETATM    2  N1  UNL     1      32.189   5.547  46.044  1.00  0.00    -0.387 N 
HETATM    3  C4  UNL     1      33.112   5.805  44.999  1.00  0.00     0.080 C 
HETATM    4  C5  UNL     1      33.089   7.165  44.826  1.00  0.00    -0.004 C 
HETATM    5  C6  UNL     1      32.474   8.445  45.314  1.00  0.00     0.050 C 
HETATM    6  C7  UNL     1      31.551   8.633  46.320  1.00  0.00     0.008 C 
HETATM    7  C8  UNL     1      30.871   9.825  46.881  1.00  0.00     0.123 C 
HETATM    8  C9  UNL     1      31.274  10.222  48.244  1.00  0.00     0.114 C 
HETATM    9  N2  UNL     1      30.511  10.115  49.314  1.00  0.00    -0.273 NA
HETATM   10  C10 UNL     1      29.360   9.230  49.249  1.00  0.00     0.145 C 
HETATM   11  C11 UNL     1      29.267   8.652  48.062  1.00  0.00     0.059 C 
HETATM   12  N3  UNL     1      29.404   9.585  46.955  1.00  0.00    -0.379 N 
HETATM   13  C12 UNL     1      29.005   7.194  48.245  1.00  0.00     0.024 A 
HETATM   14  C13 UNL     1      27.634   7.222  48.404  1.00  0.00     0.017 A 
HETATM   15  C14 UNL     1      26.889   6.046  48.594  1.00  0.00     0.020 A 
HETATM   16  C15 UNL     1      27.513   4.823  48.629  1.00  0.00     0.117 A 
HETATM   17  N4  UNL     1      28.846   4.871  48.471  1.00  0.00    -0.256 NA
HETATM   18  C16 UNL     1      29.589   5.955  48.289  1.00  0.00     0.117 A 
HETATM   19  C17 UNL     1      31.003   5.638  48.193  1.00  0.00     0.201 C 
HETATM   20  O1  UNL     1      31.328   5.439  49.423  1.00  0.00    -0.288 OA
HETATM   21  H5  UNL     1      31.348   5.437  45.401  1.00  0.00     0.159 HD
HETATM   22  H13 UNL     1      28.655   9.986  46.358  1.00  0.00     0.160 HD
ENDROOT
BRANCH   1  23
HETATM   23  C2  UNL     1      32.986   4.193  47.844  1.00  0.00     0.022 C 
HETATM   24  C1  UNL     1      32.692   3.054  47.225  1.00  0.00     0.008 C 
ENDBRANCH   1  23
TORSDOF 1
ENDMDL
MODEL 4
REMARK VINA RESULT:      -7.1      2.024      4.677
REMARK  1 active torsions:
REMARK  status: ('A' for Active; 'I' for Inactive)
REMARK    1  A    between atoms: C2_2  and  C3_3 
ROOT
HETATM    1  C3  UNL     1      21.270   1.993  51.035  1.00  0.00     0.162 C 
HETATM    2  N1  UNL     1      21.138   3.185  51.826  1.00  0.00    -0.387 N 
HETATM    3  C4  UNL     1      21.162   4.583  51.596  1.00  0.00     0.080 C 
HETATM    4  C5  UNL     1      22.469   4.955  51.776  1.00  0.00    -0.004 C 
HETATM    5  C6  UNL     1      23.844   4.452  52.114  1.00  0.00     0.050 C 
HETATM    6  C7  UNL     1      24.252   3.165  52.388  1.00  0.00     0.008 C 
HETATM    7  C8  UNL     1      25.555   2.552  52.737  1.00  0.00     0.123 C 
HETATM    8  C9  UNL     1      26.167   1.692  51.707  1.00  0.00     0.114 C 
HETATM    9  N2  UNL     1      26.288   0.383  51.795  1.00  0.00    -0.273 NA
HETATM   10  C10 UNL     1      25.462  -0.317  52.765  1.00  0.00     0.145 C 
HETATM   11  C11 UNL     1      24.688   0.524  53.431  1.00  0.00     0.059 C 
HETATM   12  N3  UNL     1      25.402   1.685  53.938  1.00  0.00    -0.379 N 
HETATM   13  C12 UNL     1      23.299  -0.021  53.482  1.00  0.00     0.024 A 
HETATM   14  C13 UNL     1      23.422  -0.863  54.571  1.00  0.00     0.017 A 
HETATM   15  C14 UNL     1      22.334  -1.616  55.046  1.00  0.00     0.020 A 
HETATM   16  C15 UNL     1      21.108  -1.536  54.432  1.00  0.00     0.117 A 
HETATM   17  N4  UNL     1      21.064  -0.702  53.380  1.00  0.00    -0.256 NA
HETATM   18  C16 UNL     1      22.062   0.027  52.897  1.00  0.00     0.117 A 
HETATM   19  C17 UNL     1      21.665   0.788  51.725  1.00  0.00     0.201 C 
HETATM   20  O1  UNL     1      21.672  -0.106  50.799  1.00  0.00    -0.288 OA
HETATM   21  H5  UNL     1      20.957   3.265  52.872  1.00  0.00     0.159 HD
HETATM   22  H13 UNL     1      25.727   1.865  54.908  1.00  0.00     0.160 HD
ENDROOT
BRANCH   1  23
HETATM   23  C2  UNL     1      20.088   1.856  50.140  1.00  0.00     0.022 C 
HETATM   24  C1  UNL     1      20.188   2.262  48.878  1.00  0.00     0.008 C 
ENDBRANCH   1  23
TORSDOF 1
ENDMDL
MODEL 5
REMARK VINA RESULT:      -7.0      2.180      5.433
REMARK  1 active torsions:
REMARK  status: ('A' for Active; 'I' for Inactive)
REMARK    1  A    between atoms: C2_2  and  C3_3 
ROOT
HETATM    1  C3  UNL     1      22.436   0.173  53.798  1.00  0.00     0.162 C 
HETATM    2  N1  UNL     1      23.484  -0.414  53.010  1.00  0.00    -0.387 N 
HETATM    3  C4  UNL     1      24.860  -0.708  53.181  1.00  0.00     0.080 C 
HETATM    4  C5  UNL     1      25.525   0.398  52.718  1.00  0.00    -0.004 C 
HETATM    5  C6  UNL     1      25.348   1.764  52.118  1.00  0.00     0.050 C 
HETATM    6  C7  UNL     1      24.181   2.430  51.810  1.00  0.00     0.008 C 
HETATM    7  C8  UNL     1      23.879   3.755  51.217  1.00  0.00     0.123 C 
HETATM    8  C9  UNL     1      23.290   4.755  52.127  1.00  0.00     0.114 C 
HETATM    9  N2  UNL     1      22.048   5.191  52.061  1.00  0.00    -0.273 NA
HETATM   10  C10 UNL     1      21.084   4.403  51.311  1.00  0.00     0.145 C 
HETATM   11  C11 UNL     1      21.648   3.323  50.793  1.00  0.00     0.059 C 
HETATM   12  N3  UNL     1      22.900   3.601  50.107  1.00  0.00    -0.379 N 
HETATM   13  C12 UNL     1      20.775   2.140  51.052  1.00  0.00     0.024 A 
HETATM   14  C13 UNL     1      19.898   2.263  49.993  1.00  0.00     0.017 A 
HETATM   15  C14 UNL     1      18.862   1.337  49.782  1.00  0.00     0.020 A 
HETATM   16  C15 UNL     1      18.692   0.275  50.636  1.00  0.00     0.117 A 
HETATM   17  N4  UNL     1      19.578   0.221  51.644  1.00  0.00    -0.256 NA
HETATM   18  C16 UNL     1      20.570   1.069  51.882  1.00  0.00     0.117 A 
HETATM   19  C17 UNL     1      21.309   0.724  53.083  1.00  0.00     0.201 C 
HETATM   20  O1  UNL     1      20.529   1.141  54.019  1.00  0.00    -0.288 OA
HETATM   21  H5  UNL     1      23.426  -0.808  52.024  1.00  0.00     0.159 HD
HETATM   22  H13 UNL     1      23.068   3.674  49.085  1.00  0.00     0.160 HD
ENDROOT
BRANCH   1  23
HETATM   23  C2  UNL     1      22.091  -0.738  54.924  1.00  0.00     0.022 C 
HETATM   24  C1  UNL     1      21.629  -1.954  54.648  1.00  0.00     0.008 C 
ENDBRANCH   1  23
TORSDOF 1
ENDMDL
MODEL 6
REMARK VINA RESULT:      -7.0      2.582      5.234
REMARK  1 active torsions:
REMARK  status: ('A' for Active; 'I' for Inactive)
REMARK    1  A    between atoms: C2_2  and  C3_3 
ROOT
HETATM    1  C3  UNL     1      23.577   0.082  53.001  1.00  0.00     0.162 C 
HETATM    2  N1  UNL     1      22.875  -0.123  54.237  1.00  0.00    -0.387 N 
HETATM    3  C4  UNL     1      22.404  -1.232  54.983  1.00  0.00     0.080 C 
HETATM    4  C5  UNL     1      21.117  -1.435  54.554  1.00  0.00    -0.004 C 
HETATM    5  C6  UNL     1      20.054  -0.939  53.617  1.00  0.00     0.050 C 
HETATM    6  C7  UNL     1      20.111   0.099  52.713  1.00  0.00     0.008 C 
HETATM    7  C8  UNL     1      19.143   0.682  51.753  1.00  0.00     0.123 C 
HETATM    8  C9  UNL     1      19.427   0.455  50.323  1.00  0.00     0.114 C 
HETATM    9  N2  UNL     1      19.807   1.390  49.475  1.00  0.00    -0.273 NA
HETATM   10  C10 UNL     1      20.337   2.631  50.016  1.00  0.00     0.145 C 
HETATM   11  C11 UNL     1      20.349   2.611  51.339  1.00  0.00     0.059 C 
HETATM   12  N3  UNL     1      19.093   2.160  51.919  1.00  0.00    -0.379 N 
HETATM   13  C12 UNL     1      21.670   3.107  51.826  1.00  0.00     0.024 A 
HETATM   14  C13 UNL     1      21.434   4.467  51.790  1.00  0.00     0.017 A 
HETATM   15  C14 UNL     1      22.409   5.395  52.192  1.00  0.00     0.020 A 
HETATM   16  C15 UNL     1      23.638   4.969  52.635  1.00  0.00     0.117 A 
HETATM   17  N4  UNL     1      23.798   3.636  52.640  1.00  0.00    -0.256 NA
HETATM   18  C16 UNL     1      22.908   2.724  52.271  1.00  0.00     0.117 A 
HETATM   19  C17 UNL     1      23.434   1.374  52.371  1.00  0.00     0.201 C 
HETATM   20  O1  UNL     1      24.179   1.287  51.325  1.00  0.00    -0.288 OA
HETATM   21  H5  UNL     1      22.541   0.609  54.935  1.00  0.00     0.159 HD
HETATM   22  H13 UNL     1      18.342   2.736  52.346  1.00  0.00     0.160 HD
ENDROOT
BRANCH   1  23
HETATM   23  C2  UNL     1      24.976  -0.409  53.136  1.00  0.00     0.022 C 
HETATM   24  C1  UNL     1      25.719   0.040  54.143  1.00  0.00     0.008 C 
ENDBRANCH   1  23
TORSDOF 1
ENDMDL
MODEL 7
REMARK VINA RESULT:      -6.4      2.638      6.549
REMARK  1 active torsions:
REMARK  status: ('A' for Active; 'I' for Inactive)
REMARK    1  A    between atoms: C2_2  and  C3_3 
ROOT
HETATM    1  C3  UNL     1      25.441   3.325  50.893  1.00  0.00     0.162 C 
HETATM    2  N1  UNL     1      26.085   3.500  49.621  1.00  0.00    -0.387 N 
HETATM    3  C4  UNL     1      27.239   4.162  49.132  1.00  0.00     0.080 C 
HETATM    4  C5  UNL     1      26.808   5.410  48.761  1.00  0.00    -0.004 C 
HETATM    5  C6  UNL     1      25.610   6.311  48.683  1.00  0.00     0.050 C 
HETATM    6  C7  UNL     1      24.311   6.061  49.069  1.00  0.00     0.008 C 
HETATM    7  C8  UNL     1      23.058   6.852  49.036  1.00  0.00     0.123 C 
HETATM    8  C9  UNL     1      22.534   7.296  50.342  1.00  0.00     0.114 C 
HETATM    9  N2  UNL     1      21.436   6.834  50.908  1.00  0.00    -0.273 NA
HETATM   10  C10 UNL     1      20.898   5.572  50.429  1.00  0.00     0.145 C 
HETATM   11  C11 UNL     1      21.640   5.073  49.453  1.00  0.00     0.059 C 
HETATM   12  N3  UNL     1      21.966   6.048  48.423  1.00  0.00    -0.379 N 
HETATM   13  C12 UNL     1      21.881   3.623  49.709  1.00  0.00     0.024 A 
HETATM   14  C13 UNL     1      20.721   3.098  49.174  1.00  0.00     0.017 A 
HETATM   15  C14 UNL     1      20.477   1.714  49.158  1.00  0.00     0.020 A 
HETATM   16  C15 UNL     1      21.396   0.837  49.681  1.00  0.00     0.117 A 
HETATM   17  N4  UNL     1      22.497   1.418  50.186  1.00  0.00    -0.256 NA
HETATM   18  C16 UNL     1      22.769   2.716  50.224  1.00  0.00     0.117 A 
HETATM   19  C17 UNL     1      24.037   2.989  50.878  1.00  0.00     0.201 C 
HETATM   20  O1  UNL     1      23.739   2.864  52.124  1.00  0.00    -0.288 OA
HETATM   21  H5  UNL     1      25.796   3.104  48.676  1.00  0.00     0.159 HD
HETATM   22  H13 UNL     1      21.537   6.154  47.483  1.00  0.00     0.160 HD
ENDROOT
BRANCH   1  23
HETATM   23  C2  UNL     1      26.291   2.469  51.767  1.00  0.00     0.022 C 
HETATM   24  C1  UNL     1      26.625   1.253  51.344  1.00  0.00     0.008 C 
ENDBRANCH   1  23
TORSDOF 1
ENDMDL
MODEL 8
REMARK VINA RESULT:      -6.3     10.585     13.159
REMARK  1 active torsions:
REMARK  status: ('A' for Active; 'I' for Inactive)
REMARK    1  A    between atoms: C2_2  and  C3_3 
ROOT
HETATM    1  C3  UNL     1      32.336   7.840  47.143  1.00  0.00     0.162 C 
HETATM    2  N1  UNL     1      33.436   8.760  47.235  1.00  0.00    -0.387 N 
HETATM    3  C4  UNL     1      33.626  10.157  47.089  1.00  0.00     0.080 C 
HETATM    4  C5  UNL     1      33.958  10.340  45.771  1.00  0.00    -0.004 C 
HETATM    5  C6  UNL     1      34.187   9.637  44.464  1.00  0.00     0.050 C 
HETATM    6  C7  UNL     1      34.088   8.294  44.174  1.00  0.00     0.008 C 
HETATM    7  C8  UNL     1      34.293   7.489  42.945  1.00  0.00     0.123 C 
HETATM    8  C9  UNL     1      33.080   6.911  42.336  1.00  0.00     0.114 C 
HETATM    9  N2  UNL     1      32.786   5.626  42.321  1.00  0.00    -0.273 NA
HETATM   10  C10 UNL     1      33.476   4.755  43.259  1.00  0.00     0.145 C 
HETATM   11  C11 UNL     1      34.328   5.436  44.008  1.00  0.00     0.059 C 
HETATM   12  N3  UNL     1      35.180   6.331  43.241  1.00  0.00    -0.379 N 
HETATM   13  C12 UNL     1      34.164   5.028  45.434  1.00  0.00     0.024 A 
HETATM   14  C13 UNL     1      34.962   3.902  45.446  1.00  0.00     0.017 A 
HETATM   15  C14 UNL     1      35.154   3.146  46.616  1.00  0.00     0.020 A 
HETATM   16  C15 UNL     1      34.543   3.512  47.790  1.00  0.00     0.117 A 
HETATM   17  N4  UNL     1      33.780   4.614  47.704  1.00  0.00    -0.256 NA
HETATM   18  C16 UNL     1      33.571   5.357  46.625  1.00  0.00     0.117 A 
HETATM   19  C17 UNL     1      32.658   6.456  46.887  1.00  0.00     0.201 C 
HETATM   20  O1  UNL     1      31.512   5.871  46.889  1.00  0.00    -0.288 OA
HETATM   21  H5  UNL     1      34.451   8.552  47.475  1.00  0.00     0.159 HD
HETATM   22  H13 UNL     1      36.172   6.193  42.966  1.00  0.00     0.160 HD
ENDROOT
BRANCH   1  23
HETATM   23  C2  UNL     1      31.396   8.076  48.273  1.00  0.00     0.022 C 
HETATM   24  C1  UNL     1      31.862   8.026  49.517  1.00  0.00     0.008 C 
ENDBRANCH   1  23
TORSDOF 1
ENDMDL
MODEL 9
REMARK VINA RESULT:      -6.3      8.527     11.679
REMARK  1 active torsions:
REMARK  status: ('A' for Active; 'I' for Inactive)
REMARK    1  A    between atoms: C2_2  and  C3_3 
ROOT
HETATM    1  C3  UNL     1      33.247   6.075  44.920  1.00  0.00     0.162 C 
HETATM    2  N1  UNL     1      34.185   5.529  45.861  1.00  0.00    -0.387 N 
HETATM    3  C4  UNL     1      34.671   4.242  46.202  1.00  0.00     0.080 C 
HETATM    4  C5  UNL     1      33.848   3.800  47.205  1.00  0.00    -0.004 C 
HETATM    5  C6  UNL     1      32.658   4.156  48.051  1.00  0.00     0.050 C 
HETATM    6  C7  UNL     1      31.888   5.298  48.025  1.00  0.00     0.008 C 
HETATM    7  C8  UNL     1      30.713   5.764  48.800  1.00  0.00     0.123 C 
HETATM    8  C9  UNL     1      29.433   5.824  48.069  1.00  0.00     0.114 C 
HETATM    9  N2  UNL     1      28.810   6.936  47.735  1.00  0.00    -0.273 NA
HETATM   10  C10 UNL     1      29.570   8.176  47.743  1.00  0.00     0.145 C 
HETATM   11  C11 UNL     1      30.826   7.966  48.105  1.00  0.00     0.059 C 
HETATM   12  N3  UNL     1      30.951   7.145  49.299  1.00  0.00    -0.379 N 
HETATM   13  C12 UNL     1      31.734   8.689  47.167  1.00  0.00     0.024 A 
HETATM   14  C13 UNL     1      31.715   9.942  47.747  1.00  0.00     0.017 A 
HETATM   15  C14 UNL     1      32.463  11.009  47.221  1.00  0.00     0.020 A 
HETATM   16  C15 UNL     1      33.240  10.832  46.101  1.00  0.00     0.117 A 
HETATM   17  N4  UNL     1      33.207   9.591  45.590  1.00  0.00    -0.256 NA
HETATM   18  C16 UNL     1      32.519   8.555  46.052  1.00  0.00     0.117 A 
HETATM   19  C17 UNL     1      32.691   7.373  45.226  1.00  0.00     0.201 C 
HETATM   20  O1  UNL     1      31.928   7.622  44.220  1.00  0.00    -0.288 OA
HETATM   21  H5  UNL     1      34.789   6.048  46.568  1.00  0.00     0.159 HD
HETATM   22  H13 UNL     1      31.158   7.453  50.269  1.00  0.00     0.160 HD
ENDROOT
BRANCH   1  23
HETATM   23  C2  UNL     1      33.782   5.922  43.539  1.00  0.00     0.022 C 
HETATM   24  C1  UNL     1      33.465   4.833  42.845  1.00  0.00     0.008 C 
ENDBRANCH   1  23
TORSDOF 1
ENDMDL
