MODEL 1
REMARK VINA RESULT:      -7.3      0.000      0.000
REMARK  3 active torsions:
REMARK  status: ('A' for Active; 'I' for Inactive)
REMARK    1  A    between atoms: O1_1  and  C1_2 
REMARK    2  A    between atoms: C1_2  and  O2_3 
REMARK    3  A    between atoms: O2_3  and  C2_4 
ROOT
HETATM    1  C2  UNL     1      24.140   2.230  51.808  1.00  0.00     0.080 C 
HETATM    2  C3  UNL     1      23.560   1.161  52.294  1.00  0.00     0.049 C 
HETATM    3  C4  UNL     1      22.730   0.205  53.015  1.00  0.00    -0.027 A 
HETATM    4  C5  UNL     1      23.351  -0.323  54.132  1.00  0.00     0.012 A 
HETATM    5  C6  UNL     1      22.770  -1.246  54.995  1.00  0.00     0.001 A 
HETATM    6  C7  UNL     1      21.499  -1.556  54.583  1.00  0.00     0.001 A 
HETATM    7  C8  UNL     1      20.829  -1.072  53.490  1.00  0.00     0.008 A 
HETATM    8  C9  UNL     1      21.450  -0.162  52.673  1.00  0.00    -0.042 A 
HETATM    9  C10 UNL     1      20.611   0.324  51.534  1.00  0.00     0.046 A 
HETATM   10  C11 UNL     1      21.433   0.784  50.367  1.00  0.00     0.039 A 
HETATM   11  C12 UNL     1      20.879   1.722  51.343  1.00  0.00     0.118 A 
HETATM   12  N1  UNL     1      20.071   2.695  50.719  1.00  0.00    -0.279 NA
HETATM   13  C13 UNL     1      20.366   3.931  51.060  1.00  0.00     0.197 C 
HETATM   14  N2  UNL     1      21.402   4.357  51.982  1.00  0.00    -0.373 N 
HETATM   15  C14 UNL     1      22.561   4.053  52.696  1.00  0.00     0.142 A 
HETATM   16  C15 UNL     1      23.727   4.923  52.494  1.00  0.00     0.015 A 
HETATM   17  C16 UNL     1      23.766   3.605  52.211  1.00  0.00     0.000 A 
HETATM   18  H14 UNL     1      21.200   5.370  52.262  1.00  0.00     0.161 HD
ENDROOT
BRANCH   1  19
HETATM   19  O2  UNL     1      25.193   2.202  50.840  1.00  0.00    -0.326 OA
BRANCH  19  20
HETATM   20  C1  UNL     1      26.519   1.992  51.208  1.00  0.00     0.341 C 
BRANCH  20  21
HETATM   21  O1  UNL     1      27.167   3.233  51.207  1.00  0.00    -0.377 OA
HETATM   22  H1  UNL     1      26.648   3.935  51.675  1.00  0.00     0.212 HD
ENDBRANCH  20  21
ENDBRANCH  19  20
ENDBRANCH   1  19
TORSDOF 3
ENDMDL
MODEL 2
REMARK VINA RESULT:      -7.2      2.634      4.798
REMARK  3 active torsions:
REMARK  status: ('A' for Active; 'I' for Inactive)
REMARK    1  A    between atoms: O1_1  and  C1_2 
REMARK    2  A    between atoms: C1_2  and  O2_3 
REMARK    3  A    between atoms: O2_3  and  C2_4 
ROOT
HETATM    1  C2  UNL     1      22.201   0.556  52.884  1.00  0.00     0.080 C 
HETATM    2  C3  UNL     1      23.494   0.440  53.058  1.00  0.00     0.049 C 
HETATM    3  C4  UNL     1      24.938   0.314  52.902  1.00  0.00    -0.027 A 
HETATM    4  C5  UNL     1      25.386  -0.990  53.003  1.00  0.00     0.012 A 
HETATM    5  C6  UNL     1      26.715  -1.379  52.880  1.00  0.00     0.001 A 
HETATM    6  C7  UNL     1      27.515  -0.291  52.645  1.00  0.00     0.001 A 
HETATM    7  C8  UNL     1      27.137   1.022  52.536  1.00  0.00     0.008 A 
HETATM    8  C9  UNL     1      25.811   1.349  52.665  1.00  0.00    -0.042 A 
HETATM    9  C10 UNL     1      25.510   2.804  52.491  1.00  0.00     0.046 A 
HETATM   10  C11 UNL     1      24.265   3.226  53.211  1.00  0.00     0.039 A 
HETATM   11  C12 UNL     1      24.268   2.925  51.780  1.00  0.00     0.118 A 
HETATM   12  N1  UNL     1      23.790   4.015  51.024  1.00  0.00    -0.279 NA
HETATM   13  C13 UNL     1      22.851   3.694  50.161  1.00  0.00     0.197 C 
HETATM   14  N2  UNL     1      22.294   2.375  49.930  1.00  0.00    -0.373 N 
HETATM   15  C14 UNL     1      22.117   1.062  50.367  1.00  0.00     0.142 A 
HETATM   16  C15 UNL     1      20.739   0.568  50.486  1.00  0.00     0.015 A 
HETATM   17  C16 UNL     1      21.569   0.624  51.548  1.00  0.00     0.000 A 
HETATM   18  H14 UNL     1      21.778   2.392  48.992  1.00  0.00     0.161 HD
ENDROOT
BRANCH   1  19
HETATM   19  O2  UNL     1      21.252   0.628  53.953  1.00  0.00    -0.326 OA
BRANCH  19  20
HETATM   20  C1  UNL     1      20.323  -0.385  54.176  1.00  0.00     0.341 C 
BRANCH  20  21
HETATM   21  O1  UNL     1      20.957  -1.395  54.909  1.00  0.00    -0.377 OA
HETATM   22  H1  UNL     1      21.176  -1.115  55.833  1.00  0.00     0.212 HD
ENDBRANCH  20  21
ENDBRANCH  19  20
ENDBRANCH   1  19
TORSDOF 3
ENDMDL
MODEL 3
REMARK VINA RESULT:      -7.2      3.006      4.858
REMARK  3 active torsions:
REMARK  status: ('A' for Active; 'I' for Inactive)
REMARK    1  A    between atoms: O1_1  and  C1_2 
REMARK    2  A    between atoms: C1_2  and  O2_3 
REMARK    3  A    between atoms: O2_3  and  C2_4 
ROOT
HETATM    1  C2  UNL     1      24.494   4.804  49.818  1.00  0.00     0.080 C 
HETATM    2  C3  UNL     1      23.503   3.953  49.914  1.00  0.00     0.049 C 
HETATM    3  C4  UNL     1      22.649   2.773  49.943  1.00  0.00    -0.027 A 
HETATM    4  C5  UNL     1      21.946   2.580  48.769  1.00  0.00     0.012 A 
HETATM    5  C6  UNL     1      21.073   1.523  48.537  1.00  0.00     0.001 A 
HETATM    6  C7  UNL     1      21.008   0.703  49.634  1.00  0.00     0.001 A 
HETATM    7  C8  UNL     1      21.675   0.838  50.824  1.00  0.00     0.008 A 
HETATM    8  C9  UNL     1      22.525   1.899  50.997  1.00  0.00    -0.042 A 
HETATM    9  C10 UNL     1      23.225   1.925  52.319  1.00  0.00     0.046 A 
HETATM   10  C11 UNL     1      23.625   3.309  52.734  1.00  0.00     0.039 A 
HETATM   11  C12 UNL     1      24.569   2.384  52.107  1.00  0.00     0.118 A 
HETATM   12  N1  UNL     1      25.705   2.183  52.918  1.00  0.00    -0.279 NA
HETATM   13  C13 UNL     1      26.847   2.340  52.285  1.00  0.00     0.197 C 
HETATM   14  N2  UNL     1      27.028   2.686  50.888  1.00  0.00    -0.373 N 
HETATM   15  C14 UNL     1      26.485   3.184  49.703  1.00  0.00     0.142 A 
HETATM   16  C15 UNL     1      27.162   4.327  49.076  1.00  0.00     0.015 A 
HETATM   17  C16 UNL     1      25.879   4.398  49.488  1.00  0.00     0.000 A 
HETATM   18  H14 UNL     1      28.038   2.457  50.617  1.00  0.00     0.161 HD
ENDROOT
BRANCH   1  19
HETATM   19  O2  UNL     1      24.362   6.215  50.016  1.00  0.00    -0.326 OA
BRANCH  19  20
HETATM   20  C1  UNL     1      23.627   6.740  51.075  1.00  0.00     0.341 C 
BRANCH  20  21
HETATM   21  O1  UNL     1      24.472   6.818  52.188  1.00  0.00    -0.377 OA
HETATM   22  H1  UNL     1      24.220   7.550  52.807  1.00  0.00     0.212 HD
ENDBRANCH  20  21
ENDBRANCH  19  20
ENDBRANCH   1  19
TORSDOF 3
ENDMDL
MODEL 4
REMARK VINA RESULT:      -7.0      7.787     11.235
REMARK  3 active torsions:
REMARK  status: ('A' for Active; 'I' for Inactive)
REMARK    1  A    between atoms: O1_1  and  C1_2 
REMARK    2  A    between atoms: C1_2  and  O2_3 
REMARK    3  A    between atoms: O2_3  and  C2_4 
ROOT
HETATM    1  C2  UNL     1      30.045   6.136  48.246  1.00  0.00     0.080 C 
HETATM    2  C3  UNL     1      30.345   7.166  47.495  1.00  0.00     0.049 C 
HETATM    3  C4  UNL     1      30.333   8.320  46.605  1.00  0.00    -0.027 A 
HETATM    4  C5  UNL     1      30.642   8.002  45.296  1.00  0.00     0.012 A 
HETATM    5  C6  UNL     1      30.688   8.918  44.251  1.00  0.00     0.001 A 
HETATM    6  C7  UNL     1      30.385  10.177  44.702  1.00  0.00     0.001 A 
HETATM    7  C8  UNL     1      30.072  10.559  45.980  1.00  0.00     0.008 A 
HETATM    8  C9  UNL     1      30.040   9.612  46.972  1.00  0.00    -0.042 A 
HETATM    9  C10 UNL     1      29.652  10.135  48.319  1.00  0.00     0.046 A 
HETATM   10  C11 UNL     1      30.199   9.305  49.441  1.00  0.00     0.039 A 
HETATM   11  C12 UNL     1      28.825   9.153  48.962  1.00  0.00     0.118 A 
HETATM   12  N1  UNL     1      27.895   9.334  50.006  1.00  0.00    -0.279 NA
HETATM   13  C13 UNL     1      27.001   8.373  50.097  1.00  0.00     0.197 C 
HETATM   14  N2  UNL     1      26.897   7.198  49.252  1.00  0.00    -0.373 N 
HETATM   15  C14 UNL     1      27.485   6.346  48.317  1.00  0.00     0.142 A 
HETATM   16  C15 UNL     1      27.546   4.917  48.649  1.00  0.00     0.015 A 
HETATM   17  C16 UNL     1      28.661   5.643  48.426  1.00  0.00     0.000 A 
HETATM   18  H14 UNL     1      25.924   6.776  49.391  1.00  0.00     0.161 HD
ENDROOT
BRANCH   1  19
HETATM   19  O2  UNL     1      31.007   5.367  48.974  1.00  0.00    -0.326 OA
BRANCH  19  20
HETATM   20  C1  UNL     1      31.862   5.954  49.903  1.00  0.00     0.341 C 
BRANCH  20  21
HETATM   21  O1  UNL     1      31.559   5.424  51.162  1.00  0.00    -0.377 OA
HETATM   22  H1  UNL     1      31.020   6.043  51.717  1.00  0.00     0.212 HD
ENDBRANCH  20  21
ENDBRANCH  19  20
ENDBRANCH   1  19
TORSDOF 3
ENDMDL
MODEL 5
REMARK VINA RESULT:      -7.0      2.691      4.101
REMARK  3 active torsions:
REMARK  status: ('A' for Active; 'I' for Inactive)
REMARK    1  A    between atoms: O1_1  and  C1_2 
REMARK    2  A    between atoms: C1_2  and  O2_3 
REMARK    3  A    between atoms: O2_3  and  C2_4 
ROOT
HETATM    1  C2  UNL     1      22.809   4.046  51.448  1.00  0.00     0.080 C 
HETATM    2  C3  UNL     1      22.724   2.930  52.130  1.00  0.00     0.049 C 
HETATM    3  C4  UNL     1      22.743   1.547  52.589  1.00  0.00    -0.027 A 
HETATM    4  C5  UNL     1      21.504   0.936  52.532  1.00  0.00     0.012 A 
HETATM    5  C6  UNL     1      21.257  -0.381  52.903  1.00  0.00     0.001 A 
HETATM    6  C7  UNL     1      22.411  -0.985  53.331  1.00  0.00     0.001 A 
HETATM    7  C8  UNL     1      23.665  -0.438  53.413  1.00  0.00     0.008 A 
HETATM    8  C9  UNL     1      23.852   0.866  53.033  1.00  0.00    -0.042 A 
HETATM    9  C10 UNL     1      25.266   1.345  53.130  1.00  0.00     0.046 A 
HETATM   10  C11 UNL     1      25.361   2.829  53.320  1.00  0.00     0.039 A 
HETATM   11  C12 UNL     1      25.528   2.202  52.009  1.00  0.00     0.118 A 
HETATM   12  N1  UNL     1      26.770   2.541  51.432  1.00  0.00    -0.279 NA
HETATM   13  C13 UNL     1      26.681   2.982  50.196  1.00  0.00     0.197 C 
HETATM   14  N2  UNL     1      25.471   3.141  49.412  1.00  0.00    -0.373 N 
HETATM   15  C14 UNL     1      24.079   3.222  49.372  1.00  0.00     0.142 A 
HETATM   16  C15 UNL     1      23.489   4.413  48.747  1.00  0.00     0.015 A 
HETATM   17  C16 UNL     1      23.257   4.099  50.039  1.00  0.00     0.000 A 
HETATM   18  H14 UNL     1      25.752   3.237  48.384  1.00  0.00     0.161 HD
ENDROOT
BRANCH   1  19
HETATM   19  O2  UNL     1      22.481   5.335  51.976  1.00  0.00    -0.326 OA
BRANCH  19  20
HETATM   20  C1  UNL     1      23.138   6.487  51.553  1.00  0.00     0.341 C 
BRANCH  20  21
HETATM   21  O1  UNL     1      24.303   6.622  52.316  1.00  0.00    -0.377 OA
HETATM   22  H1  UNL     1      24.147   6.467  53.282  1.00  0.00     0.212 HD
ENDBRANCH  20  21
ENDBRANCH  19  20
ENDBRANCH   1  19
TORSDOF 3
ENDMDL
MODEL 6
REMARK VINA RESULT:      -6.8      2.026      2.780
REMARK  3 active torsions:
REMARK  status: ('A' for Active; 'I' for Inactive)
REMARK    1  A    between atoms: O1_1  and  C1_2 
REMARK    2  A    between atoms: C1_2  and  O2_3 
REMARK    3  A    between atoms: O2_3  and  C2_4 
ROOT
HETATM    1  C2  UNL     1      25.108   4.378  50.224  1.00  0.00     0.080 C 
HETATM    2  C3  UNL     1      25.027   3.218  50.826  1.00  0.00     0.049 C 
HETATM    3  C4  UNL     1      24.755   2.109  51.731  1.00  0.00    -0.027 A 
HETATM    4  C5  UNL     1      25.802   1.839  52.593  1.00  0.00     0.012 A 
HETATM    5  C6  UNL     1      25.790   0.839  53.560  1.00  0.00     0.001 A 
HETATM    6  C7  UNL     1      24.597   0.162  53.536  1.00  0.00     0.001 A 
HETATM    7  C8  UNL     1      23.525   0.377  52.711  1.00  0.00     0.008 A 
HETATM    8  C9  UNL     1      23.591   1.378  51.776  1.00  0.00    -0.042 A 
HETATM    9  C10 UNL     1      22.351   1.546  50.956  1.00  0.00     0.046 A 
HETATM   10  C11 UNL     1      22.625   2.152  49.612  1.00  0.00     0.039 A 
HETATM   11  C12 UNL     1      22.141   2.950  50.739  1.00  0.00     0.118 A 
HETATM   12  N1  UNL     1      20.943   3.621  50.417  1.00  0.00    -0.279 NA
HETATM   13  C13 UNL     1      20.961   4.906  50.695  1.00  0.00     0.197 C 
HETATM   14  N2  UNL     1      22.057   5.657  51.278  1.00  0.00    -0.373 N 
HETATM   15  C14 UNL     1      23.412   5.731  51.602  1.00  0.00     0.142 A 
HETATM   16  C15 UNL     1      24.168   6.881  51.089  1.00  0.00     0.015 A 
HETATM   17  C16 UNL     1      24.495   5.613  50.765  1.00  0.00     0.000 A 
HETATM   18  H14 UNL     1      21.668   6.586  51.638  1.00  0.00     0.161 HD
ENDROOT
BRANCH   1  19
HETATM   19  O2  UNL     1      25.791   4.594  48.985  1.00  0.00    -0.326 OA
BRANCH  19  20
HETATM   20  C1  UNL     1      27.180   4.610  48.909  1.00  0.00     0.341 C 
BRANCH  20  21
HETATM   21  O1  UNL     1      27.614   5.898  49.245  1.00  0.00    -0.377 OA
HETATM   22  H1  UNL     1      27.200   6.235  50.079  1.00  0.00     0.212 HD
ENDBRANCH  20  21
ENDBRANCH  19  20
ENDBRANCH   1  19
TORSDOF 3
ENDMDL
MODEL 7
REMARK VINA RESULT:      -6.7      2.569      4.474
REMARK  3 active torsions:
REMARK  status: ('A' for Active; 'I' for Inactive)
REMARK    1  A    between atoms: O1_1  and  C1_2 
REMARK    2  A    between atoms: C1_2  and  O2_3 
REMARK    3  A    between atoms: O2_3  and  C2_4 
ROOT
HETATM    1  C2  UNL     1      24.029   2.462  52.672  1.00  0.00     0.080 C 
HETATM    2  C3  UNL     1      23.253   2.430  51.617  1.00  0.00     0.049 C 
HETATM    3  C4  UNL     1      22.500   2.064  50.424  1.00  0.00    -0.027 A 
HETATM    4  C5  UNL     1      23.117   2.453  49.250  1.00  0.00     0.012 A 
HETATM    5  C6  UNL     1      22.612   2.214  47.977  1.00  0.00     0.001 A 
HETATM    6  C7  UNL     1      21.420   1.540  48.051  1.00  0.00     0.001 A 
HETATM    7  C8  UNL     1      20.757   1.128  49.178  1.00  0.00     0.008 A 
HETATM    8  C9  UNL     1      21.303   1.390  50.408  1.00  0.00    -0.042 A 
HETATM    9  C10 UNL     1      20.512   0.862  51.564  1.00  0.00     0.046 A 
HETATM   10  C11 UNL     1      20.743   1.639  52.824  1.00  0.00     0.039 A 
HETATM   11  C12 UNL     1      21.431   0.378  52.554  1.00  0.00     0.118 A 
HETATM   12  N1  UNL     1      21.204  -0.562  53.581  1.00  0.00    -0.279 NA
HETATM   13  C13 UNL     1      22.300  -1.117  54.049  1.00  0.00     0.197 C 
HETATM   14  N2  UNL     1      23.661  -0.858  53.617  1.00  0.00    -0.373 N 
HETATM   15  C14 UNL     1      24.558  -0.039  52.931  1.00  0.00     0.142 A 
HETATM   16  C15 UNL     1      25.723   0.459  53.675  1.00  0.00     0.015 A 
HETATM   17  C16 UNL     1      24.816   1.296  53.131  1.00  0.00     0.000 A 
HETATM   18  H14 UNL     1      24.280  -1.654  53.974  1.00  0.00     0.161 HD
ENDROOT
BRANCH   1  19
HETATM   19  O2  UNL     1      24.210   3.616  53.500  1.00  0.00    -0.326 OA
BRANCH  19  20
HETATM   20  C1  UNL     1      23.671   4.853  53.159  1.00  0.00     0.341 C 
BRANCH  20  21
HETATM   21  O1  UNL     1      24.227   5.814  54.011  1.00  0.00    -0.377 OA
HETATM   22  H1  UNL     1      24.892   5.429  54.637  1.00  0.00     0.212 HD
ENDBRANCH  20  21
ENDBRANCH  19  20
ENDBRANCH   1  19
TORSDOF 3
ENDMDL
MODEL 8
REMARK VINA RESULT:      -6.7      1.791      2.536
REMARK  3 active torsions:
REMARK  status: ('A' for Active; 'I' for Inactive)
REMARK    1  A    between atoms: O1_1  and  C1_2 
REMARK    2  A    between atoms: C1_2  and  O2_3 
REMARK    3  A    between atoms: O2_3  and  C2_4 
ROOT
HETATM    1  C2  UNL     1      23.410   2.931  50.477  1.00  0.00     0.080 C 
HETATM    2  C3  UNL     1      23.705   1.906  51.235  1.00  0.00     0.049 C 
HETATM    3  C4  UNL     1      23.887   0.960  52.329  1.00  0.00    -0.027 A 
HETATM    4  C5  UNL     1      25.152   1.008  52.887  1.00  0.00     0.012 A 
HETATM    5  C6  UNL     1      25.576   0.217  53.949  1.00  0.00     0.001 A 
HETATM    6  C7  UNL     1      24.566  -0.613  54.363  1.00  0.00     0.001 A 
HETATM    7  C8  UNL     1      23.297  -0.711  53.855  1.00  0.00     0.008 A 
HETATM    8  C9  UNL     1      22.932   0.095  52.807  1.00  0.00    -0.042 A 
HETATM    9  C10 UNL     1      21.514  -0.072  52.359  1.00  0.00     0.046 A 
HETATM   10  C11 UNL     1      21.315   0.303  50.921  1.00  0.00     0.039 A 
HETATM   11  C12 UNL     1      20.997   1.222  52.014  1.00  0.00     0.118 A 
HETATM   12  N1  UNL     1      19.653   1.645  51.954  1.00  0.00    -0.279 NA
HETATM   13  C13 UNL     1      19.500   2.949  52.029  1.00  0.00     0.197 C 
HETATM   14  N2  UNL     1      20.548   3.943  52.162  1.00  0.00    -0.373 N 
HETATM   15  C14 UNL     1      21.903   4.267  52.073  1.00  0.00     0.142 A 
HETATM   16  C15 UNL     1      22.272   5.394  51.207  1.00  0.00     0.015 A 
HETATM   17  C16 UNL     1      22.737   4.147  50.988  1.00  0.00     0.000 A 
HETATM   18  H14 UNL     1      20.098   4.859  52.481  1.00  0.00     0.161 HD
ENDROOT
BRANCH   1  19
HETATM   19  O2  UNL     1      23.699   3.004  49.077  1.00  0.00    -0.326 OA
BRANCH  19  20
HETATM   20  C1  UNL     1      22.687   3.016  48.121  1.00  0.00     0.341 C 
BRANCH  20  21
HETATM   21  O1  UNL     1      22.411   1.690  47.769  1.00  0.00    -0.377 OA
HETATM   22  H1  UNL     1      21.442   1.485  47.788  1.00  0.00     0.212 HD
ENDBRANCH  20  21
ENDBRANCH  19  20
ENDBRANCH   1  19
TORSDOF 3
ENDMDL
MODEL 9
REMARK VINA RESULT:      -6.5      7.093      9.379
REMARK  3 active torsions:
REMARK  status: ('A' for Active; 'I' for Inactive)
REMARK    1  A    between atoms: O1_1  and  C1_2 
REMARK    2  A    between atoms: C1_2  and  O2_3 
REMARK    3  A    between atoms: O2_3  and  C2_4 
ROOT
HETATM    1  C2  UNL     1      29.671   7.651  47.416  1.00  0.00     0.080 C 
HETATM    2  C3  UNL     1      28.634   6.884  47.640  1.00  0.00     0.049 C 
HETATM    3  C4  UNL     1      27.483   6.188  48.201  1.00  0.00    -0.027 A 
HETATM    4  C5  UNL     1      27.795   4.939  48.707  1.00  0.00     0.012 A 
HETATM    5  C6  UNL     1      26.881   4.080  49.305  1.00  0.00     0.001 A 
HETATM    6  C7  UNL     1      25.631   4.644  49.323  1.00  0.00     0.001 A 
HETATM    7  C8  UNL     1      25.256   5.871  48.840  1.00  0.00     0.008 A 
HETATM    8  C9  UNL     1      26.201   6.678  48.260  1.00  0.00    -0.042 A 
HETATM    9  C10 UNL     1      25.686   8.006  47.802  1.00  0.00     0.046 A 
HETATM   10  C11 UNL     1      26.496   8.584  46.680  1.00  0.00     0.039 A 
HETATM   11  C12 UNL     1      26.693   8.995  48.070  1.00  0.00     0.118 A 
HETATM   12  N1  UNL     1      26.539  10.389  48.219  1.00  0.00    -0.279 NA
HETATM   13  C13 UNL     1      27.528  10.968  48.864  1.00  0.00     0.197 C 
HETATM   14  N2  UNL     1      28.708  10.325  49.410  1.00  0.00    -0.373 N 
HETATM   15  C14 UNL     1      29.543   9.208  49.456  1.00  0.00     0.142 A 
HETATM   16  C15 UNL     1      30.969   9.418  49.173  1.00  0.00     0.015 A 
HETATM   17  C16 UNL     1      30.207   8.598  48.419  1.00  0.00     0.000 A 
HETATM   18  H14 UNL     1      29.161  10.999  50.107  1.00  0.00     0.161 HD
ENDROOT
BRANCH   1  19
HETATM   19  O2  UNL     1      30.407   7.668  46.188  1.00  0.00    -0.326 OA
BRANCH  19  20
HETATM   20  C1  UNL     1      30.200   8.650  45.224  1.00  0.00     0.341 C 
BRANCH  20  21
HETATM   21  O1  UNL     1      29.116   8.253  44.432  1.00  0.00    -0.377 OA
HETATM   22  H1  UNL     1      29.381   7.635  43.705  1.00  0.00     0.212 HD
ENDBRANCH  20  21
ENDBRANCH  19  20
ENDBRANCH   1  19
TORSDOF 3
ENDMDL
