MODEL 1
REMARK VINA RESULT:      -8.9      0.000      0.000
REMARK  5 active torsions:
REMARK  status: ('A' for Active; 'I' for Inactive)
REMARK    1  A    between atoms: N1_1  and  C1_2 
REMARK    2  A    between atoms: C2_3  and  C3_4 
REMARK    3  A    between atoms: C3_4  and  C4_5 
REMARK    4  A    between atoms: C7_8  and  N2_9 
REMARK    5  A    between atoms: N2_9  and  C8_10 
ROOT
HETATM    1  C4  UNL     1      24.656   0.975  52.323  1.00  0.00    -0.023 A 
HETATM    2  C5  UNL     1      23.471   1.545  52.165  1.00  0.00     0.027 A 
HETATM    3  C6  UNL     1      22.909   0.684  53.199  1.00  0.00     0.040 A 
HETATM    4  C7  UNL     1      21.774   0.344  53.915  1.00  0.00     0.142 A 
HETATM    5  N3  UNL     1      21.890  -0.630  54.829  1.00  0.00    -0.224 NA
HETATM    6  C14 UNL     1      23.087  -1.250  55.029  1.00  0.00     0.236 A 
HETATM    7  N4  UNL     1      24.167  -0.889  54.311  1.00  0.00    -0.241 NA
HETATM    8  C15 UNL     1      24.136   0.077  53.377  1.00  0.00     0.079 A 
ENDROOT
BRANCH   1   9
HETATM    9  C3  UNL     1      26.063   0.981  51.840  1.00  0.00     0.077 C 
BRANCH   9  10
HETATM   10  C2  UNL     1      26.965   0.378  52.852  1.00  0.00    -0.050 C 
HETATM   11  C1  UNL     1      27.517   1.068  53.837  1.00  0.00     0.009 C 
HETATM   12  C19 UNL     1      28.426   0.512  54.873  1.00  0.00     0.083 C 
HETATM   13  C18 UNL     1      29.228  -0.551  54.162  1.00  0.00    -0.024 C 
HETATM   14  C17 UNL     1      28.706  -1.303  53.173  1.00  0.00    -0.026 C 
HETATM   15  C16 UNL     1      27.274  -1.073  52.763  1.00  0.00     0.063 C 
BRANCH  11  16
HETATM   16  N1  UNL     1      27.162   2.445  53.837  1.00  0.00    -0.402 N 
HETATM   17  H1  UNL     1      27.868   2.929  54.451  1.00  0.00     0.156 HD
HETATM   18  H2  UNL     1      26.902   3.454  53.838  1.00  0.00     0.156 HD
ENDBRANCH  11  16
ENDBRANCH   9  10
ENDBRANCH   1   9
BRANCH   4  19
HETATM   19  N2  UNL     1      20.529   0.997  53.698  1.00  0.00    -0.338 N 
HETATM   20  H6  UNL     1      20.248   1.772  54.334  1.00  0.00     0.167 HD
BRANCH  19  21
HETATM   21  C8  UNL     1      19.633   0.669  52.674  1.00  0.00     0.072 A 
HETATM   22  C9  UNL     1      18.800  -0.424  52.866  1.00  0.00     0.034 A 
HETATM   23  C10 UNL     1      17.920  -0.757  51.877  1.00  0.00     0.026 A 
HETATM   24  C11 UNL     1      17.846  -0.032  50.699  1.00  0.00     0.037 A 
HETATM   25 CL1  UNL     1      16.680  -0.551  49.500  1.00  0.00    -0.084 Cl
HETATM   26  C12 UNL     1      18.692   1.055  50.539  1.00  0.00     0.068 A 
HETATM   27  C13 UNL     1      19.579   1.403  51.517  1.00  0.00     0.144 A 
HETATM   28  F1  UNL     1      20.404   2.452  51.377  1.00  0.00    -0.204 F 
ENDBRANCH  19  21
ENDBRANCH   4  19
TORSDOF 5
ENDMDL
MODEL 2
REMARK VINA RESULT:      -8.9      2.082      2.918
REMARK  5 active torsions:
REMARK  status: ('A' for Active; 'I' for Inactive)
REMARK    1  A    between atoms: N1_1  and  C1_2 
REMARK    2  A    between atoms: C2_3  and  C3_4 
REMARK    3  A    between atoms: C3_4  and  C4_5 
REMARK    4  A    between atoms: C7_8  and  N2_9 
REMARK    5  A    between atoms: N2_9  and  C8_10 
ROOT
HETATM    1  C4  UNL     1      25.083   1.559  51.974  1.00  0.00    -0.023 A 
HETATM    2  C5  UNL     1      24.176   1.354  52.917  1.00  0.00     0.027 A 
HETATM    3  C6  UNL     1      23.123   1.801  52.012  1.00  0.00     0.040 A 
HETATM    4  C7  UNL     1      21.766   2.030  51.857  1.00  0.00     0.142 A 
HETATM    5  N3  UNL     1      21.351   2.492  50.669  1.00  0.00    -0.224 NA
HETATM    6  C14 UNL     1      22.245   2.721  49.666  1.00  0.00     0.236 A 
HETATM    7  N4  UNL     1      23.556   2.485  49.859  1.00  0.00    -0.241 NA
HETATM    8  C15 UNL     1      24.054   2.022  51.018  1.00  0.00     0.079 A 
ENDROOT
BRANCH   1   9
HETATM    9  C3  UNL     1      26.537   1.475  51.672  1.00  0.00     0.077 C 
BRANCH   9  10
HETATM   10  C2  UNL     1      27.240   0.673  52.703  1.00  0.00    -0.050 C 
HETATM   11  C1  UNL     1      27.902   1.209  53.715  1.00  0.00     0.009 C 
HETATM   12  C19 UNL     1      28.621   0.451  54.772  1.00  0.00     0.083 C 
HETATM   13  C18 UNL     1      29.179  -0.765  54.072  1.00  0.00    -0.024 C 
HETATM   14  C17 UNL     1      28.531  -1.369  53.057  1.00  0.00    -0.026 C 
HETATM   15  C16 UNL     1      27.206  -0.810  52.604  1.00  0.00     0.063 C 
BRANCH  11  16
HETATM   16  N1  UNL     1      27.877   2.631  53.723  1.00  0.00    -0.402 N 
HETATM   17  H1  UNL     1      27.637   2.925  52.741  1.00  0.00     0.156 HD
HETATM   18  H2  UNL     1      27.859   3.673  53.729  1.00  0.00     0.156 HD
ENDBRANCH  11  16
ENDBRANCH   9  10
ENDBRANCH   1   9
BRANCH   4  19
HETATM   19  N2  UNL     1      20.841   1.788  52.910  1.00  0.00    -0.338 N 
HETATM   20  H6  UNL     1      20.678   2.534  53.619  1.00  0.00     0.167 HD
BRANCH  19  21
HETATM   21  C8  UNL     1      20.119   0.600  53.071  1.00  0.00     0.072 A 
HETATM   22  C9  UNL     1      18.931   0.464  52.366  1.00  0.00     0.034 A 
HETATM   23  C10 UNL     1      18.214  -0.689  52.510  1.00  0.00     0.026 A 
HETATM   24  C11 UNL     1      18.646  -1.711  53.339  1.00  0.00     0.037 A 
HETATM   25 CL1  UNL     1      17.644  -3.144  53.448  1.00  0.00    -0.084 Cl
HETATM   26  C12 UNL     1      19.836  -1.542  54.029  1.00  0.00     0.068 A 
HETATM   27  C13 UNL     1      20.567  -0.397  53.897  1.00  0.00     0.144 A 
HETATM   28  F1  UNL     1      21.721  -0.219  54.559  1.00  0.00    -0.204 F 
ENDBRANCH  19  21
ENDBRANCH   4  19
TORSDOF 5
ENDMDL
MODEL 3
REMARK VINA RESULT:      -8.8      4.618      6.935
REMARK  5 active torsions:
REMARK  status: ('A' for Active; 'I' for Inactive)
REMARK    1  A    between atoms: N1_1  and  C1_2 
REMARK    2  A    between atoms: C2_3  and  C3_4 
REMARK    3  A    between atoms: C3_4  and  C4_5 
REMARK    4  A    between atoms: C7_8  and  N2_9 
REMARK    5  A    between atoms: N2_9  and  C8_10 
ROOT
HETATM    1  C4  UNL     1      24.223   2.947  50.262  1.00  0.00    -0.023 A 
HETATM    2  C5  UNL     1      24.911   2.527  51.313  1.00  0.00     0.027 A 
HETATM    3  C6  UNL     1      23.849   1.583  51.641  1.00  0.00     0.040 A 
HETATM    4  C7  UNL     1      23.421   0.597  52.515  1.00  0.00     0.142 A 
HETATM    5  N3  UNL     1      22.228   0.036  52.274  1.00  0.00    -0.224 NA
HETATM    6  C14 UNL     1      21.479   0.434  51.207  1.00  0.00     0.236 A 
HETATM    7  N4  UNL     1      21.932   1.396  50.382  1.00  0.00    -0.241 NA
HETATM    8  C15 UNL     1      23.116   2.009  50.552  1.00  0.00     0.079 A 
ENDROOT
BRANCH   1   9
HETATM    9  C3  UNL     1      24.244   3.897  49.118  1.00  0.00     0.077 C 
BRANCH   9  10
HETATM   10  C2  UNL     1      25.427   4.790  49.202  1.00  0.00    -0.050 C 
HETATM   11  C1  UNL     1      25.341   6.110  49.215  1.00  0.00     0.009 C 
HETATM   12  C19 UNL     1      26.492   7.047  49.297  1.00  0.00     0.083 C 
HETATM   13  C18 UNL     1      27.600   6.375  48.523  1.00  0.00    -0.024 C 
HETATM   14  C17 UNL     1      27.751   5.037  48.501  1.00  0.00    -0.026 C 
HETATM   15  C16 UNL     1      26.781   4.182  49.274  1.00  0.00     0.063 C 
BRANCH  11  16
HETATM   16  N1  UNL     1      24.006   6.595  49.142  1.00  0.00    -0.402 N 
HETATM   17  H1  UNL     1      23.425   5.945  49.734  1.00  0.00     0.156 HD
HETATM   18  H2  UNL     1      23.028   6.950  49.089  1.00  0.00     0.156 HD
ENDBRANCH  11  16
ENDBRANCH   9  10
ENDBRANCH   1   9
BRANCH   4  19
HETATM   19  N2  UNL     1      24.209   0.189  53.627  1.00  0.00    -0.338 N 
HETATM   20  H6  UNL     1      23.740   0.013  54.539  1.00  0.00     0.167 HD
BRANCH  19  21
HETATM   21  C8  UNL     1      25.596   0.004  53.587  1.00  0.00     0.072 A 
HETATM   22  C9  UNL     1      26.077  -1.161  53.006  1.00  0.00     0.034 A 
HETATM   23  C10 UNL     1      27.428  -1.358  52.958  1.00  0.00     0.026 A 
HETATM   24  C11 UNL     1      28.313  -0.427  53.475  1.00  0.00     0.037 A 
HETATM   25 CL1  UNL     1      30.024  -0.785  53.360  1.00  0.00    -0.084 Cl
HETATM   26  C12 UNL     1      27.799   0.725  54.049  1.00  0.00     0.068 A 
HETATM   27  C13 UNL     1      26.452   0.940  54.105  1.00  0.00     0.144 A 
HETATM   28  F1  UNL     1      25.939   2.050  54.658  1.00  0.00    -0.204 F 
ENDBRANCH  19  21
ENDBRANCH   4  19
TORSDOF 5
ENDMDL
MODEL 4
REMARK VINA RESULT:      -8.7      2.686      3.613
REMARK  5 active torsions:
REMARK  status: ('A' for Active; 'I' for Inactive)
REMARK    1  A    between atoms: N1_1  and  C1_2 
REMARK    2  A    between atoms: C2_3  and  C3_4 
REMARK    3  A    between atoms: C3_4  and  C4_5 
REMARK    4  A    between atoms: C7_8  and  N2_9 
REMARK    5  A    between atoms: N2_9  and  C8_10 
ROOT
HETATM    1  C4  UNL     1      25.674   2.279  53.337  1.00  0.00    -0.023 A 
HETATM    2  C5  UNL     1      24.386   2.402  53.053  1.00  0.00     0.027 A 
HETATM    3  C6  UNL     1      24.714   2.752  51.676  1.00  0.00     0.040 A 
HETATM    4  C7  UNL     1      24.215   3.098  50.432  1.00  0.00     0.142 A 
HETATM    5  N3  UNL     1      25.103   3.324  49.452  1.00  0.00    -0.224 NA
HETATM    6  C14 UNL     1      26.440   3.212  49.693  1.00  0.00     0.236 A 
HETATM    7  N4  UNL     1      26.883   2.874  50.918  1.00  0.00    -0.241 NA
HETATM    8  C15 UNL     1      26.061   2.631  51.953  1.00  0.00     0.079 A 
ENDROOT
BRANCH   1   9
HETATM    9  C3  UNL     1      26.636   1.959  54.425  1.00  0.00     0.077 C 
BRANCH   9  10
HETATM   10  C2  UNL     1      27.306   0.661  54.165  1.00  0.00    -0.050 C 
HETATM   11  C1  UNL     1      28.620   0.509  54.163  1.00  0.00     0.009 C 
HETATM   12  C19 UNL     1      29.339  -0.767  53.908  1.00  0.00     0.083 C 
HETATM   13  C18 UNL     1      28.499  -1.493  52.885  1.00  0.00    -0.024 C 
HETATM   14  C17 UNL     1      27.155  -1.398  52.861  1.00  0.00    -0.026 C 
HETATM   15  C16 UNL     1      26.469  -0.537  53.890  1.00  0.00     0.063 C 
BRANCH  11  16
HETATM   16  N1  UNL     1      29.333   1.709  54.435  1.00  0.00    -0.402 N 
HETATM   17  H1  UNL     1      28.847   2.468  53.891  1.00  0.00     0.156 HD
HETATM   18  H2  UNL     1      29.856   2.588  54.634  1.00  0.00     0.156 HD
ENDBRANCH  11  16
ENDBRANCH   9  10
ENDBRANCH   1   9
BRANCH   4  19
HETATM   19  N2  UNL     1      22.818   3.212  50.191  1.00  0.00    -0.338 N 
HETATM   20  H6  UNL     1      22.479   3.938  49.525  1.00  0.00     0.167 HD
BRANCH  19  21
HETATM   21  C8  UNL     1      21.844   2.408  50.793  1.00  0.00     0.072 A 
HETATM   22  C9  UNL     1      21.754   1.084  50.386  1.00  0.00     0.034 A 
HETATM   23  C10 UNL     1      20.809   0.285  50.964  1.00  0.00     0.026 A 
HETATM   24  C11 UNL     1      19.949   0.768  51.937  1.00  0.00     0.037 A 
HETATM   25 CL1  UNL     1      18.776  -0.346  52.607  1.00  0.00    -0.084 Cl
HETATM   26  C12 UNL     1      20.065   2.096  52.319  1.00  0.00     0.068 A 
HETATM   27  C13 UNL     1      21.004   2.910  51.753  1.00  0.00     0.144 A 
HETATM   28  F1  UNL     1      21.128   4.196  52.114  1.00  0.00    -0.204 F 
ENDBRANCH  19  21
ENDBRANCH   4  19
TORSDOF 5
ENDMDL
MODEL 5
REMARK VINA RESULT:      -8.6      6.157      8.084
REMARK  5 active torsions:
REMARK  status: ('A' for Active; 'I' for Inactive)
REMARK    1  A    between atoms: N1_1  and  C1_2 
REMARK    2  A    between atoms: C2_3  and  C3_4 
REMARK    3  A    between atoms: C3_4  and  C4_5 
REMARK    4  A    between atoms: C7_8  and  N2_9 
REMARK    5  A    between atoms: N2_9  and  C8_10 
ROOT
HETATM    1  C4  UNL     1      27.439   5.737  48.568  1.00  0.00    -0.023 A 
HETATM    2  C5  UNL     1      27.225   4.475  48.907  1.00  0.00     0.027 A 
HETATM    3  C6  UNL     1      26.045   4.871  49.667  1.00  0.00     0.040 A 
HETATM    4  C7  UNL     1      24.995   4.440  50.462  1.00  0.00     0.142 A 
HETATM    5  N3  UNL     1      24.143   5.370  50.915  1.00  0.00    -0.224 NA
HETATM    6  C14 UNL     1      24.321   6.684  50.596  1.00  0.00     0.236 A 
HETATM    7  N4  UNL     1      25.355   7.060  49.821  1.00  0.00    -0.241 NA
HETATM    8  C15 UNL     1      26.253   6.192  49.326  1.00  0.00     0.079 A 
ENDROOT
BRANCH   1   9
HETATM    9  C3  UNL     1      28.346   6.635  47.805  1.00  0.00     0.077 C 
BRANCH   9  10
HETATM   10  C2  UNL     1      29.757   6.421  48.211  1.00  0.00    -0.050 C 
HETATM   11  C1  UNL     1      30.427   7.263  48.980  1.00  0.00     0.009 C 
HETATM   12  C19 UNL     1      31.839   7.095  49.414  1.00  0.00     0.083 C 
HETATM   13  C18 UNL     1      32.532   6.432  48.249  1.00  0.00    -0.024 C 
HETATM   14  C17 UNL     1      31.905   5.544  47.452  1.00  0.00    -0.026 C 
HETATM   15  C16 UNL     1      30.464   5.204  47.734  1.00  0.00     0.063 C 
BRANCH  11  16
HETATM   16  N1  UNL     1      29.668   8.395  49.384  1.00  0.00    -0.402 N 
HETATM   17  H1  UNL     1      30.344   9.202  49.426  1.00  0.00     0.156 HD
HETATM   18  H2  UNL     1      29.111   9.225  49.681  1.00  0.00     0.156 HD
ENDBRANCH  11  16
ENDBRANCH   9  10
ENDBRANCH   1   9
BRANCH   4  19
HETATM   19  N2  UNL     1      24.819   3.067  50.789  1.00  0.00    -0.338 N 
HETATM   20  H6  UNL     1      24.113   2.510  50.263  1.00  0.00     0.167 HD
BRANCH  19  21
HETATM   21  C8  UNL     1      25.537   2.393  51.784  1.00  0.00     0.072 A 
HETATM   22  C9  UNL     1      26.587   1.578  51.386  1.00  0.00     0.034 A 
HETATM   23  C10 UNL     1      27.298   0.914  52.344  1.00  0.00     0.026 A 
HETATM   24  C11 UNL     1      26.991   1.038  53.689  1.00  0.00     0.037 A 
HETATM   25 CL1  UNL     1      27.970   0.138  54.829  1.00  0.00    -0.084 Cl
HETATM   26  C12 UNL     1      25.936   1.860  54.052  1.00  0.00     0.068 A 
HETATM   27  C13 UNL     1      25.214   2.532  53.108  1.00  0.00     0.144 A 
HETATM   28  F1  UNL     1      24.189   3.331  53.444  1.00  0.00    -0.204 F 
ENDBRANCH  19  21
ENDBRANCH   4  19
TORSDOF 5
ENDMDL
MODEL 6
REMARK VINA RESULT:      -8.6      5.274      7.372
REMARK  5 active torsions:
REMARK  status: ('A' for Active; 'I' for Inactive)
REMARK    1  A    between atoms: N1_1  and  C1_2 
REMARK    2  A    between atoms: C2_3  and  C3_4 
REMARK    3  A    between atoms: C3_4  and  C4_5 
REMARK    4  A    between atoms: C7_8  and  N2_9 
REMARK    5  A    between atoms: N2_9  and  C8_10 
ROOT
HETATM    1  C4  UNL     1      25.645   1.806  52.176  1.00  0.00    -0.023 A 
HETATM    2  C5  UNL     1      25.996   2.215  50.966  1.00  0.00     0.027 A 
HETATM    3  C6  UNL     1      25.119   3.373  51.093  1.00  0.00     0.040 A 
HETATM    4  C7  UNL     1      24.639   4.519  50.482  1.00  0.00     0.142 A 
HETATM    5  N3  UNL     1      23.758   5.260  51.169  1.00  0.00    -0.224 NA
HETATM    6  C14 UNL     1      23.362   4.883  52.418  1.00  0.00     0.236 A 
HETATM    7  N4  UNL     1      23.854   3.761  52.975  1.00  0.00    -0.241 NA
HETATM    8  C15 UNL     1      24.740   2.963  52.355  1.00  0.00     0.079 A 
ENDROOT
BRANCH   1   9
HETATM    9  C3  UNL     1      25.858   0.738  53.188  1.00  0.00     0.077 C 
BRANCH   9  10
HETATM   10  C2  UNL     1      27.278   0.310  53.206  1.00  0.00    -0.050 C 
HETATM   11  C1  UNL     1      27.657  -0.954  53.119  1.00  0.00     0.009 C 
HETATM   12  C19 UNL     1      29.063  -1.435  53.132  1.00  0.00     0.083 C 
HETATM   13  C18 UNL     1      29.789  -0.498  54.068  1.00  0.00    -0.024 C 
HETATM   14  C17 UNL     1      29.464   0.805  54.173  1.00  0.00    -0.026 C 
HETATM   15  C16 UNL     1      28.338   1.345  53.330  1.00  0.00     0.063 C 
BRANCH  11  16
HETATM   16  N1  UNL     1      26.573  -1.868  53.004  1.00  0.00    -0.402 N 
HETATM   17  H1  UNL     1      26.159  -1.953  53.969  1.00  0.00     0.156 HD
HETATM   18  H2  UNL     1      25.779  -2.538  52.921  1.00  0.00     0.156 HD
ENDBRANCH  11  16
ENDBRANCH   9  10
ENDBRANCH   1   9
BRANCH   4  19
HETATM   19  N2  UNL     1      25.057   4.904  49.178  1.00  0.00    -0.338 N 
HETATM   20  H6  UNL     1      24.463   4.647  48.362  1.00  0.00     0.167 HD
BRANCH  19  21
HETATM   21  C8  UNL     1      26.230   5.615  48.902  1.00  0.00     0.072 A 
HETATM   22  C9  UNL     1      26.163   7.002  48.903  1.00  0.00     0.034 A 
HETATM   23  C10 UNL     1      27.298   7.711  48.636  1.00  0.00     0.026 A 
HETATM   24  C11 UNL     1      28.501   7.078  48.367  1.00  0.00     0.037 A 
HETATM   25 CL1  UNL     1      29.892   8.090  48.037  1.00  0.00    -0.084 Cl
HETATM   26  C12 UNL     1      28.533   5.693  48.373  1.00  0.00     0.068 A 
HETATM   27  C13 UNL     1      27.408   4.966  48.638  1.00  0.00     0.144 A 
HETATM   28  F1  UNL     1      27.423   3.624  48.647  1.00  0.00    -0.204 F 
ENDBRANCH  19  21
ENDBRANCH   4  19
TORSDOF 5
ENDMDL
MODEL 7
REMARK VINA RESULT:      -8.5      3.578      5.008
REMARK  5 active torsions:
REMARK  status: ('A' for Active; 'I' for Inactive)
REMARK    1  A    between atoms: N1_1  and  C1_2 
REMARK    2  A    between atoms: C2_3  and  C3_4 
REMARK    3  A    between atoms: C3_4  and  C4_5 
REMARK    4  A    between atoms: C7_8  and  N2_9 
REMARK    5  A    between atoms: N2_9  and  C8_10 
ROOT
HETATM    1  C4  UNL     1      24.581   0.183  53.034  1.00  0.00    -0.023 A 
HETATM    2  C5  UNL     1      24.610   1.016  52.004  1.00  0.00     0.027 A 
HETATM    3  C6  UNL     1      23.196   1.316  52.196  1.00  0.00     0.040 A 
HETATM    4  C7  UNL     1      22.106   2.039  51.741  1.00  0.00     0.142 A 
HETATM    5  N3  UNL     1      20.945   1.879  52.392  1.00  0.00    -0.224 NA
HETATM    6  C14 UNL     1      20.861   1.032  53.458  1.00  0.00     0.236 A 
HETATM    7  N4  UNL     1      21.946   0.348  53.867  1.00  0.00    -0.241 NA
HETATM    8  C15 UNL     1      23.145   0.451  53.270  1.00  0.00     0.079 A 
ENDROOT
BRANCH   1   9
HETATM    9  C3  UNL     1      25.409  -0.749  53.844  1.00  0.00     0.077 C 
BRANCH   9  10
HETATM   10  C2  UNL     1      26.851  -0.435  53.692  1.00  0.00    -0.050 C 
HETATM   11  C1  UNL     1      27.731  -1.287  53.194  1.00  0.00     0.009 C 
HETATM   12  C19 UNL     1      29.184  -1.022  53.021  1.00  0.00     0.083 C 
HETATM   13  C18 UNL     1      29.565  -0.150  54.192  1.00  0.00    -0.024 C 
HETATM   14  C17 UNL     1      28.718   0.756  54.719  1.00  0.00    -0.026 C 
HETATM   15  C16 UNL     1      27.343   0.901  54.119  1.00  0.00     0.063 C 
BRANCH  11  16
HETATM   16  N1  UNL     1      27.165  -2.535  52.815  1.00  0.00    -0.402 N 
HETATM   17  H1  UNL     1      26.296  -2.652  53.399  1.00  0.00     0.156 HD
HETATM   18  H2  UNL     1      26.751  -3.450  52.538  1.00  0.00     0.156 HD
ENDBRANCH  11  16
ENDBRANCH   9  10
ENDBRANCH   1   9
BRANCH   4  19
HETATM   19  N2  UNL     1      22.203   2.920  50.628  1.00  0.00    -0.338 N 
HETATM   20  H6  UNL     1      21.567   2.778  49.816  1.00  0.00     0.167 HD
BRANCH  19  21
HETATM   21  C8  UNL     1      23.108   3.984  50.539  1.00  0.00     0.072 A 
HETATM   22  C9  UNL     1      22.907   5.077  51.371  1.00  0.00     0.034 A 
HETATM   23  C10 UNL     1      23.780   6.124  51.297  1.00  0.00     0.026 A 
HETATM   24  C11 UNL     1      24.849   6.114  50.417  1.00  0.00     0.037 A 
HETATM   25 CL1  UNL     1      25.904   7.512  50.408  1.00  0.00    -0.084 Cl
HETATM   26  C12 UNL     1      25.021   5.007  49.600  1.00  0.00     0.068 A 
HETATM   27  C13 UNL     1      24.158   3.951  49.660  1.00  0.00     0.144 A 
HETATM   28  F1  UNL     1      24.311   2.872  48.875  1.00  0.00    -0.204 F 
ENDBRANCH  19  21
ENDBRANCH   4  19
TORSDOF 5
ENDMDL
MODEL 8
REMARK VINA RESULT:      -8.2      5.214      7.858
REMARK  5 active torsions:
REMARK  status: ('A' for Active; 'I' for Inactive)
REMARK    1  A    between atoms: N1_1  and  C1_2 
REMARK    2  A    between atoms: C2_3  and  C3_4 
REMARK    3  A    between atoms: C3_4  and  C4_5 
REMARK    4  A    between atoms: C7_8  and  N2_9 
REMARK    5  A    between atoms: N2_9  and  C8_10 
ROOT
HETATM    1  C4  UNL     1      25.902   4.336  49.848  1.00  0.00    -0.023 A 
HETATM    2  C5  UNL     1      26.133   3.074  50.177  1.00  0.00     0.027 A 
HETATM    3  C6  UNL     1      25.025   3.109  51.124  1.00  0.00     0.040 A 
HETATM    4  C7  UNL     1      24.292   2.396  52.059  1.00  0.00     0.142 A 
HETATM    5  N3  UNL     1      23.283   3.034  52.668  1.00  0.00    -0.224 NA
HETATM    6  C14 UNL     1      23.004   4.334  52.366  1.00  0.00     0.236 A 
HETATM    7  N4  UNL     1      23.742   4.991  51.451  1.00  0.00    -0.241 NA
HETATM    8  C15 UNL     1      24.769   4.425  50.796  1.00  0.00     0.079 A 
ENDROOT
BRANCH   1   9
HETATM    9  C3  UNL     1      26.365   5.451  48.981  1.00  0.00     0.077 C 
BRANCH   9  10
HETATM   10  C2  UNL     1      25.329   6.509  48.892  1.00  0.00    -0.050 C 
HETATM   11  C1  UNL     1      25.383   7.639  49.579  1.00  0.00     0.009 C 
HETATM   12  C19 UNL     1      24.373   8.728  49.526  1.00  0.00     0.083 C 
HETATM   13  C18 UNL     1      23.049   8.027  49.341  1.00  0.00    -0.024 C 
HETATM   14  C17 UNL     1      22.933   6.891  48.626  1.00  0.00    -0.026 C 
HETATM   15  C16 UNL     1      24.165   6.301  47.991  1.00  0.00     0.063 C 
BRANCH  11  16
HETATM   16  N1  UNL     1      26.531   7.745  50.411  1.00  0.00    -0.402 N 
HETATM   17  H1  UNL     1      26.699   6.782  50.803  1.00  0.00     0.156 HD
HETATM   18  H2  UNL     1      27.372   7.823  51.022  1.00  0.00     0.156 HD
ENDBRANCH  11  16
ENDBRANCH   9  10
ENDBRANCH   1   9
BRANCH   4  19
HETATM   19  N2  UNL     1      24.591   1.040  52.367  1.00  0.00    -0.338 N 
HETATM   20  H6  UNL     1      23.838   0.326  52.281  1.00  0.00     0.167 HD
BRANCH  19  21
HETATM   21  C8  UNL     1      25.845   0.583  52.787  1.00  0.00     0.072 A 
HETATM   22  C9  UNL     1      26.353  -0.561  52.187  1.00  0.00     0.034 A 
HETATM   23  C10 UNL     1      27.575  -1.021  52.584  1.00  0.00     0.026 A 
HETATM   24  C11 UNL     1      28.308  -0.373  53.566  1.00  0.00     0.037 A 
HETATM   25 CL1  UNL     1      29.863  -1.053  53.997  1.00  0.00    -0.084 Cl
HETATM   26  C12 UNL     1      27.772   0.766  54.145  1.00  0.00     0.068 A 
HETATM   27  C13 UNL     1      26.551   1.241  53.761  1.00  0.00     0.144 A 
HETATM   28  F1  UNL     1      26.019   2.343  54.313  1.00  0.00    -0.204 F 
ENDBRANCH  19  21
ENDBRANCH   4  19
TORSDOF 5
ENDMDL
MODEL 9
REMARK VINA RESULT:      -8.0      2.371      3.320
REMARK  5 active torsions:
REMARK  status: ('A' for Active; 'I' for Inactive)
REMARK    1  A    between atoms: N1_1  and  C1_2 
REMARK    2  A    between atoms: C2_3  and  C3_4 
REMARK    3  A    between atoms: C3_4  and  C4_5 
REMARK    4  A    between atoms: C7_8  and  N2_9 
REMARK    5  A    between atoms: N2_9  and  C8_10 
ROOT
HETATM    1  C4  UNL     1      24.688   1.918  52.709  1.00  0.00    -0.023 A 
HETATM    2  C5  UNL     1      23.700   1.115  52.343  1.00  0.00     0.027 A 
HETATM    3  C6  UNL     1      23.528   1.876  51.111  1.00  0.00     0.040 A 
HETATM    4  C7  UNL     1      22.813   2.000  49.931  1.00  0.00     0.142 A 
HETATM    5  N3  UNL     1      23.150   3.004  49.109  1.00  0.00    -0.224 NA
HETATM    6  C14 UNL     1      24.158   3.860  49.441  1.00  0.00     0.236 A 
HETATM    7  N4  UNL     1      24.827   3.704  50.598  1.00  0.00    -0.241 NA
HETATM    8  C15 UNL     1      24.553   2.724  51.476  1.00  0.00     0.079 A 
ENDROOT
BRANCH   1   9
HETATM    9  C3  UNL     1      25.680   2.182  53.785  1.00  0.00     0.077 C 
BRANCH   9  10
HETATM   10  C2  UNL     1      26.675   1.084  53.859  1.00  0.00    -0.050 C 
HETATM   11  C1  UNL     1      27.982   1.289  53.888  1.00  0.00     0.009 C 
HETATM   12  C19 UNL     1      29.018   0.226  53.962  1.00  0.00     0.083 C 
HETATM   13  C18 UNL     1      28.457  -0.926  53.163  1.00  0.00    -0.024 C 
HETATM   14  C17 UNL     1      27.138  -1.197  53.124  1.00  0.00    -0.026 C 
HETATM   15  C16 UNL     1      26.192  -0.321  53.904  1.00  0.00     0.063 C 
BRANCH  11  16
HETATM   16  N1  UNL     1      28.346   2.663  53.841  1.00  0.00    -0.402 N 
HETATM   17  H1  UNL     1      27.471   3.205  54.065  1.00  0.00     0.156 HD
HETATM   18  H2  UNL     1      28.611   3.669  53.806  1.00  0.00     0.156 HD
ENDBRANCH  11  16
ENDBRANCH   9  10
ENDBRANCH   1   9
BRANCH   4  19
HETATM   19  N2  UNL     1      21.763   1.102  49.594  1.00  0.00    -0.338 N 
HETATM   20  H6  UNL     1      21.961   0.318  48.938  1.00  0.00     0.167 HD
BRANCH  19  21
HETATM   21  C8  UNL     1      20.456   1.194  50.087  1.00  0.00     0.072 A 
HETATM   22  C9  UNL     1      19.575   2.044  49.432  1.00  0.00     0.034 A 
HETATM   23  C10 UNL     1      18.296   2.145  49.899  1.00  0.00     0.026 A 
HETATM   24  C11 UNL     1      17.869   1.425  51.003  1.00  0.00     0.037 A 
HETATM   25 CL1  UNL     1      16.208   1.635  51.514  1.00  0.00    -0.084 Cl
HETATM   26  C12 UNL     1      18.775   0.587  51.634  1.00  0.00     0.068 A 
HETATM   27  C13 UNL     1      20.058   0.472  51.181  1.00  0.00     0.144 A 
HETATM   28  F1  UNL     1      20.946  -0.336  51.781  1.00  0.00    -0.204 F 
ENDBRANCH  19  21
ENDBRANCH   4  19
TORSDOF 5
ENDMDL
