MODEL 1
REMARK VINA RESULT:      -8.2      0.000      0.000
REMARK  7 active torsions:
REMARK  status: ('A' for Active; 'I' for Inactive)
REMARK    1  A    between atoms: C2_2  and  N1_3 
REMARK    2  A    between atoms: N1_3  and  C4_5 
REMARK    3  A    between atoms: C4_5  and  C5_6 
REMARK    4  A    between atoms: C8_11  and  N4_12 
REMARK    5  A    between atoms: N4_12  and  C9_13 
REMARK    6  A    between atoms: C18_24  and  C19_25 
REMARK    7  A    between atoms: C19_25  and  O1_26 
ROOT
HETATM    1  C5  UNL     1      27.149   7.160  48.241  1.00  0.00    -0.051 A 
HETATM    2  C6  UNL     1      26.160   6.902  49.114  1.00  0.00     0.039 A 
HETATM    3  C7  UNL     1      25.824   5.672  49.786  1.00  0.00     0.087 A 
HETATM    4  N2  UNL     1      24.878   5.468  50.607  1.00  0.00    -0.173 NA
HETATM    5  N3  UNL     1      24.700   4.191  51.170  1.00  0.00    -0.262 N 
HETATM    6  C8  UNL     1      25.543   3.054  50.874  1.00  0.00     0.122 A 
HETATM    7  C15 UNL     1      26.552   3.185  50.028  1.00  0.00     0.063 A 
HETATM    8  C16 UNL     1      26.695   4.519  49.475  1.00  0.00    -0.005 A 
HETATM    9  C17 UNL     1      27.651   4.825  48.615  1.00  0.00    -0.002 A 
HETATM   10  C18 UNL     1      28.049   6.046  47.898  1.00  0.00     0.063 A 
HETATM   11  H12 UNL     1      23.931   3.985  51.853  1.00  0.00     0.191 HD
ENDROOT
BRANCH   6  12
HETATM   12  N4  UNL     1      25.333   1.772  51.459  1.00  0.00    -0.341 N 
HETATM   13  H13 UNL     1      24.373   1.490  51.190  1.00  0.00     0.167 HD
BRANCH  12  14
HETATM   14  C9  UNL     1      26.457   1.289  52.202  1.00  0.00     0.035 A 
HETATM   15  C10 UNL     1      27.319   2.120  52.884  1.00  0.00     0.032 A 
HETATM   16  C11 UNL     1      28.357   1.480  53.548  1.00  0.00     0.046 A 
HETATM   17  C12 UNL     1      28.481   0.114  53.507  1.00  0.00     0.138 A 
HETATM   18  F1  UNL     1      29.524  -0.462  54.178  1.00  0.00    -0.204 F 
HETATM   19  C13 UNL     1      27.606  -0.709  52.816  1.00  0.00     0.074 A 
HETATM   20 CL1  UNL     1      27.801  -2.440  52.786  1.00  0.00    -0.081 Cl
HETATM   21  C14 UNL     1      26.561  -0.083  52.144  1.00  0.00     0.056 A 
ENDBRANCH  12  14
ENDBRANCH   6  12
BRANCH  10  22
HETATM   22  C19 UNL     1      29.508   6.286  48.244  1.00  0.00     0.177 C 
BRANCH  22  23
HETATM   23  O1  UNL     1      29.748   5.384  49.318  1.00  0.00    -0.400 OA
HETATM   24  H22 UNL     1      28.930   4.821  49.475  1.00  0.00     0.209 HD
ENDBRANCH  22  23
ENDBRANCH  10  22
BRANCH   1  25
HETATM   25  C4  UNL     1      27.169   8.570  47.754  1.00  0.00     0.151 C 
BRANCH  25  26
HETATM   26  N1  UNL     1      27.370   9.583  48.691  1.00  0.00    -0.413 N 
HETATM   27  C3  UNL     1      26.535  10.734  48.634  1.00  0.00     0.143 C 
BRANCH  26  28
HETATM   28  C2  UNL     1      28.395   9.552  49.637  1.00  0.00     0.112 C 
HETATM   29  C1  UNL     1      29.754   9.954  49.102  1.00  0.00     0.026 C 
ENDBRANCH  26  28
ENDBRANCH  25  26
ENDBRANCH   1  25
TORSDOF 7
ENDMDL
MODEL 2
REMARK VINA RESULT:      -7.8      5.445      8.392
REMARK  7 active torsions:
REMARK  status: ('A' for Active; 'I' for Inactive)
REMARK    1  A    between atoms: C2_2  and  N1_3 
REMARK    2  A    between atoms: N1_3  and  C4_5 
REMARK    3  A    between atoms: C4_5  and  C5_6 
REMARK    4  A    between atoms: C8_11  and  N4_12 
REMARK    5  A    between atoms: N4_12  and  C9_13 
REMARK    6  A    between atoms: C18_24  and  C19_25 
REMARK    7  A    between atoms: C19_25  and  O1_26 
ROOT
HETATM    1  C5  UNL     1      20.044   0.270  51.890  1.00  0.00    -0.051 A 
HETATM    2  C6  UNL     1      20.897   0.816  51.005  1.00  0.00     0.039 A 
HETATM    3  C7  UNL     1      22.215   1.362  51.213  1.00  0.00     0.087 A 
HETATM    4  N2  UNL     1      22.992   1.869  50.348  1.00  0.00    -0.173 NA
HETATM    5  N3  UNL     1      24.252   2.356  50.736  1.00  0.00    -0.262 N 
HETATM    6  C8  UNL     1      24.749   2.320  52.094  1.00  0.00     0.122 A 
HETATM    7  C15 UNL     1      23.999   1.806  53.055  1.00  0.00     0.063 A 
HETATM    8  C16 UNL     1      22.709   1.317  52.606  1.00  0.00    -0.005 A 
HETATM    9  C17 UNL     1      21.836   0.771  53.435  1.00  0.00    -0.002 A 
HETATM   10  C18 UNL     1      20.489   0.198  53.292  1.00  0.00     0.063 A 
HETATM   11  H12 UNL     1      24.923   2.781  50.049  1.00  0.00     0.191 HD
ENDROOT
BRANCH   6  12
HETATM   12  N4  UNL     1      26.031   2.825  52.455  1.00  0.00    -0.341 N 
HETATM   13  H13 UNL     1      25.971   3.854  52.352  1.00  0.00     0.167 HD
BRANCH  12  14
HETATM   14  C9  UNL     1      26.964   1.808  52.831  1.00  0.00     0.035 A 
HETATM   15  C10 UNL     1      28.137   2.077  53.503  1.00  0.00     0.032 A 
HETATM   16  C11 UNL     1      28.926   0.969  53.785  1.00  0.00     0.046 A 
HETATM   17  C12 UNL     1      28.530  -0.290  53.408  1.00  0.00     0.138 A 
HETATM   18  F1  UNL     1      29.347  -1.343  53.710  1.00  0.00    -0.204 F 
HETATM   19  C13 UNL     1      27.347  -0.544  52.733  1.00  0.00     0.074 A 
HETATM   20 CL1  UNL     1      26.883  -2.159  52.268  1.00  0.00    -0.081 Cl
HETATM   21  C14 UNL     1      26.546   0.555  52.442  1.00  0.00     0.056 A 
ENDBRANCH  12  14
ENDBRANCH   6  12
BRANCH  10  22
HETATM   22  C19 UNL     1      20.564  -1.210  53.856  1.00  0.00     0.177 C 
BRANCH  22  23
HETATM   23  O1  UNL     1      21.189  -1.028  55.122  1.00  0.00    -0.400 OA
HETATM   24  H22 UNL     1      22.135  -1.366  55.082  1.00  0.00     0.209 HD
ENDBRANCH  22  23
ENDBRANCH  10  22
BRANCH   1  25
HETATM   25  C4  UNL     1      18.758  -0.182  51.285  1.00  0.00     0.151 C 
BRANCH  25  26
HETATM   26  N1  UNL     1      17.570   0.276  51.855  1.00  0.00    -0.413 N 
HETATM   27  C3  UNL     1      16.850  -0.601  52.714  1.00  0.00     0.143 C 
BRANCH  26  28
HETATM   28  C2  UNL     1      17.022   1.527  51.570  1.00  0.00     0.112 C 
HETATM   29  C1  UNL     1      16.822   1.801  50.093  1.00  0.00     0.026 C 
ENDBRANCH  26  28
ENDBRANCH  25  26
ENDBRANCH   1  25
TORSDOF 7
ENDMDL
MODEL 3
REMARK VINA RESULT:      -7.6      6.201      8.876
REMARK  7 active torsions:
REMARK  status: ('A' for Active; 'I' for Inactive)
REMARK    1  A    between atoms: C2_2  and  N1_3 
REMARK    2  A    between atoms: N1_3  and  C4_5 
REMARK    3  A    between atoms: C4_5  and  C5_6 
REMARK    4  A    between atoms: C8_11  and  N4_12 
REMARK    5  A    between atoms: N4_12  and  C9_13 
REMARK    6  A    between atoms: C18_24  and  C19_25 
REMARK    7  A    between atoms: C19_25  and  O1_26 
ROOT
HETATM    1  C5  UNL     1      25.901   0.957  52.621  1.00  0.00    -0.051 A 
HETATM    2  C6  UNL     1      25.235  -0.147  53.004  1.00  0.00     0.039 A 
HETATM    3  C7  UNL     1      23.835  -0.322  53.298  1.00  0.00     0.087 A 
HETATM    4  N2  UNL     1      23.242  -1.385  53.658  1.00  0.00    -0.173 NA
HETATM    5  N3  UNL     1      21.858  -1.368  53.902  1.00  0.00    -0.262 N 
HETATM    6  C8  UNL     1      21.029  -0.191  53.771  1.00  0.00     0.122 A 
HETATM    7  C15 UNL     1      21.570   0.958  53.399  1.00  0.00     0.063 A 
HETATM    8  C16 UNL     1      23.000   0.890  53.157  1.00  0.00    -0.005 A 
HETATM    9  C17 UNL     1      23.700   1.945  52.778  1.00  0.00    -0.002 A 
HETATM   10  C18 UNL     1      25.115   2.192  52.462  1.00  0.00     0.063 A 
HETATM   11  H12 UNL     1      21.333  -2.227  54.200  1.00  0.00     0.191 HD
ENDROOT
BRANCH   6  12
HETATM   12  N4  UNL     1      19.628  -0.206  54.030  1.00  0.00    -0.341 N 
HETATM   13  H13 UNL     1      19.529  -0.182  55.061  1.00  0.00     0.167 HD
BRANCH  12  14
HETATM   14  C9  UNL     1      18.825  -0.249  52.846  1.00  0.00     0.035 A 
HETATM   15  C10 UNL     1      19.143   0.445  51.699  1.00  0.00     0.032 A 
HETATM   16  C11 UNL     1      18.249   0.291  50.647  1.00  0.00     0.046 A 
HETATM   17  C12 UNL     1      17.140  -0.506  50.778  1.00  0.00     0.138 A 
HETATM   18  F1  UNL     1      16.294  -0.619  49.711  1.00  0.00    -0.204 F 
HETATM   19  C13 UNL     1      16.833  -1.198  51.939  1.00  0.00     0.074 A 
HETATM   20 CL1  UNL     1      15.411  -2.197  52.066  1.00  0.00    -0.081 Cl
HETATM   21  C14 UNL     1      17.719  -1.053  53.003  1.00  0.00     0.056 A 
ENDBRANCH  12  14
ENDBRANCH   6  12
BRANCH  10  22
HETATM   22  C19 UNL     1      25.143   2.780  51.063  1.00  0.00     0.177 C 
BRANCH  22  23
HETATM   23  O1  UNL     1      25.989   3.916  51.196  1.00  0.00    -0.400 OA
HETATM   24  H22 UNL     1      26.944   3.647  51.037  1.00  0.00     0.209 HD
ENDBRANCH  22  23
ENDBRANCH  10  22
BRANCH   1  25
HETATM   25  C4  UNL     1      27.362   0.737  52.416  1.00  0.00     0.151 C 
BRANCH  25  26
HETATM   26  N1  UNL     1      28.222   1.020  53.476  1.00  0.00    -0.413 N 
HETATM   27  C3  UNL     1      28.659   2.363  53.653  1.00  0.00     0.143 C 
BRANCH  26  28
HETATM   28  C2  UNL     1      28.726   0.039  54.330  1.00  0.00     0.112 C 
HETATM   29  C1  UNL     1      29.765  -0.865  53.700  1.00  0.00     0.026 C 
ENDBRANCH  26  28
ENDBRANCH  25  26
ENDBRANCH   1  25
TORSDOF 7
ENDMDL
MODEL 4
REMARK VINA RESULT:      -7.5      4.208      8.307
REMARK  7 active torsions:
REMARK  status: ('A' for Active; 'I' for Inactive)
REMARK    1  A    between atoms: C2_2  and  N1_3 
REMARK    2  A    between atoms: N1_3  and  C4_5 
REMARK    3  A    between atoms: C4_5  and  C5_6 
REMARK    4  A    between atoms: C8_11  and  N4_12 
REMARK    5  A    between atoms: N4_12  and  C9_13 
REMARK    6  A    between atoms: C18_24  and  C19_25 
REMARK    7  A    between atoms: C19_25  and  O1_26 
ROOT
HETATM    1  C5  UNL     1      25.518   0.576  52.137  1.00  0.00    -0.051 A 
HETATM    2  C6  UNL     1      26.465   1.367  51.601  1.00  0.00     0.039 A 
HETATM    3  C7  UNL     1      26.326   2.592  50.855  1.00  0.00     0.087 A 
HETATM    4  N2  UNL     1      27.248   3.313  50.364  1.00  0.00    -0.173 NA
HETATM    5  N3  UNL     1      26.923   4.486  49.660  1.00  0.00    -0.262 N 
HETATM    6  C8  UNL     1      25.571   4.951  49.446  1.00  0.00     0.122 A 
HETATM    7  C15 UNL     1      24.552   4.256  49.927  1.00  0.00     0.063 A 
HETATM    8  C16 UNL     1      24.938   3.055  50.645  1.00  0.00    -0.005 A 
HETATM    9  C17 UNL     1      24.047   2.246  51.192  1.00  0.00    -0.002 A 
HETATM   10  C18 UNL     1      24.117   0.994  51.960  1.00  0.00     0.063 A 
HETATM   11  H12 UNL     1      27.658   5.107  49.242  1.00  0.00     0.191 HD
ENDROOT
BRANCH   6  12
HETATM   12  N4  UNL     1      25.275   6.143  48.725  1.00  0.00    -0.341 N 
HETATM   13  H13 UNL     1      24.422   5.938  48.174  1.00  0.00     0.167 HD
BRANCH  12  14
HETATM   14  C9  UNL     1      26.199   7.208  48.970  1.00  0.00     0.035 A 
HETATM   15  C10 UNL     1      26.170   7.978  50.112  1.00  0.00     0.032 A 
HETATM   16  C11 UNL     1      27.140   8.970  50.183  1.00  0.00     0.046 A 
HETATM   17  C12 UNL     1      28.048   9.138  49.167  1.00  0.00     0.138 A 
HETATM   18  F1  UNL     1      28.979  10.131  49.289  1.00  0.00    -0.204 F 
HETATM   19  C13 UNL     1      28.064   8.355  48.024  1.00  0.00     0.074 A 
HETATM   20 CL1  UNL     1      29.233   8.604  46.755  1.00  0.00    -0.081 Cl
HETATM   21  C14 UNL     1      27.098   7.357  47.938  1.00  0.00     0.056 A 
ENDBRANCH  12  14
ENDBRANCH   6  12
BRANCH  10  22
HETATM   22  C19 UNL     1      23.368   1.247  53.256  1.00  0.00     0.177 C 
BRANCH  22  23
HETATM   23  O1  UNL     1      22.002   1.110  52.883  1.00  0.00    -0.400 OA
HETATM   24  H22 UNL     1      21.745   1.857  52.261  1.00  0.00     0.209 HD
ENDBRANCH  22  23
ENDBRANCH  10  22
BRANCH   1  25
HETATM   25  C4  UNL     1      26.062  -0.622  52.839  1.00  0.00     0.151 C 
BRANCH  25  26
HETATM   26  N1  UNL     1      27.145  -0.442  53.698  1.00  0.00    -0.413 N 
HETATM   27  C3  UNL     1      26.941   0.297  54.898  1.00  0.00     0.143 C 
BRANCH  26  28
HETATM   28  C2  UNL     1      28.433  -0.892  53.405  1.00  0.00     0.112 C 
HETATM   29  C1  UNL     1      29.529   0.113  53.696  1.00  0.00     0.026 C 
ENDBRANCH  26  28
ENDBRANCH  25  26
ENDBRANCH   1  25
TORSDOF 7
ENDMDL
MODEL 5
REMARK VINA RESULT:      -7.4      6.499      9.159
REMARK  7 active torsions:
REMARK  status: ('A' for Active; 'I' for Inactive)
REMARK    1  A    between atoms: C2_2  and  N1_3 
REMARK    2  A    between atoms: N1_3  and  C4_5 
REMARK    3  A    between atoms: C4_5  and  C5_6 
REMARK    4  A    between atoms: C8_11  and  N4_12 
REMARK    5  A    between atoms: N4_12  and  C9_13 
REMARK    6  A    between atoms: C18_24  and  C19_25 
REMARK    7  A    between atoms: C19_25  and  O1_26 
ROOT
HETATM    1  C5  UNL     1      25.333   1.011  53.334  1.00  0.00    -0.051 A 
HETATM    2  C6  UNL     1      24.202   0.284  53.320  1.00  0.00     0.039 A 
HETATM    3  C7  UNL     1      23.040   0.407  52.476  1.00  0.00     0.087 A 
HETATM    4  N2  UNL     1      21.988  -0.302  52.493  1.00  0.00    -0.173 NA
HETATM    5  N3  UNL     1      20.947  -0.035  51.587  1.00  0.00    -0.262 N 
HETATM    6  C8  UNL     1      20.985   1.022  50.601  1.00  0.00     0.122 A 
HETATM    7  C15 UNL     1      22.048   1.806  50.518  1.00  0.00     0.063 A 
HETATM    8  C16 UNL     1      23.095   1.491  51.473  1.00  0.00    -0.005 A 
HETATM    9  C17 UNL     1      24.226   2.173  51.526  1.00  0.00    -0.002 A 
HETATM   10  C18 UNL     1      25.441   2.102  52.352  1.00  0.00     0.063 A 
HETATM   11  H12 UNL     1      20.063  -0.601  51.570  1.00  0.00     0.191 HD
ENDROOT
BRANCH   6  12
HETATM   12  N4  UNL     1      19.911   1.268  49.698  1.00  0.00    -0.341 N 
HETATM   13  H13 UNL     1      20.347   1.398  48.767  1.00  0.00     0.167 HD
BRANCH  12  14
HETATM   14  C9  UNL     1      18.623   1.262  50.322  1.00  0.00     0.035 A 
HETATM   15  C10 UNL     1      17.852   0.126  50.440  1.00  0.00     0.032 A 
HETATM   16  C11 UNL     1      16.628   0.305  51.070  1.00  0.00     0.046 A 
HETATM   17  C12 UNL     1      16.248   1.540  51.532  1.00  0.00     0.138 A 
HETATM   18  F1  UNL     1      15.031   1.657  52.143  1.00  0.00    -0.204 F 
HETATM   19  C13 UNL     1      17.035   2.674  51.406  1.00  0.00     0.074 A 
HETATM   20 CL1  UNL     1      16.514   4.226  52.003  1.00  0.00    -0.081 Cl
HETATM   21  C14 UNL     1      18.265   2.512  50.776  1.00  0.00     0.056 A 
ENDBRANCH  12  14
ENDBRANCH   6  12
BRANCH  10  22
HETATM   22  C19 UNL     1      26.605   1.966  51.386  1.00  0.00     0.177 C 
BRANCH  22  23
HETATM   23  O1  UNL     1      27.586   2.846  51.922  1.00  0.00    -0.400 OA
HETATM   24  H22 UNL     1      27.341   3.091  52.865  1.00  0.00     0.209 HD
ENDBRANCH  22  23
ENDBRANCH  10  22
BRANCH   1  25
HETATM   25  C4  UNL     1      26.314   0.576  54.371  1.00  0.00     0.151 C 
BRANCH  25  26
HETATM   26  N1  UNL     1      27.423  -0.159  53.955  1.00  0.00    -0.413 N 
HETATM   27  C3  UNL     1      27.226  -1.206  53.011  1.00  0.00     0.143 C 
BRANCH  26  28
HETATM   28  C2  UNL     1      28.704   0.038  54.470  1.00  0.00     0.112 C 
HETATM   29  C1  UNL     1      29.812  -0.594  53.653  1.00  0.00     0.026 C 
ENDBRANCH  26  28
ENDBRANCH  25  26
ENDBRANCH   1  25
TORSDOF 7
ENDMDL
MODEL 6
REMARK VINA RESULT:      -7.4      7.447      9.942
REMARK  7 active torsions:
REMARK  status: ('A' for Active; 'I' for Inactive)
REMARK    1  A    between atoms: C2_2  and  N1_3 
REMARK    2  A    between atoms: N1_3  and  C4_5 
REMARK    3  A    between atoms: C4_5  and  C5_6 
REMARK    4  A    between atoms: C8_11  and  N4_12 
REMARK    5  A    between atoms: N4_12  and  C9_13 
REMARK    6  A    between atoms: C18_24  and  C19_25 
REMARK    7  A    between atoms: C19_25  and  O1_26 
ROOT
HETATM    1  C5  UNL     1      24.278  -0.014  53.482  1.00  0.00    -0.051 A 
HETATM    2  C6  UNL     1      24.153   0.894  52.499  1.00  0.00     0.039 A 
HETATM    3  C7  UNL     1      23.046   1.143  51.610  1.00  0.00     0.087 A 
HETATM    4  N2  UNL     1      22.966   2.014  50.691  1.00  0.00    -0.173 NA
HETATM    5  N3  UNL     1      21.797   2.113  49.917  1.00  0.00    -0.262 N 
HETATM    6  C8  UNL     1      20.637   1.269  50.095  1.00  0.00     0.122 A 
HETATM    7  C15 UNL     1      20.639   0.335  51.033  1.00  0.00     0.063 A 
HETATM    8  C16 UNL     1      21.867   0.273  51.805  1.00  0.00    -0.005 A 
HETATM    9  C17 UNL     1      22.039  -0.601  52.783  1.00  0.00    -0.002 A 
HETATM   10  C18 UNL     1      23.130  -0.905  53.721  1.00  0.00     0.063 A 
HETATM   11  H12 UNL     1      21.693   2.822  49.150  1.00  0.00     0.191 HD
ENDROOT
BRANCH   6  12
HETATM   12  N4  UNL     1      19.467   1.392  49.291  1.00  0.00    -0.341 N 
HETATM   13  H13 UNL     1      19.802   1.481  48.314  1.00  0.00     0.167 HD
BRANCH  12  14
HETATM   14  C9  UNL     1      18.248   1.358  50.040  1.00  0.00     0.035 A 
HETATM   15  C10 UNL     1      17.481   0.221  50.172  1.00  0.00     0.032 A 
HETATM   16  C11 UNL     1      16.328   0.369  50.931  1.00  0.00     0.046 A 
HETATM   17  C12 UNL     1      16.010   1.578  51.497  1.00  0.00     0.138 A 
HETATM   18  F1  UNL     1      14.861   1.667  52.233  1.00  0.00    -0.204 F 
HETATM   19  C13 UNL     1      16.792   2.714  51.355  1.00  0.00     0.074 A 
HETATM   20 CL1  UNL     1      16.350   4.232  52.088  1.00  0.00    -0.081 Cl
HETATM   21  C14 UNL     1      17.951   2.581  50.596  1.00  0.00     0.056 A 
ENDBRANCH  12  14
ENDBRANCH   6  12
BRANCH  10  22
HETATM   22  C19 UNL     1      22.534  -0.804  55.114  1.00  0.00     0.177 C 
BRANCH  22  23
HETATM   23  O1  UNL     1      23.004  -1.980  55.763  1.00  0.00    -0.400 OA
HETATM   24  H22 UNL     1      22.574  -2.788  55.348  1.00  0.00     0.209 HD
ENDBRANCH  22  23
ENDBRANCH  10  22
BRANCH   1  25
HETATM   25  C4  UNL     1      25.593   0.036  54.184  1.00  0.00     0.151 C 
BRANCH  25  26
HETATM   26  N1  UNL     1      26.733  -0.323  53.464  1.00  0.00    -0.413 N 
HETATM   27  C3  UNL     1      26.744  -1.581  52.798  1.00  0.00     0.143 C 
BRANCH  26  28
HETATM   28  C2  UNL     1      27.886   0.461  53.424  1.00  0.00     0.112 C 
HETATM   29  C1  UNL     1      29.148  -0.258  53.852  1.00  0.00     0.026 C 
ENDBRANCH  26  28
ENDBRANCH  25  26
ENDBRANCH   1  25
TORSDOF 7
ENDMDL
MODEL 7
REMARK VINA RESULT:      -7.4      5.643      8.832
REMARK  7 active torsions:
REMARK  status: ('A' for Active; 'I' for Inactive)
REMARK    1  A    between atoms: C2_2  and  N1_3 
REMARK    2  A    between atoms: N1_3  and  C4_5 
REMARK    3  A    between atoms: C4_5  and  C5_6 
REMARK    4  A    between atoms: C8_11  and  N4_12 
REMARK    5  A    between atoms: N4_12  and  C9_13 
REMARK    6  A    between atoms: C18_24  and  C19_25 
REMARK    7  A    between atoms: C19_25  and  O1_26 
ROOT
HETATM    1  C5  UNL     1      19.673   0.145  51.932  1.00  0.00    -0.051 A 
HETATM    2  C6  UNL     1      20.506   0.619  50.989  1.00  0.00     0.039 A 
HETATM    3  C7  UNL     1      21.826   1.182  51.126  1.00  0.00     0.087 A 
HETATM    4  N2  UNL     1      22.584   1.619  50.207  1.00  0.00    -0.173 NA
HETATM    5  N3  UNL     1      23.850   2.138  50.530  1.00  0.00    -0.262 N 
HETATM    6  C8  UNL     1      24.373   2.213  51.875  1.00  0.00     0.122 A 
HETATM    7  C15 UNL     1      23.644   1.777  52.890  1.00  0.00     0.063 A 
HETATM    8  C16 UNL     1      22.347   1.251  52.507  1.00  0.00    -0.005 A 
HETATM    9  C17 UNL     1      21.492   0.773  53.395  1.00  0.00    -0.002 A 
HETATM   10  C18 UNL     1      20.145   0.187  53.326  1.00  0.00     0.063 A 
HETATM   11  H12 UNL     1      24.505   2.507  49.797  1.00  0.00     0.191 HD
ENDROOT
BRANCH   6  12
HETATM   12  N4  UNL     1      25.660   2.748  52.169  1.00  0.00    -0.341 N 
HETATM   13  H13 UNL     1      25.591   3.767  51.997  1.00  0.00     0.167 HD
BRANCH  12  14
HETATM   14  C9  UNL     1      26.609   1.763  52.591  1.00  0.00     0.035 A 
HETATM   15  C10 UNL     1      26.529   0.438  52.223  1.00  0.00     0.032 A 
HETATM   16  C11 UNL     1      27.533  -0.378  52.727  1.00  0.00     0.046 A 
HETATM   17  C12 UNL     1      28.521   0.136  53.529  1.00  0.00     0.138 A 
HETATM   18  F1  UNL     1      29.483  -0.715  53.997  1.00  0.00    -0.204 F 
HETATM   19  C13 UNL     1      28.588   1.472  53.890  1.00  0.00     0.074 A 
HETATM   20 CL1  UNL     1      29.858   2.084  54.914  1.00  0.00    -0.081 Cl
HETATM   21  C14 UNL     1      27.589   2.303  53.394  1.00  0.00     0.056 A 
ENDBRANCH  12  14
ENDBRANCH   6  12
BRANCH  10  22
HETATM   22  C19 UNL     1      20.235  -1.170  54.001  1.00  0.00     0.177 C 
BRANCH  22  23
HETATM   23  O1  UNL     1      21.555  -1.606  53.694  1.00  0.00    -0.400 OA
HETATM   24  H22 UNL     1      21.575  -1.992  52.767  1.00  0.00     0.209 HD
ENDBRANCH  22  23
ENDBRANCH  10  22
BRANCH   1  25
HETATM   25  C4  UNL     1      18.376  -0.357  51.392  1.00  0.00     0.151 C 
BRANCH  25  26
HETATM   26  N1  UNL     1      17.200   0.219  51.872  1.00  0.00    -0.413 N 
HETATM   27  C3  UNL     1      16.937   1.583  51.558  1.00  0.00     0.143 C 
BRANCH  26  28
HETATM   28  C2  UNL     1      16.304  -0.457  52.699  1.00  0.00     0.112 C 
HETATM   29  C1  UNL     1      16.518  -1.955  52.763  1.00  0.00     0.026 C 
ENDBRANCH  26  28
ENDBRANCH  25  26
ENDBRANCH   1  25
TORSDOF 7
ENDMDL
MODEL 8
REMARK VINA RESULT:      -7.4      4.749      8.544
REMARK  7 active torsions:
REMARK  status: ('A' for Active; 'I' for Inactive)
REMARK    1  A    between atoms: C2_2  and  N1_3 
REMARK    2  A    between atoms: N1_3  and  C4_5 
REMARK    3  A    between atoms: C4_5  and  C5_6 
REMARK    4  A    between atoms: C8_11  and  N4_12 
REMARK    5  A    between atoms: N4_12  and  C9_13 
REMARK    6  A    between atoms: C18_24  and  C19_25 
REMARK    7  A    between atoms: C19_25  and  O1_26 
ROOT
HETATM    1  C5  UNL     1      25.298   4.146  49.800  1.00  0.00    -0.051 A 
HETATM    2  C6  UNL     1      26.600   4.066  49.477  1.00  0.00     0.039 A 
HETATM    3  C7  UNL     1      27.440   5.023  48.800  1.00  0.00     0.087 A 
HETATM    4  N2  UNL     1      28.671   4.911  48.513  1.00  0.00    -0.173 NA
HETATM    5  N3  UNL     1      29.334   5.955  47.844  1.00  0.00    -0.262 N 
HETATM    6  C8  UNL     1      28.698   7.191  47.446  1.00  0.00     0.122 A 
HETATM    7  C15 UNL     1      27.416   7.386  47.710  1.00  0.00     0.063 A 
HETATM    8  C16 UNL     1      26.776   6.281  48.401  1.00  0.00    -0.005 A 
HETATM    9  C17 UNL     1      25.499   6.311  48.742  1.00  0.00    -0.002 A 
HETATM   10  C18 UNL     1      24.588   5.381  49.428  1.00  0.00     0.063 A 
HETATM   11  H12 UNL     1      30.351   5.899  47.591  1.00  0.00     0.191 HD
ENDROOT
BRANCH   6  12
HETATM   12  N4  UNL     1      29.397   8.229  46.767  1.00  0.00    -0.341 N 
HETATM   13  H13 UNL     1      29.469   7.925  45.779  1.00  0.00     0.167 HD
BRANCH  12  14
HETATM   14  C9  UNL     1      29.768   9.322  47.613  1.00  0.00     0.035 A 
HETATM   15  C10 UNL     1      30.398   9.150  48.827  1.00  0.00     0.032 A 
HETATM   16  C11 UNL     1      30.682  10.321  49.517  1.00  0.00     0.046 A 
HETATM   17  C12 UNL     1      30.346  11.545  48.995  1.00  0.00     0.138 A 
HETATM   18  F1  UNL     1      30.648  12.663  49.720  1.00  0.00    -0.204 F 
HETATM   19  C13 UNL     1      29.712  11.701  47.772  1.00  0.00     0.074 A 
HETATM   20 CL1  UNL     1      29.299  13.274  47.145  1.00  0.00    -0.081 Cl
HETATM   21  C14 UNL     1      29.420  10.537  47.068  1.00  0.00     0.056 A 
ENDBRANCH  12  14
ENDBRANCH   6  12
BRANCH  10  22
HETATM   22  C19 UNL     1      24.002   6.148  50.600  1.00  0.00     0.177 C 
BRANCH  22  23
HETATM   23  O1  UNL     1      25.145   6.715  51.231  1.00  0.00    -0.400 OA
HETATM   24  H22 UNL     1      25.763   5.982  51.532  1.00  0.00     0.209 HD
ENDBRANCH  22  23
ENDBRANCH  10  22
BRANCH   1  25
HETATM   25  C4  UNL     1      24.777   2.936  50.500  1.00  0.00     0.151 C 
BRANCH  25  26
HETATM   26  N1  UNL     1      25.115   2.760  51.842  1.00  0.00    -0.413 N 
HETATM   27  C3  UNL     1      24.203   3.218  52.834  1.00  0.00     0.143 C 
BRANCH  26  28
HETATM   28  C2  UNL     1      26.332   2.219  52.256  1.00  0.00     0.112 C 
HETATM   29  C1  UNL     1      26.535   0.768  51.873  1.00  0.00     0.026 C 
ENDBRANCH  26  28
ENDBRANCH  25  26
ENDBRANCH   1  25
TORSDOF 7
ENDMDL
MODEL 9
REMARK VINA RESULT:      -7.3      6.444      9.324
REMARK  7 active torsions:
REMARK  status: ('A' for Active; 'I' for Inactive)
REMARK    1  A    between atoms: C2_2  and  N1_3 
REMARK    2  A    between atoms: N1_3  and  C4_5 
REMARK    3  A    between atoms: C4_5  and  C5_6 
REMARK    4  A    between atoms: C8_11  and  N4_12 
REMARK    5  A    between atoms: N4_12  and  C9_13 
REMARK    6  A    between atoms: C18_24  and  C19_25 
REMARK    7  A    between atoms: C19_25  and  O1_26 
ROOT
HETATM    1  C5  UNL     1      18.763   0.344  51.620  1.00  0.00    -0.051 A 
HETATM    2  C6  UNL     1      20.000   0.654  51.193  1.00  0.00     0.039 A 
HETATM    3  C7  UNL     1      21.276   0.415  51.819  1.00  0.00     0.087 A 
HETATM    4  N2  UNL     1      22.427   0.724  51.382  1.00  0.00    -0.173 NA
HETATM    5  N3  UNL     1      23.572   0.410  52.135  1.00  0.00    -0.262 N 
HETATM    6  C8  UNL     1      23.537  -0.263  53.414  1.00  0.00     0.122 A 
HETATM    7  C15 UNL     1      22.376  -0.619  53.939  1.00  0.00     0.063 A 
HETATM    8  C16 UNL     1      21.225  -0.274  53.125  1.00  0.00    -0.005 A 
HETATM    9  C17 UNL     1      19.989  -0.558  53.499  1.00  0.00    -0.002 A 
HETATM   10  C18 UNL     1      18.655  -0.348  52.915  1.00  0.00     0.063 A 
HETATM   11  H12 UNL     1      24.539   0.648  51.806  1.00  0.00     0.191 HD
ENDROOT
BRANCH   6  12
HETATM   12  N4  UNL     1      24.716  -0.564  54.155  1.00  0.00    -0.341 N 
HETATM   13  H13 UNL     1      24.507  -1.431  54.682  1.00  0.00     0.167 HD
BRANCH  12  14
HETATM   14  C9  UNL     1      25.777   0.375  53.955  1.00  0.00     0.035 A 
HETATM   15  C10 UNL     1      25.569   1.735  53.868  1.00  0.00     0.032 A 
HETATM   16  C11 UNL     1      26.712   2.498  53.670  1.00  0.00     0.046 A 
HETATM   17  C12 UNL     1      27.946   1.904  53.574  1.00  0.00     0.138 A 
HETATM   18  F1  UNL     1      29.036   2.704  53.376  1.00  0.00    -0.204 F 
HETATM   19  C13 UNL     1      28.139   0.534  53.662  1.00  0.00     0.074 A 
HETATM   20 CL1  UNL     1      29.722  -0.181  53.531  1.00  0.00    -0.081 Cl
HETATM   21  C14 UNL     1      27.003  -0.244  53.860  1.00  0.00     0.056 A 
ENDBRANCH  12  14
ENDBRANCH   6  12
BRANCH  10  22
HETATM   22  C19 UNL     1      18.001  -1.717  52.845  1.00  0.00     0.177 C 
BRANCH  22  23
HETATM   23  O1  UNL     1      17.779  -2.049  54.211  1.00  0.00    -0.400 OA
HETATM   24  H22 UNL     1      18.495  -2.681  54.525  1.00  0.00     0.209 HD
ENDBRANCH  22  23
ENDBRANCH  10  22
BRANCH   1  25
HETATM   25  C4  UNL     1      17.681   0.764  50.683  1.00  0.00     0.151 C 
BRANCH  25  26
HETATM   26  N1  UNL     1      16.705   1.638  51.160  1.00  0.00    -0.413 N 
HETATM   27  C3  UNL     1      17.104   2.946  51.556  1.00  0.00     0.143 C 
BRANCH  26  28
HETATM   28  C2  UNL     1      15.371   1.270  51.331  1.00  0.00     0.112 C 
HETATM   29  C1  UNL     1      15.070   0.607  52.659  1.00  0.00     0.026 C 
ENDBRANCH  26  28
ENDBRANCH  25  26
ENDBRANCH   1  25
TORSDOF 7
ENDMDL
