MODEL 1
REMARK VINA RESULT:      -8.2      0.000      0.000
REMARK  2 active torsions:
REMARK  status: ('A' for Active; 'I' for Inactive)
REMARK    1  A    between atoms: C8_12  and  N4_13 
REMARK    2  A    between atoms: N4_13  and  C9_14 
ROOT
HETATM    1  C1  UNL     1      26.416   0.457  54.836  1.00  0.00     0.020 C 
HETATM    2  C2  UNL     1      26.787  -0.410  53.702  1.00  0.00     0.012 C 
HETATM    3  C3  UNL     1      27.741  -1.232  53.117  1.00  0.00     0.009 A 
HETATM    4  C4  UNL     1      29.092  -1.939  53.003  1.00  0.00     0.001 A 
HETATM    5  C5  UNL     1      30.022  -1.565  54.022  1.00  0.00     0.000 A 
HETATM    6  N1  UNL     1      28.832  -0.874  54.130  1.00  0.00     0.000 N 
HETATM    7  C6  UNL     1      29.090   0.435  53.400  1.00  0.00     0.314 C 
HETATM    8  O1  UNL     1      30.164   0.077  53.446  1.00  0.00    -0.262 OA
HETATM    9  N2  UNL     1      28.083   1.391  53.039  1.00  0.00    -0.314 N 
HETATM   10  C7  UNL     1      27.122   2.301  52.696  1.00  0.00     0.206 C 
HETATM   11  N3  UNL     1      26.015   1.628  52.610  1.00  0.00    -0.258 NA
HETATM   12  C8  UNL     1      25.748   0.238  52.797  1.00  0.00     0.216 C 
HETATM   13  H7  UNL     1      28.368  -1.665  54.727  1.00  0.00     0.000 HD
HETATM   14  H8  UNL     1      28.969   1.957  52.799  1.00  0.00     0.170 HD
ENDROOT
BRANCH  12  15
HETATM   15  N4  UNL     1      24.478  -0.131  53.169  1.00  0.00    -0.366 N 
HETATM   16  H11 UNL     1      24.121   0.696  52.591  1.00  0.00     0.161 HD
BRANCH  15  17
HETATM   17  C9  UNL     1      23.164  -0.493  53.540  1.00  0.00     0.030 A 
HETATM   18  C10 UNL     1      22.532  -1.158  54.557  1.00  0.00     0.029 A 
HETATM   19  C11 UNL     1      21.177  -1.280  54.594  1.00  0.00     0.004 A 
HETATM   20  C12 UNL     1      20.450  -0.718  53.581  1.00  0.00     0.019 A 
HETATM   21  C13 UNL     1      20.965  -0.027  52.507  1.00  0.00     0.013 A 
HETATM   22 BR1  UNL     1      19.762   0.671  51.210  1.00  0.00    -0.051 Br
HETATM   23  C14 UNL     1      22.356   0.063  52.529  1.00  0.00     0.048 A 
ENDBRANCH  15  17
ENDBRANCH  12  15
TORSDOF 2
ENDMDL
MODEL 2
REMARK VINA RESULT:      -7.3      3.452      4.810
REMARK  2 active torsions:
REMARK  status: ('A' for Active; 'I' for Inactive)
REMARK    1  A    between atoms: C8_12  and  N4_13 
REMARK    2  A    between atoms: N4_13  and  C9_14 
ROOT
HETATM    1  C1  UNL     1      26.409   0.434  51.604  1.00  0.00     0.020 C 
HETATM    2  C2  UNL     1      26.843   1.387  52.642  1.00  0.00     0.012 C 
HETATM    3  C3  UNL     1      27.831   1.781  53.535  1.00  0.00     0.009 A 
HETATM    4  C4  UNL     1      29.175   1.687  54.257  1.00  0.00     0.001 A 
HETATM    5  C5  UNL     1      29.913   0.503  53.943  1.00  0.00     0.000 A 
HETATM    6  N1  UNL     1      28.688   0.531  53.309  1.00  0.00     0.000 N 
HETATM    7  C6  UNL     1      27.773  -0.269  54.224  1.00  0.00     0.314 C 
HETATM    8  O1  UNL     1      28.756  -0.556  54.708  1.00  0.00    -0.262 OA
HETATM    9  N2  UNL     1      26.344  -0.331  54.113  1.00  0.00    -0.314 N 
HETATM   10  C7  UNL     1      24.983  -0.388  54.006  1.00  0.00     0.206 C 
HETATM   11  N3  UNL     1      24.630   0.708  53.406  1.00  0.00    -0.258 NA
HETATM   12  C8  UNL     1      25.408   1.808  52.932  1.00  0.00     0.216 C 
HETATM   13  H7  UNL     1      29.081   1.102  52.462  1.00  0.00     0.000 HD
HETATM   14  H8  UNL     1      26.505  -1.097  54.855  1.00  0.00     0.170 HD
ENDROOT
BRANCH  12  15
HETATM   15  N4  UNL     1      24.901   2.560  51.901  1.00  0.00    -0.366 N 
HETATM   16  H11 UNL     1      25.745   2.246  51.323  1.00  0.00     0.161 HD
BRANCH  15  17
HETATM   17  C9  UNL     1      24.399   3.329  50.828  1.00  0.00     0.030 A 
HETATM   18  C10 UNL     1      23.206   3.544  50.191  1.00  0.00     0.029 A 
HETATM   19  C11 UNL     1      23.096   4.432  49.166  1.00  0.00     0.004 A 
HETATM   20  C12 UNL     1      24.217   5.114  48.779  1.00  0.00     0.019 A 
HETATM   21  C13 UNL     1      25.469   4.987  49.337  1.00  0.00     0.013 A 
HETATM   22 BR1  UNL     1      26.891   6.039  48.636  1.00  0.00    -0.051 Br
HETATM   23  C14 UNL     1      25.514   4.064  50.381  1.00  0.00     0.048 A 
ENDBRANCH  15  17
ENDBRANCH  12  15
TORSDOF 2
ENDMDL
MODEL 3
REMARK VINA RESULT:      -7.3      4.167      6.706
REMARK  2 active torsions:
REMARK  status: ('A' for Active; 'I' for Inactive)
REMARK    1  A    between atoms: C8_12  and  N4_13 
REMARK    2  A    between atoms: N4_13  and  C9_14 
ROOT
HETATM    1  C1  UNL     1      24.758   2.614  53.106  1.00  0.00     0.020 C 
HETATM    2  C2  UNL     1      24.035   1.691  52.211  1.00  0.00     0.012 C 
HETATM    3  C3  UNL     1      23.030   0.743  52.067  1.00  0.00     0.009 A 
HETATM    4  C4  UNL     1      21.893  -0.167  52.534  1.00  0.00     0.001 A 
HETATM    5  C5  UNL     1      21.692  -0.153  53.949  1.00  0.00     0.000 A 
HETATM    6  N1  UNL     1      22.755   0.643  53.570  1.00  0.00     0.000 N 
HETATM    7  C6  UNL     1      23.974  -0.250  53.742  1.00  0.00     0.314 C 
HETATM    8  O1  UNL     1      23.230  -0.906  54.287  1.00  0.00    -0.262 OA
HETATM    9  N2  UNL     1      25.290   0.050  53.256  1.00  0.00    -0.314 N 
HETATM   10  C7  UNL     1      26.544   0.336  52.793  1.00  0.00     0.206 C 
HETATM   11  N3  UNL     1      26.373   1.146  51.793  1.00  0.00    -0.258 NA
HETATM   12  C8  UNL     1      25.182   1.676  51.210  1.00  0.00     0.216 C 
HETATM   13  H7  UNL     1      22.107   1.507  53.385  1.00  0.00     0.000 HD
HETATM   14  H8  UNL     1      25.507  -0.821  53.855  1.00  0.00     0.170 HD
ENDROOT
BRANCH  12  15
HETATM   15  N4  UNL     1      25.266   2.875  50.546  1.00  0.00    -0.366 N 
HETATM   16  H11 UNL     1      25.778   2.351  49.766  1.00  0.00     0.161 HD
BRANCH  15  17
HETATM   17  C9  UNL     1      25.365   4.098  49.846  1.00  0.00     0.030 A 
HETATM   18  C10 UNL     1      24.558   5.148  49.498  1.00  0.00     0.029 A 
HETATM   19  C11 UNL     1      25.042   6.223  48.818  1.00  0.00     0.004 A 
HETATM   20  C12 UNL     1      26.369   6.233  48.485  1.00  0.00     0.019 A 
HETATM   21  C13 UNL     1      27.279   5.242  48.775  1.00  0.00     0.013 A 
HETATM   22 BR1  UNL     1      29.082   5.466  48.212  1.00  0.00    -0.051 Br
HETATM   23  C14 UNL     1      26.721   4.172  49.473  1.00  0.00     0.048 A 
ENDBRANCH  15  17
ENDBRANCH  12  15
TORSDOF 2
ENDMDL
MODEL 4
REMARK VINA RESULT:      -7.2      8.084      9.492
REMARK  2 active torsions:
REMARK  status: ('A' for Active; 'I' for Inactive)
REMARK    1  A    between atoms: C8_12  and  N4_13 
REMARK    2  A    between atoms: N4_13  and  C9_14 
ROOT
HETATM    1  C1  UNL     1      31.655   5.864  49.344  1.00  0.00     0.020 C 
HETATM    2  C2  UNL     1      31.750   5.222  48.020  1.00  0.00     0.012 C 
HETATM    3  C3  UNL     1      32.362   4.262  47.222  1.00  0.00     0.009 A 
HETATM    4  C4  UNL     1      33.350   3.141  46.900  1.00  0.00     0.001 A 
HETATM    5  C5  UNL     1      34.277   2.873  47.954  1.00  0.00     0.000 A 
HETATM    6  N1  UNL     1      33.433   3.920  48.263  1.00  0.00     0.000 N 
HETATM    7  C6  UNL     1      34.218   5.163  47.875  1.00  0.00     0.314 C 
HETATM    8  O1  UNL     1      35.069   4.420  47.802  1.00  0.00    -0.262 OA
HETATM    9  N2  UNL     1      33.675   6.489  47.792  1.00  0.00    -0.314 N 
HETATM   10  C7  UNL     1      33.157   7.751  47.712  1.00  0.00     0.206 C 
HETATM   11  N3  UNL     1      31.887   7.597  47.491  1.00  0.00    -0.258 NA
HETATM   12  C8  UNL     1      31.101   6.415  47.333  1.00  0.00     0.216 C 
HETATM   13  H7  UNL     1      32.662   3.249  48.657  1.00  0.00     0.000 HD
HETATM   14  H8  UNL     1      34.725   6.711  47.676  1.00  0.00     0.170 HD
ENDROOT
BRANCH  12  15
HETATM   15  N4  UNL     1      29.763   6.484  47.635  1.00  0.00    -0.366 N 
HETATM   16  H11 UNL     1      29.658   5.530  47.163  1.00  0.00     0.161 HD
BRANCH  15  17
HETATM   17  C9  UNL     1      28.384   6.536  47.935  1.00  0.00     0.030 A 
HETATM   18  C10 UNL     1      27.333   7.400  47.781  1.00  0.00     0.029 A 
HETATM   19  C11 UNL     1      26.075   7.069  48.183  1.00  0.00     0.004 A 
HETATM   20  C12 UNL     1      25.880   5.841  48.751  1.00  0.00     0.019 A 
HETATM   21  C13 UNL     1      26.851   4.887  48.960  1.00  0.00     0.013 A 
HETATM   22 BR1  UNL     1      26.352   3.241  49.772  1.00  0.00    -0.051 Br
HETATM   23  C14 UNL     1      28.114   5.286  48.526  1.00  0.00     0.048 A 
ENDBRANCH  15  17
ENDBRANCH  12  15
TORSDOF 2
ENDMDL
MODEL 5
REMARK VINA RESULT:      -7.0      4.754      7.145
REMARK  2 active torsions:
REMARK  status: ('A' for Active; 'I' for Inactive)
REMARK    1  A    between atoms: C8_12  and  N4_13 
REMARK    2  A    between atoms: N4_13  and  C9_14 
ROOT
HETATM    1  C1  UNL     1      22.532   1.678  50.584  1.00  0.00     0.020 C 
HETATM    2  C2  UNL     1      23.119   1.574  51.933  1.00  0.00     0.012 C 
HETATM    3  C3  UNL     1      23.289   0.814  53.084  1.00  0.00     0.009 A 
HETATM    4  C4  UNL     1      23.098  -0.398  53.995  1.00  0.00     0.001 A 
HETATM    5  C5  UNL     1      22.174  -1.360  53.482  1.00  0.00     0.000 A 
HETATM    6  N1  UNL     1      22.286  -0.260  52.656  1.00  0.00     0.000 N 
HETATM    7  C6  UNL     1      21.133   0.641  53.071  1.00  0.00     0.314 C 
HETATM    8  O1  UNL     1      20.804  -0.289  53.629  1.00  0.00    -0.262 OA
HETATM    9  N2  UNL     1      20.964   2.005  52.661  1.00  0.00    -0.314 N 
HETATM   10  C7  UNL     1      20.804   3.305  52.270  1.00  0.00     0.206 C 
HETATM   11  N3  UNL     1      21.995   3.736  51.985  1.00  0.00    -0.258 NA
HETATM   12  C8  UNL     1      23.265   3.086  52.045  1.00  0.00     0.216 C 
HETATM   13  H7  UNL     1      23.147  -0.682  52.127  1.00  0.00     0.000 HD
HETATM   14  H8  UNL     1      20.014   1.838  53.144  1.00  0.00     0.170 HD
ENDROOT
BRANCH  12  15
HETATM   15  N4  UNL     1      24.264   3.543  51.220  1.00  0.00    -0.366 N 
HETATM   16  H11 UNL     1      24.943   2.947  51.795  1.00  0.00     0.161 HD
BRANCH  15  17
HETATM   17  C9  UNL     1      25.306   4.001  50.385  1.00  0.00     0.030 A 
HETATM   18  C10 UNL     1      26.454   3.515  49.818  1.00  0.00     0.029 A 
HETATM   19  C11 UNL     1      27.224   4.283  48.999  1.00  0.00     0.004 A 
HETATM   20  C12 UNL     1      26.822   5.566  48.751  1.00  0.00     0.019 A 
HETATM   21  C13 UNL     1      25.694   6.169  49.259  1.00  0.00     0.013 A 
HETATM   22 BR1  UNL     1      25.329   7.973  48.780  1.00  0.00    -0.051 Br
HETATM   23  C14 UNL     1      24.950   5.330  50.088  1.00  0.00     0.048 A 
ENDBRANCH  15  17
ENDBRANCH  12  15
TORSDOF 2
ENDMDL
MODEL 6
REMARK VINA RESULT:      -7.0      4.897      6.570
REMARK  2 active torsions:
REMARK  status: ('A' for Active; 'I' for Inactive)
REMARK    1  A    between atoms: C8_12  and  N4_13 
REMARK    2  A    between atoms: N4_13  and  C9_14 
ROOT
HETATM    1  C1  UNL     1      24.390   4.918  51.060  1.00  0.00     0.020 C 
HETATM    2  C2  UNL     1      25.322   4.378  50.052  1.00  0.00     0.012 C 
HETATM    3  C3  UNL     1      26.395   4.611  49.202  1.00  0.00     0.009 A 
HETATM    4  C4  UNL     1      27.484   5.445  48.528  1.00  0.00     0.001 A 
HETATM    5  C5  UNL     1      27.424   6.836  48.851  1.00  0.00     0.000 A 
HETATM    6  N1  UNL     1      26.399   6.124  49.440  1.00  0.00     0.000 N 
HETATM    7  C6  UNL     1      25.229   6.285  48.481  1.00  0.00     0.314 C 
HETATM    8  O1  UNL     1      25.903   7.075  48.029  1.00  0.00    -0.262 OA
HETATM    9  N2  UNL     1      24.006   5.537  48.539  1.00  0.00    -0.314 N 
HETATM   10  C7  UNL     1      22.841   4.824  48.596  1.00  0.00     0.206 C 
HETATM   11  N3  UNL     1      23.138   3.713  49.198  1.00  0.00    -0.258 NA
HETATM   12  C8  UNL     1      24.378   3.231  49.716  1.00  0.00     0.216 C 
HETATM   13  H7  UNL     1      27.011   5.863  50.309  1.00  0.00     0.000 HD
HETATM   14  H8  UNL     1      23.740   6.268  47.792  1.00  0.00     0.170 HD
ENDROOT
BRANCH  12  15
HETATM   15  N4  UNL     1      24.339   2.315  50.739  1.00  0.00    -0.366 N 
HETATM   16  H11 UNL     1      24.589   3.118  51.401  1.00  0.00     0.161 HD
BRANCH  15  17
HETATM   17  C9  UNL     1      24.305   1.391  51.806  1.00  0.00     0.030 A 
HETATM   18  C10 UNL     1      23.381   0.823  52.642  1.00  0.00     0.029 A 
HETATM   19  C11 UNL     1      23.737  -0.105  53.572  1.00  0.00     0.004 A 
HETATM   20  C12 UNL     1      25.054  -0.464  53.655  1.00  0.00     0.019 A 
HETATM   21  C13 UNL     1      26.074   0.031  52.875  1.00  0.00     0.013 A 
HETATM   22 BR1  UNL     1      27.840  -0.613  53.166  1.00  0.00    -0.051 Br
HETATM   23  C14 UNL     1      25.644   0.976  51.943  1.00  0.00     0.048 A 
ENDBRANCH  15  17
ENDBRANCH  12  15
TORSDOF 2
ENDMDL
MODEL 7
REMARK VINA RESULT:      -6.9      5.041      6.779
REMARK  2 active torsions:
REMARK  status: ('A' for Active; 'I' for Inactive)
REMARK    1  A    between atoms: C8_12  and  N4_13 
REMARK    2  A    between atoms: N4_13  and  C9_14 
ROOT
HETATM    1  C1  UNL     1      23.460   5.150  52.873  1.00  0.00     0.020 C 
HETATM    2  C2  UNL     1      23.951   4.965  51.495  1.00  0.00     0.012 C 
HETATM    3  C3  UNL     1      24.718   5.457  50.445  1.00  0.00     0.009 A 
HETATM    4  C4  UNL     1      25.626   6.460  49.733  1.00  0.00     0.001 A 
HETATM    5  C5  UNL     1      25.836   7.667  50.468  1.00  0.00     0.000 A 
HETATM    6  N1  UNL     1      24.976   6.808  51.121  1.00  0.00     0.000 N 
HETATM    7  C6  UNL     1      23.589   7.284  50.716  1.00  0.00     0.314 C 
HETATM    8  O1  UNL     1      24.172   8.174  50.328  1.00  0.00    -0.262 OA
HETATM    9  N2  UNL     1      22.369   6.567  50.953  1.00  0.00    -0.314 N 
HETATM   10  C7  UNL     1      21.207   5.883  51.179  1.00  0.00     0.206 C 
HETATM   11  N3  UNL     1      21.547   4.634  51.272  1.00  0.00    -0.258 NA
HETATM   12  C8  UNL     1      22.822   3.999  51.163  1.00  0.00     0.216 C 
HETATM   13  H7  UNL     1      25.798   6.271  51.605  1.00  0.00     0.000 HD
HETATM   14  H8  UNL     1      21.968   7.505  50.603  1.00  0.00     0.170 HD
ENDROOT
BRANCH  12  15
HETATM   15  N4  UNL     1      23.002   2.798  51.805  1.00  0.00    -0.366 N 
HETATM   16  H11 UNL     1      23.830   3.249  52.311  1.00  0.00     0.161 HD
BRANCH  15  17
HETATM   17  C9  UNL     1      23.207   1.572  52.475  1.00  0.00     0.030 A 
HETATM   18  C10 UNL     1      22.472   0.646  53.166  1.00  0.00     0.029 A 
HETATM   19  C11 UNL     1      23.038  -0.489  53.659  1.00  0.00     0.004 A 
HETATM   20  C12 UNL     1      24.375  -0.688  53.448  1.00  0.00     0.019 A 
HETATM   21  C13 UNL     1      25.219   0.164  52.772  1.00  0.00     0.013 A 
HETATM   22 BR1  UNL     1      27.051  -0.316  52.598  1.00  0.00    -0.051 Br
HETATM   23  C14 UNL     1      24.578   1.305  52.292  1.00  0.00     0.048 A 
ENDBRANCH  15  17
ENDBRANCH  12  15
TORSDOF 2
ENDMDL
MODEL 8
REMARK VINA RESULT:      -6.8      4.295      7.171
REMARK  2 active torsions:
REMARK  status: ('A' for Active; 'I' for Inactive)
REMARK    1  A    between atoms: C8_12  and  N4_13 
REMARK    2  A    between atoms: N4_13  and  C9_14 
ROOT
HETATM    1  C1  UNL     1      23.943   3.357  52.749  1.00  0.00     0.020 C 
HETATM    2  C2  UNL     1      24.012   2.751  51.407  1.00  0.00     0.012 C 
HETATM    3  C3  UNL     1      23.658   2.827  50.065  1.00  0.00     0.009 A 
HETATM    4  C4  UNL     1      22.979   3.427  48.834  1.00  0.00     0.001 A 
HETATM    5  C5  UNL     1      22.146   4.550  49.129  1.00  0.00     0.000 A 
HETATM    6  N1  UNL     1      22.704   4.007  50.269  1.00  0.00     0.000 N 
HETATM    7  C6  UNL     1      21.636   3.063  50.797  1.00  0.00     0.314 C 
HETATM    8  O1  UNL     1      20.995   3.600  50.034  1.00  0.00    -0.262 OA
HETATM    9  N2  UNL     1      21.833   2.093  51.836  1.00  0.00    -0.314 N 
HETATM   10  C7  UNL     1      22.022   1.169  52.826  1.00  0.00     0.206 C 
HETATM   11  N3  UNL     1      23.292   0.895  52.813  1.00  0.00    -0.258 NA
HETATM   12  C8  UNL     1      24.346   1.381  51.982  1.00  0.00     0.216 C 
HETATM   13  H7  UNL     1      23.616   4.604  50.168  1.00  0.00     0.000 HD
HETATM   14  H8  UNL     1      20.762   2.031  51.727  1.00  0.00     0.170 HD
ENDROOT
BRANCH  12  15
HETATM   15  N4  UNL     1      25.625   1.362  52.483  1.00  0.00    -0.366 N 
HETATM   16  H11 UNL     1      25.913   1.949  51.637  1.00  0.00     0.161 HD
BRANCH  15  17
HETATM   17  C9  UNL     1      26.947   1.353  52.980  1.00  0.00     0.030 A 
HETATM   18  C10 UNL     1      27.853   2.238  53.499  1.00  0.00     0.029 A 
HETATM   19  C11 UNL     1      29.081   1.834  53.925  1.00  0.00     0.004 A 
HETATM   20  C12 UNL     1      29.395   0.506  53.821  1.00  0.00     0.019 A 
HETATM   21  C13 UNL     1      28.575  -0.479  53.319  1.00  0.00     0.013 A 
HETATM   22 BR1  UNL     1      29.222  -2.266  53.269  1.00  0.00    -0.051 Br
HETATM   23  C14 UNL     1      27.334   0.001  52.902  1.00  0.00     0.048 A 
ENDBRANCH  15  17
ENDBRANCH  12  15
TORSDOF 2
ENDMDL
MODEL 9
REMARK VINA RESULT:      -6.8      4.463      6.888
REMARK  2 active torsions:
REMARK  status: ('A' for Active; 'I' for Inactive)
REMARK    1  A    between atoms: C8_12  and  N4_13 
REMARK    2  A    between atoms: N4_13  and  C9_14 
ROOT
HETATM    1  C1  UNL     1      24.175   3.239  53.259  1.00  0.00     0.020 C 
HETATM    2  C2  UNL     1      24.459   3.488  51.833  1.00  0.00     0.012 C 
HETATM    3  C3  UNL     1      24.590   4.415  50.807  1.00  0.00     0.009 A 
HETATM    4  C4  UNL     1      24.569   5.806  50.174  1.00  0.00     0.001 A 
HETATM    5  C5  UNL     1      24.102   6.830  51.055  1.00  0.00     0.000 A 
HETATM    6  N1  UNL     1      24.063   5.583  51.645  1.00  0.00     0.000 N 
HETATM    7  C6  UNL     1      22.636   5.107  51.425  1.00  0.00     0.314 C 
HETATM    8  O1  UNL     1      22.481   6.187  51.123  1.00  0.00    -0.262 OA
HETATM    9  N2  UNL     1      22.168   3.770  51.655  1.00  0.00    -0.314 N 
HETATM   10  C7  UNL     1      21.723   2.496  51.875  1.00  0.00     0.206 C 
HETATM   11  N3  UNL     1      22.768   1.735  51.761  1.00  0.00    -0.258 NA
HETATM   12  C8  UNL     1      24.128   2.049  51.460  1.00  0.00     0.216 C 
HETATM   13  H7  UNL     1      25.103   5.653  51.980  1.00  0.00     0.000 HD
HETATM   14  H8  UNL     1      21.227   4.267  51.477  1.00  0.00     0.170 HD
ENDROOT
BRANCH  12  15
HETATM   15  N4  UNL     1      25.103   1.191  51.907  1.00  0.00    -0.366 N 
HETATM   16  H11 UNL     1      25.791   1.730  51.288  1.00  0.00     0.161 HD
BRANCH  15  17
HETATM   17  C9  UNL     1      26.121   0.320  52.352  1.00  0.00     0.030 A 
HETATM   18  C10 UNL     1      26.424  -1.015  52.299  1.00  0.00     0.029 A 
HETATM   19  C11 UNL     1      27.573  -1.506  52.839  1.00  0.00     0.004 A 
HETATM   20  C12 UNL     1      28.430  -0.628  53.444  1.00  0.00     0.019 A 
HETATM   21  C13 UNL     1      28.240   0.730  53.562  1.00  0.00     0.013 A 
HETATM   22 BR1  UNL     1      29.568   1.764  54.448  1.00  0.00    -0.051 Br
HETATM   23  C14 UNL     1      27.047   1.170  52.989  1.00  0.00     0.048 A 
ENDBRANCH  15  17
ENDBRANCH  12  15
TORSDOF 2
ENDMDL
