MODEL 1
REMARK VINA RESULT:      -7.8      0.000      0.000
REMARK  9 active torsions:
REMARK  status: ('A' for Active; 'I' for Inactive)
REMARK    1  A    between atoms: C2_2  and  C3_3 
REMARK    2  A    between atoms: C8_8  and  N1_9 
REMARK    3  A    between atoms: N1_9  and  C9_10 
REMARK    4  A    between atoms: C11_12  and  C12_13 
REMARK    5  A    between atoms: C12_13  and  N2_14 
REMARK    6  A    between atoms: C14_16  and  C15_17 
REMARK    7  A    between atoms: C15_17  and  N3_18 
REMARK    8  A    between atoms: N3_18  and  C16_19 
REMARK    9  A    between atoms: C17_20  and  N4_21 
ROOT
HETATM    1  N4  UNL     1      30.395   7.080  48.578  1.00  0.00    -0.352 N 
HETATM    2  C18 UNL     1      30.730   8.519  48.381  1.00  0.00     0.152 C 
HETATM    3  C19 UNL     1      31.412   6.328  49.368  1.00  0.00     0.351 C 
HETATM    4  O1  UNL     1      32.145   5.585  49.990  1.00  0.00    -0.284 OA
ENDROOT
BRANCH   1   5
HETATM    5  C17 UNL     1      29.148   6.588  48.030  1.00  0.00     0.152 C 
HETATM    6  C16 UNL     1      28.120   5.769  48.209  1.00  0.00     0.083 C 
BRANCH   6   7
HETATM    7  N3  UNL     1      27.516   4.781  49.080  1.00  0.00    -0.395 N 
HETATM    8  H20 UNL     1      28.411   4.367  49.412  1.00  0.00     0.159 HD
BRANCH   7   9
HETATM    9  C15 UNL     1      26.124   4.740  49.155  1.00  0.00     0.176 C 
BRANCH   9  10
HETATM   10  C14 UNL     1      25.670   3.843  50.294  1.00  0.00     0.036 C 
HETATM   11  C13 UNL     1      26.357   2.696  50.554  1.00  0.00     0.036 C 
HETATM   12  C10 UNL     1      25.963   1.735  51.688  1.00  0.00    -0.030 C 
HETATM   13  C9  UNL     1      24.550   1.860  51.715  1.00  0.00     0.167 C 
HETATM   14  C11 UNL     1      27.086   1.075  52.027  1.00  0.00     0.012 C 
HETATM   15  C22 UNL     1      24.030   3.218  51.836  1.00  0.00     0.062 A 
HETATM   16  N5  UNL     1      24.403   4.142  51.009  1.00  0.00    -0.308 N 
HETATM   17  C21 UNL     1      23.046   4.036  52.500  1.00  0.00     0.146 A 
HETATM   18  C20 UNL     1      23.952   5.318  50.912  1.00  0.00     0.214 A 
HETATM   19  N6  UNL     1      23.008   5.299  51.931  1.00  0.00    -0.254 NA
BRANCH  13  20
HETATM   20  N1  UNL     1      23.809   0.978  52.593  1.00  0.00    -0.375 N 
HETATM   21  H10 UNL     1      23.200   1.006  51.670  1.00  0.00     0.160 HD
BRANCH  20  22
HETATM   22  C8  UNL     1      23.073   0.106  53.455  1.00  0.00     0.035 A 
HETATM   23  C3  UNL     1      21.829   0.114  52.894  1.00  0.00    -0.032 A 
HETATM   24  C4  UNL     1      20.979  -0.784  53.458  1.00  0.00     0.009 A 
HETATM   25  C5  UNL     1      21.570  -1.527  54.529  1.00  0.00     0.001 A 
HETATM   26  C6  UNL     1      22.885  -1.551  55.168  1.00  0.00     0.002 A 
HETATM   27  C7  UNL     1      23.604  -0.519  54.366  1.00  0.00     0.029 A 
BRANCH  23  28
HETATM   28  C2  UNL     1      21.061   0.879  51.952  1.00  0.00     0.036 C 
HETATM   29  C1  UNL     1      21.036   0.588  50.518  1.00  0.00     0.010 C 
ENDBRANCH  23  28
ENDBRANCH  20  22
ENDBRANCH  13  20
BRANCH  14  30
HETATM   30  C12 UNL     1      26.910  -0.148  52.793  1.00  0.00     0.294 C 
BRANCH  30  31
HETATM   31  N2  UNL     1      27.169   0.013  54.240  1.00  0.00     0.081 N 
HETATM   32  H15 UNL     1      26.319  -0.226  54.792  1.00  0.00     0.313 HD
HETATM   33  H16 UNL     1      27.907  -0.699  54.550  1.00  0.00     0.313 HD
ENDBRANCH  30  31
ENDBRANCH  14  30
ENDBRANCH   9  10
ENDBRANCH   7   9
ENDBRANCH   6   7
ENDBRANCH   1   5
TORSDOF 9
ENDMDL
MODEL 2
REMARK VINA RESULT:      -7.6      1.810      2.077
REMARK  9 active torsions:
REMARK  status: ('A' for Active; 'I' for Inactive)
REMARK    1  A    between atoms: C2_2  and  C3_3 
REMARK    2  A    between atoms: C8_8  and  N1_9 
REMARK    3  A    between atoms: N1_9  and  C9_10 
REMARK    4  A    between atoms: C11_12  and  C12_13 
REMARK    5  A    between atoms: C12_13  and  N2_14 
REMARK    6  A    between atoms: C14_16  and  C15_17 
REMARK    7  A    between atoms: C15_17  and  N3_18 
REMARK    8  A    between atoms: N3_18  and  C16_19 
REMARK    9  A    between atoms: C17_20  and  N4_21 
ROOT
HETATM    1  N4  UNL     1      27.311   8.268  47.601  1.00  0.00    -0.352 N 
HETATM    2  C18 UNL     1      26.070   8.352  48.422  1.00  0.00     0.152 C 
HETATM    3  C19 UNL     1      27.521   9.440  46.704  1.00  0.00     0.351 C 
HETATM    4  O1  UNL     1      27.827  10.320  45.925  1.00  0.00    -0.284 OA
ENDROOT
BRANCH   1   5
HETATM    5  C17 UNL     1      28.169   7.115  47.777  1.00  0.00     0.152 C 
HETATM    6  C16 UNL     1      28.308   5.931  48.360  1.00  0.00     0.083 C 
BRANCH   6   7
HETATM    7  N3  UNL     1      27.699   4.952  49.237  1.00  0.00    -0.395 N 
HETATM    8  H20 UNL     1      28.574   4.691  49.735  1.00  0.00     0.159 HD
BRANCH   7   9
HETATM    9  C15 UNL     1      26.326   4.732  49.119  1.00  0.00     0.176 C 
BRANCH   9  10
HETATM   10  C14 UNL     1      25.818   3.856  50.251  1.00  0.00     0.036 C 
HETATM   11  C13 UNL     1      26.472   2.698  50.543  1.00  0.00     0.036 C 
HETATM   12  C10 UNL     1      26.024   1.756  51.672  1.00  0.00    -0.030 C 
HETATM   13  C9  UNL     1      24.613   1.911  51.654  1.00  0.00     0.167 C 
HETATM   14  C11 UNL     1      27.121   1.076  52.051  1.00  0.00     0.012 C 
HETATM   15  C22 UNL     1      24.120   3.281  51.747  1.00  0.00     0.062 A 
HETATM   16  N5  UNL     1      24.537   4.189  50.924  1.00  0.00    -0.308 N 
HETATM   17  C21 UNL     1      23.134   4.126  52.374  1.00  0.00     0.146 A 
HETATM   18  C20 UNL     1      24.114   5.374  50.803  1.00  0.00     0.214 A 
HETATM   19  N6  UNL     1      23.140   5.384  51.792  1.00  0.00    -0.254 NA
BRANCH  13  20
HETATM   20  N1  UNL     1      23.827   1.053  52.518  1.00  0.00    -0.375 N 
HETATM   21  H10 UNL     1      23.825   0.525  51.546  1.00  0.00     0.160 HD
BRANCH  20  22
HETATM   22  C8  UNL     1      23.051   0.202  53.364  1.00  0.00     0.035 A 
HETATM   23  C3  UNL     1      21.825   0.223  52.762  1.00  0.00    -0.032 A 
HETATM   24  C4  UNL     1      20.945  -0.657  53.308  1.00  0.00     0.009 A 
HETATM   25  C5  UNL     1      21.489  -1.397  54.406  1.00  0.00     0.001 A 
HETATM   26  C6  UNL     1      22.782  -1.433  55.088  1.00  0.00     0.002 A 
HETATM   27  C7  UNL     1      23.542  -0.420  54.299  1.00  0.00     0.029 A 
BRANCH  23  28
HETATM   28  C2  UNL     1      21.100   0.988  51.788  1.00  0.00     0.036 C 
HETATM   29  C1  UNL     1      21.153   0.708  50.353  1.00  0.00     0.010 C 
ENDBRANCH  23  28
ENDBRANCH  20  22
ENDBRANCH  13  20
BRANCH  14  30
HETATM   30  C12 UNL     1      26.896  -0.136  52.822  1.00  0.00     0.294 C 
BRANCH  30  31
HETATM   31  N2  UNL     1      27.316  -0.029  54.236  1.00  0.00     0.081 N 
HETATM   32  H15 UNL     1      27.628   0.942  54.452  1.00  0.00     0.313 HD
HETATM   33  H16 UNL     1      26.468  -0.192  54.871  1.00  0.00     0.313 HD
ENDBRANCH  30  31
ENDBRANCH  14  30
ENDBRANCH   9  10
ENDBRANCH   7   9
ENDBRANCH   6   7
ENDBRANCH   1   5
TORSDOF 9
ENDMDL
MODEL 3
REMARK VINA RESULT:      -7.2      3.481      5.205
REMARK  9 active torsions:
REMARK  status: ('A' for Active; 'I' for Inactive)
REMARK    1  A    between atoms: C2_2  and  C3_3 
REMARK    2  A    between atoms: C8_8  and  N1_9 
REMARK    3  A    between atoms: N1_9  and  C9_10 
REMARK    4  A    between atoms: C11_12  and  C12_13 
REMARK    5  A    between atoms: C12_13  and  N2_14 
REMARK    6  A    between atoms: C14_16  and  C15_17 
REMARK    7  A    between atoms: C15_17  and  N3_18 
REMARK    8  A    between atoms: N3_18  and  C16_19 
REMARK    9  A    between atoms: C17_20  and  N4_21 
ROOT
HETATM    1  N4  UNL     1      28.613  -0.327  53.518  1.00  0.00    -0.352 N 
HETATM    2  C18 UNL     1      27.527  -1.062  52.810  1.00  0.00     0.152 C 
HETATM    3  C19 UNL     1      29.805  -1.166  53.829  1.00  0.00     0.351 C 
HETATM    4  O1  UNL     1      30.839  -1.717  54.150  1.00  0.00    -0.284 OA
ENDROOT
BRANCH   1   5
HETATM    5  C17 UNL     1      28.417   1.081  53.790  1.00  0.00     0.152 C 
HETATM    6  C16 UNL     1      27.873   2.215  53.365  1.00  0.00     0.083 C 
BRANCH   6   7
HETATM    7  N3  UNL     1      27.088   2.848  52.325  1.00  0.00    -0.395 N 
HETATM    8  H20 UNL     1      27.240   3.823  52.652  1.00  0.00     0.159 HD
BRANCH   7   9
HETATM    9  C15 UNL     1      26.484   2.027  51.372  1.00  0.00     0.176 C 
BRANCH   9  10
HETATM   10  C14 UNL     1      25.027   1.775  51.720  1.00  0.00     0.036 C 
HETATM   11  C13 UNL     1      24.689   0.639  52.390  1.00  0.00     0.036 C 
HETATM   12  C10 UNL     1      23.238   0.309  52.780  1.00  0.00    -0.030 C 
HETATM   13  C9  UNL     1      22.500   0.871  51.707  1.00  0.00     0.167 C 
HETATM   14  C11 UNL     1      23.314  -0.506  53.849  1.00  0.00     0.012 C 
HETATM   15  C22 UNL     1      22.766   2.275  51.413  1.00  0.00     0.062 A 
HETATM   16  N5  UNL     1      23.975   2.685  51.199  1.00  0.00    -0.308 N 
HETATM   17  C21 UNL     1      22.148   3.537  51.091  1.00  0.00     0.146 A 
HETATM   18  C20 UNL     1      24.345   3.832  50.816  1.00  0.00     0.214 A 
HETATM   19  N6  UNL     1      23.113   4.466  50.730  1.00  0.00    -0.254 NA
BRANCH  13  20
HETATM   20  N1  UNL     1      21.072   0.630  51.669  1.00  0.00    -0.375 N 
HETATM   21  H10 UNL     1      21.158   1.730  51.585  1.00  0.00     0.160 HD
BRANCH  20  22
HETATM   22  C8  UNL     1      19.661   0.400  51.631  1.00  0.00     0.035 A 
HETATM   23  C3  UNL     1      19.318   0.863  50.393  1.00  0.00    -0.032 A 
HETATM   24  C4  UNL     1      18.027   0.600  50.060  1.00  0.00     0.009 A 
HETATM   25  C5  UNL     1      17.306  -0.088  51.087  1.00  0.00     0.001 A 
HETATM   26  C6  UNL     1      17.631  -0.581  52.425  1.00  0.00     0.002 A 
HETATM   27  C7  UNL     1      19.068  -0.192  52.525  1.00  0.00     0.029 A 
BRANCH  23  28
HETATM   28  C2  UNL     1      19.861   1.678  49.344  1.00  0.00     0.036 C 
HETATM   29  C1  UNL     1      19.064   2.651  48.594  1.00  0.00     0.010 C 
ENDBRANCH  23  28
ENDBRANCH  20  22
ENDBRANCH  13  20
BRANCH  14  30
HETATM   30  C12 UNL     1      22.115  -1.263  54.169  1.00  0.00     0.294 C 
BRANCH  30  31
HETATM   31  N2  UNL     1      21.172  -0.541  55.050  1.00  0.00     0.081 N 
HETATM   32  H15 UNL     1      20.328  -1.123  55.236  1.00  0.00     0.313 HD
HETATM   33  H16 UNL     1      21.624  -0.396  56.011  1.00  0.00     0.313 HD
ENDBRANCH  30  31
ENDBRANCH  14  30
ENDBRANCH   9  10
ENDBRANCH   7   9
ENDBRANCH   6   7
ENDBRANCH   1   5
TORSDOF 9
ENDMDL
MODEL 4
REMARK VINA RESULT:      -6.9      2.672      6.599
REMARK  9 active torsions:
REMARK  status: ('A' for Active; 'I' for Inactive)
REMARK    1  A    between atoms: C2_2  and  C3_3 
REMARK    2  A    between atoms: C8_8  and  N1_9 
REMARK    3  A    between atoms: N1_9  and  C9_10 
REMARK    4  A    between atoms: C11_12  and  C12_13 
REMARK    5  A    between atoms: C12_13  and  N2_14 
REMARK    6  A    between atoms: C14_16  and  C15_17 
REMARK    7  A    between atoms: C15_17  and  N3_18 
REMARK    8  A    between atoms: N3_18  and  C16_19 
REMARK    9  A    between atoms: C17_20  and  N4_21 
ROOT
HETATM    1  N4  UNL     1      28.564   0.371  54.037  1.00  0.00    -0.352 N 
HETATM    2  C18 UNL     1      29.500  -0.706  53.606  1.00  0.00     0.152 C 
HETATM    3  C19 UNL     1      28.875   1.708  53.456  1.00  0.00     0.351 C 
HETATM    4  O1  UNL     1      29.001   2.852  53.067  1.00  0.00    -0.284 OA
ENDROOT
BRANCH   1   5
HETATM    5  C17 UNL     1      27.471   0.013  54.916  1.00  0.00     0.152 C 
HETATM    6  C16 UNL     1      26.154  -0.084  55.044  1.00  0.00     0.083 C 
BRANCH   6   7
HETATM    7  N3  UNL     1      24.873   0.102  54.394  1.00  0.00    -0.395 N 
HETATM    8  H20 UNL     1      24.403   0.552  55.206  1.00  0.00     0.159 HD
BRANCH   7   9
HETATM    9  C15 UNL     1      24.740  -0.333  53.075  1.00  0.00     0.176 C 
BRANCH   9  10
HETATM   10  C14 UNL     1      24.295   0.806  52.172  1.00  0.00     0.036 C 
HETATM   11  C13 UNL     1      25.228   1.664  51.673  1.00  0.00     0.036 C 
HETATM   12  C10 UNL     1      24.861   2.840  50.754  1.00  0.00    -0.030 C 
HETATM   13  C9  UNL     1      23.584   3.221  51.242  1.00  0.00     0.167 C 
HETATM   14  C11 UNL     1      25.962   3.104  50.026  1.00  0.00     0.012 C 
HETATM   15  C22 UNL     1      22.589   2.157  51.327  1.00  0.00     0.062 A 
HETATM   16  N5  UNL     1      22.847   1.063  51.968  1.00  0.00    -0.308 N 
HETATM   17  C21 UNL     1      21.209   1.828  51.070  1.00  0.00     0.146 A 
HETATM   18  C20 UNL     1      22.052   0.116  52.229  1.00  0.00     0.214 A 
HETATM   19  N6  UNL     1      20.899   0.595  51.622  1.00  0.00    -0.254 NA
BRANCH  13  20
HETATM   20  N1  UNL     1      22.975   4.412  50.687  1.00  0.00    -0.375 N 
HETATM   21  H10 UNL     1      23.782   4.804  51.333  1.00  0.00     0.160 HD
BRANCH  20  22
HETATM   22  C8  UNL     1      22.378   5.591  50.141  1.00  0.00     0.035 A 
HETATM   23  C3  UNL     1      22.071   5.207  48.867  1.00  0.00    -0.032 A 
HETATM   24  C4  UNL     1      21.337   6.129  48.190  1.00  0.00     0.009 A 
HETATM   25  C5  UNL     1      21.064   7.308  48.954  1.00  0.00     0.001 A 
HETATM   26  C6  UNL     1      21.389   7.761  50.306  1.00  0.00     0.002 A 
HETATM   27  C7  UNL     1      22.154   6.588  50.818  1.00  0.00     0.029 A 
BRANCH  23  28
HETATM   28  C2  UNL     1      22.391   4.164  47.935  1.00  0.00     0.036 C 
HETATM   29  C1  UNL     1      21.979   4.192  46.531  1.00  0.00     0.010 C 
ENDBRANCH  23  28
ENDBRANCH  20  22
ENDBRANCH  13  20
BRANCH  14  30
HETATM   30  C12 UNL     1      26.006   4.400  49.369  1.00  0.00     0.294 C 
BRANCH  30  31
HETATM   31  N2  UNL     1      26.189   5.535  50.299  1.00  0.00     0.081 N 
HETATM   32  H15 UNL     1      25.428   6.236  50.174  1.00  0.00     0.313 HD
HETATM   33  H16 UNL     1      26.080   5.188  51.307  1.00  0.00     0.313 HD
ENDBRANCH  30  31
ENDBRANCH  14  30
ENDBRANCH   9  10
ENDBRANCH   7   9
ENDBRANCH   6   7
ENDBRANCH   1   5
TORSDOF 9
ENDMDL
MODEL 5
REMARK VINA RESULT:      -6.9      3.793      9.849
REMARK  9 active torsions:
REMARK  status: ('A' for Active; 'I' for Inactive)
REMARK    1  A    between atoms: C2_2  and  C3_3 
REMARK    2  A    between atoms: C8_8  and  N1_9 
REMARK    3  A    between atoms: N1_9  and  C9_10 
REMARK    4  A    between atoms: C11_12  and  C12_13 
REMARK    5  A    between atoms: C12_13  and  N2_14 
REMARK    6  A    between atoms: C14_16  and  C15_17 
REMARK    7  A    between atoms: C15_17  and  N3_18 
REMARK    8  A    between atoms: N3_18  and  C16_19 
REMARK    9  A    between atoms: C17_20  and  N4_21 
ROOT
HETATM    1  N4  UNL     1      27.586   1.469  53.338  1.00  0.00    -0.352 N 
HETATM    2  C18 UNL     1      28.649   2.476  53.614  1.00  0.00     0.152 C 
HETATM    3  C19 UNL     1      27.463   0.418  54.389  1.00  0.00     0.351 C 
HETATM    4  O1  UNL     1      27.245  -0.500  55.154  1.00  0.00    -0.284 OA
ENDROOT
BRANCH   1   5
HETATM    5  C17 UNL     1      26.789   1.629  52.140  1.00  0.00     0.152 C 
HETATM    6  C16 UNL     1      26.417   2.459  51.174  1.00  0.00     0.083 C 
BRANCH   6   7
HETATM    7  N3  UNL     1      26.541   3.798  50.634  1.00  0.00    -0.395 N 
HETATM    8  H20 UNL     1      26.792   4.255  51.534  1.00  0.00     0.159 HD
BRANCH   7   9
HETATM    9  C15 UNL     1      26.310   3.977  49.270  1.00  0.00     0.176 C 
BRANCH   9  10
HETATM   10  C14 UNL     1      27.062   5.189  48.748  1.00  0.00     0.036 C 
HETATM   11  C13 UNL     1      28.412   5.119  48.589  1.00  0.00     0.036 C 
HETATM   12  C10 UNL     1      29.247   6.300  48.068  1.00  0.00    -0.030 C 
HETATM   13  C9  UNL     1      28.546   7.419  48.587  1.00  0.00     0.167 C 
HETATM   14  C11 UNL     1      30.350   5.764  47.514  1.00  0.00     0.012 C 
HETATM   15  C22 UNL     1      27.120   7.478  48.285  1.00  0.00     0.062 A 
HETATM   16  N5  UNL     1      26.347   6.478  48.563  1.00  0.00    -0.308 N 
HETATM   17  C21 UNL     1      26.050   8.350  47.871  1.00  0.00     0.146 A 
HETATM   18  C20 UNL     1      25.087   6.429  48.476  1.00  0.00     0.214 A 
HETATM   19  N6  UNL     1      24.829   7.705  47.993  1.00  0.00    -0.254 NA
BRANCH  13  20
HETATM   20  N1  UNL     1      29.134   8.731  48.403  1.00  0.00    -0.375 N 
HETATM   21  H10 UNL     1      29.331   8.499  49.466  1.00  0.00     0.160 HD
BRANCH  20  22
HETATM   22  C8  UNL     1      29.717  10.025  48.227  1.00  0.00     0.035 A 
HETATM   23  C3  UNL     1      29.313  10.364  46.967  1.00  0.00    -0.032 A 
HETATM   24  C4  UNL     1      29.619  11.645  46.632  1.00  0.00     0.009 A 
HETATM   25  C5  UNL     1      30.314  12.351  47.666  1.00  0.00     0.001 A 
HETATM   26  C6  UNL     1      30.777  12.018  49.012  1.00  0.00     0.002 A 
HETATM   27  C7  UNL     1      30.307  10.607  49.130  1.00  0.00     0.029 A 
BRANCH  23  28
HETATM   28  C2  UNL     1      28.765   9.746  45.794  1.00  0.00     0.036 C 
HETATM   29  C1  UNL     1      27.832  10.427  44.895  1.00  0.00     0.010 C 
ENDBRANCH  23  28
ENDBRANCH  20  22
ENDBRANCH  13  20
BRANCH  14  30
HETATM   30  C12 UNL     1      31.468   6.668  47.298  1.00  0.00     0.294 C 
BRANCH  30  31
HETATM   31  N2  UNL     1      31.441   7.346  45.984  1.00  0.00     0.081 N 
HETATM   32  H15 UNL     1      32.374   7.753  45.764  1.00  0.00     0.313 HD
HETATM   33  H16 UNL     1      31.269   6.620  45.214  1.00  0.00     0.313 HD
ENDBRANCH  30  31
ENDBRANCH  14  30
ENDBRANCH   9  10
ENDBRANCH   7   9
ENDBRANCH   6   7
ENDBRANCH   1   5
TORSDOF 9
ENDMDL
MODEL 6
REMARK VINA RESULT:      -6.6      4.846      7.228
REMARK  9 active torsions:
REMARK  status: ('A' for Active; 'I' for Inactive)
REMARK    1  A    between atoms: C2_2  and  C3_3 
REMARK    2  A    between atoms: C8_8  and  N1_9 
REMARK    3  A    between atoms: N1_9  and  C9_10 
REMARK    4  A    between atoms: C11_12  and  C12_13 
REMARK    5  A    between atoms: C12_13  and  N2_14 
REMARK    6  A    between atoms: C14_16  and  C15_17 
REMARK    7  A    between atoms: C15_17  and  N3_18 
REMARK    8  A    between atoms: N3_18  and  C16_19 
REMARK    9  A    between atoms: C17_20  and  N4_21 
ROOT
HETATM    1  N4  UNL     1      18.179   2.842  44.111  1.00  0.00    -0.352 N 
HETATM    2  C18 UNL     1      16.837   2.355  44.540  1.00  0.00     0.152 C 
HETATM    3  C19 UNL     1      18.663   2.234  42.839  1.00  0.00     0.351 C 
HETATM    4  O1  UNL     1      19.190   1.829  41.822  1.00  0.00    -0.284 OA
ENDROOT
BRANCH   1   5
HETATM    5  C17 UNL     1      18.834   3.843  44.927  1.00  0.00     0.152 C 
HETATM    6  C16 UNL     1      19.689   4.062  45.918  1.00  0.00     0.083 C 
BRANCH   6   7
HETATM    7  N3  UNL     1      20.574   3.452  46.889  1.00  0.00    -0.395 N 
HETATM    8  H20 UNL     1      21.448   3.588  46.341  1.00  0.00     0.159 HD
BRANCH   7   9
HETATM    9  C15 UNL     1      20.012   2.960  48.068  1.00  0.00     0.176 C 
BRANCH   9  10
HETATM   10  C14 UNL     1      21.059   2.855  49.164  1.00  0.00     0.036 C 
HETATM   11  C13 UNL     1      22.379   2.912  48.832  1.00  0.00     0.036 C 
HETATM   12  C10 UNL     1      23.500   2.813  49.880  1.00  0.00    -0.030 C 
HETATM   13  C9  UNL     1      22.940   1.932  50.841  1.00  0.00     0.167 C 
HETATM   14  C11 UNL     1      24.564   3.443  49.350  1.00  0.00     0.012 C 
HETATM   15  C22 UNL     1      21.628   2.302  51.360  1.00  0.00     0.062 A 
HETATM   16  N5  UNL     1      20.643   2.540  50.554  1.00  0.00    -0.308 N 
HETATM   17  C21 UNL     1      20.832   2.400  52.559  1.00  0.00     0.146 A 
HETATM   18  C20 UNL     1      19.433   2.748  50.853  1.00  0.00     0.214 A 
HETATM   19  N6  UNL     1      19.510   2.667  52.237  1.00  0.00    -0.254 NA
BRANCH  13  20
HETATM   20  N1  UNL     1      23.787   1.495  51.932  1.00  0.00    -0.375 N 
HETATM   21  H10 UNL     1      24.393   2.263  51.418  1.00  0.00     0.160 HD
BRANCH  20  22
HETATM   22  C8  UNL     1      24.627   1.068  53.007  1.00  0.00     0.035 A 
HETATM   23  C3  UNL     1      24.001  -0.066  53.441  1.00  0.00    -0.032 A 
HETATM   24  C4  UNL     1      24.715  -0.750  54.373  1.00  0.00     0.009 A 
HETATM   25  C5  UNL     1      25.956  -0.122  54.710  1.00  0.00     0.001 A 
HETATM   26  C6  UNL     1      26.648   1.094  54.284  1.00  0.00     0.002 A 
HETATM   27  C7  UNL     1      25.686   1.624  53.274  1.00  0.00     0.029 A 
BRANCH  23  28
HETATM   28  C2  UNL     1      22.733  -0.727  53.321  1.00  0.00     0.036 C 
HETATM   29  C1  UNL     1      21.883  -1.039  54.470  1.00  0.00     0.010 C 
ENDBRANCH  23  28
ENDBRANCH  20  22
ENDBRANCH  13  20
BRANCH  14  30
HETATM   30  C12 UNL     1      25.852   3.161  49.963  1.00  0.00     0.294 C 
BRANCH  30  31
HETATM   31  N2  UNL     1      26.698   4.360  50.150  1.00  0.00     0.081 N 
HETATM   32  H15 UNL     1      26.295   5.174  49.641  1.00  0.00     0.313 HD
HETATM   33  H16 UNL     1      26.683   4.646  51.183  1.00  0.00     0.313 HD
ENDBRANCH  30  31
ENDBRANCH  14  30
ENDBRANCH   9  10
ENDBRANCH   7   9
ENDBRANCH   6   7
ENDBRANCH   1   5
TORSDOF 9
ENDMDL
MODEL 7
REMARK VINA RESULT:      -6.6      4.175      6.147
REMARK  9 active torsions:
REMARK  status: ('A' for Active; 'I' for Inactive)
REMARK    1  A    between atoms: C2_2  and  C3_3 
REMARK    2  A    between atoms: C8_8  and  N1_9 
REMARK    3  A    between atoms: N1_9  and  C9_10 
REMARK    4  A    between atoms: C11_12  and  C12_13 
REMARK    5  A    between atoms: C12_13  and  N2_14 
REMARK    6  A    between atoms: C14_16  and  C15_17 
REMARK    7  A    between atoms: C15_17  and  N3_18 
REMARK    8  A    between atoms: N3_18  and  C16_19 
REMARK    9  A    between atoms: C17_20  and  N4_21 
ROOT
HETATM    1  N4  UNL     1      33.336   3.329  47.264  1.00  0.00    -0.352 N 
HETATM    2  C18 UNL     1      34.708   3.242  47.841  1.00  0.00     0.152 C 
HETATM    3  C19 UNL     1      32.712   2.002  46.992  1.00  0.00     0.351 C 
HETATM    4  O1  UNL     1      32.076   1.005  46.715  1.00  0.00    -0.284 OA
ENDROOT
BRANCH   1   5
HETATM    5  C17 UNL     1      32.761   4.643  47.067  1.00  0.00     0.152 C 
HETATM    6  C16 UNL     1      31.713   5.425  47.290  1.00  0.00     0.083 C 
BRANCH   6   7
HETATM    7  N3  UNL     1      30.397   5.519  47.889  1.00  0.00    -0.395 N 
HETATM    8  H20 UNL     1      30.331   4.518  48.164  1.00  0.00     0.159 HD
BRANCH   7   9
HETATM    9  C15 UNL     1      29.764   6.763  47.886  1.00  0.00     0.176 C 
BRANCH   9  10
HETATM   10  C14 UNL     1      28.375   6.665  48.493  1.00  0.00     0.036 C 
HETATM   11  C13 UNL     1      27.722   5.470  48.472  1.00  0.00     0.036 C 
HETATM   12  C10 UNL     1      26.315   5.287  49.064  1.00  0.00    -0.030 C 
HETATM   13  C9  UNL     1      25.713   6.547  48.814  1.00  0.00     0.167 C 
HETATM   14  C11 UNL     1      26.212   3.985  49.388  1.00  0.00     0.012 C 
HETATM   15  C22 UNL     1      26.448   7.713  49.294  1.00  0.00     0.062 A 
HETATM   16  N5  UNL     1      27.686   7.894  48.961  1.00  0.00    -0.308 N 
HETATM   17  C21 UNL     1      26.314   8.981  49.967  1.00  0.00     0.146 A 
HETATM   18  C20 UNL     1      28.408   8.905  49.194  1.00  0.00     0.214 A 
HETATM   19  N6  UNL     1      27.504   9.690  49.896  1.00  0.00    -0.254 NA
BRANCH  13  20
HETATM   20  N1  UNL     1      24.307   6.700  49.126  1.00  0.00    -0.375 N 
HETATM   21  H10 UNL     1      24.416   7.195  48.143  1.00  0.00     0.160 HD
BRANCH  20  22
HETATM   22  C8  UNL     1      22.917   6.853  49.427  1.00  0.00     0.035 A 
HETATM   23  C3  UNL     1      22.325   5.999  48.541  1.00  0.00    -0.032 A 
HETATM   24  C4  UNL     1      20.990   5.851  48.748  1.00  0.00     0.009 A 
HETATM   25  C5  UNL     1      20.495   6.638  49.836  1.00  0.00     0.001 A 
HETATM   26  C6  UNL     1      21.090   7.573  50.790  1.00  0.00     0.002 A 
HETATM   27  C7  UNL     1      22.520   7.533  50.366  1.00  0.00     0.029 A 
BRANCH  23  28
HETATM   28  C2  UNL     1      22.643   5.279  47.341  1.00  0.00     0.036 C 
HETATM   29  C1  UNL     1      22.098   3.955  47.036  1.00  0.00     0.010 C 
ENDBRANCH  23  28
ENDBRANCH  20  22
ENDBRANCH  13  20
BRANCH  14  30
HETATM   30  C12 UNL     1      24.866   3.477  49.603  1.00  0.00     0.294 C 
BRANCH  30  31
HETATM   31  N2  UNL     1      24.583   3.115  51.009  1.00  0.00     0.081 N 
HETATM   32  H15 UNL     1      25.125   3.723  51.658  1.00  0.00     0.313 HD
HETATM   33  H16 UNL     1      23.556   3.322  51.229  1.00  0.00     0.313 HD
ENDBRANCH  30  31
ENDBRANCH  14  30
ENDBRANCH   9  10
ENDBRANCH   7   9
ENDBRANCH   6   7
ENDBRANCH   1   5
TORSDOF 9
ENDMDL
MODEL 8
REMARK VINA RESULT:      -6.5      3.638      5.728
REMARK  9 active torsions:
REMARK  status: ('A' for Active; 'I' for Inactive)
REMARK    1  A    between atoms: C2_2  and  C3_3 
REMARK    2  A    between atoms: C8_8  and  N1_9 
REMARK    3  A    between atoms: N1_9  and  C9_10 
REMARK    4  A    between atoms: C11_12  and  C12_13 
REMARK    5  A    between atoms: C12_13  and  N2_14 
REMARK    6  A    between atoms: C14_16  and  C15_17 
REMARK    7  A    between atoms: C15_17  and  N3_18 
REMARK    8  A    between atoms: N3_18  and  C16_19 
REMARK    9  A    between atoms: C17_20  and  N4_21 
ROOT
HETATM    1  N4  UNL     1      34.119   6.344  48.087  1.00  0.00    -0.352 N 
HETATM    2  C18 UNL     1      34.336   7.361  47.019  1.00  0.00     0.152 C 
HETATM    3  C19 UNL     1      35.328   6.075  48.917  1.00  0.00     0.351 C 
HETATM    4  O1  UNL     1      36.221   5.750  49.673  1.00  0.00    -0.284 OA
ENDROOT
BRANCH   1   5
HETATM    5  C17 UNL     1      32.797   5.769  48.223  1.00  0.00     0.152 C 
HETATM    6  C16 UNL     1      31.529   5.999  48.540  1.00  0.00     0.083 C 
BRANCH   6   7
HETATM    7  N3  UNL     1      30.568   6.989  48.978  1.00  0.00    -0.395 N 
HETATM    8  H20 UNL     1      30.962   7.109  49.933  1.00  0.00     0.159 HD
BRANCH   7   9
HETATM    9  C15 UNL     1      29.577   7.383  48.077  1.00  0.00     0.176 C 
BRANCH   9  10
HETATM   10  C14 UNL     1      28.198   7.006  48.591  1.00  0.00     0.036 C 
HETATM   11  C13 UNL     1      27.813   5.700  48.569  1.00  0.00     0.036 C 
HETATM   12  C10 UNL     1      26.435   5.236  49.070  1.00  0.00    -0.030 C 
HETATM   13  C9  UNL     1      25.603   6.335  48.732  1.00  0.00     0.167 C 
HETATM   14  C11 UNL     1      26.583   3.949  49.434  1.00  0.00     0.012 C 
HETATM   15  C22 UNL     1      26.040   7.640  49.218  1.00  0.00     0.062 A 
HETATM   16  N5  UNL     1      27.233   8.071  48.964  1.00  0.00    -0.308 N 
HETATM   17  C21 UNL     1      25.593   8.865  49.832  1.00  0.00     0.146 A 
HETATM   18  C20 UNL     1      27.708   9.217  49.208  1.00  0.00     0.214 A 
HETATM   19  N6  UNL     1      26.609   9.808  49.817  1.00  0.00    -0.254 NA
BRANCH  13  20
HETATM   20  N1  UNL     1      24.177   6.193  48.941  1.00  0.00    -0.375 N 
HETATM   21  H10 UNL     1      24.440   7.098  49.519  1.00  0.00     0.160 HD
BRANCH  20  22
HETATM   22  C8  UNL     1      22.769   6.058  49.150  1.00  0.00     0.035 A 
HETATM   23  C3  UNL     1      22.678   5.966  50.510  1.00  0.00    -0.032 A 
HETATM   24  C4  UNL     1      21.398   5.991  50.965  1.00  0.00     0.009 A 
HETATM   25  C5  UNL     1      20.426   6.088  49.919  1.00  0.00     0.001 A 
HETATM   26  C6  UNL     1      20.482   6.169  48.460  1.00  0.00     0.002 A 
HETATM   27  C7  UNL     1      21.957   6.146  48.236  1.00  0.00     0.029 A 
BRANCH  23  28
HETATM   28  C2  UNL     1      23.519   5.715  51.645  1.00  0.00     0.036 C 
HETATM   29  C1  UNL     1      23.198   4.726  52.675  1.00  0.00     0.010 C 
ENDBRANCH  23  28
ENDBRANCH  20  22
ENDBRANCH  13  20
BRANCH  14  30
HETATM   30  C12 UNL     1      25.361   3.173  49.575  1.00  0.00     0.294 C 
BRANCH  30  31
HETATM   31  N2  UNL     1      25.249   2.469  50.871  1.00  0.00     0.081 N 
HETATM   32  H15 UNL     1      24.258   2.450  51.191  1.00  0.00     0.313 HD
HETATM   33  H16 UNL     1      25.515   1.439  50.739  1.00  0.00     0.313 HD
ENDBRANCH  30  31
ENDBRANCH  14  30
ENDBRANCH   9  10
ENDBRANCH   7   9
ENDBRANCH   6   7
ENDBRANCH   1   5
TORSDOF 9
ENDMDL
MODEL 9
REMARK VINA RESULT:      -6.5      2.265      4.163
REMARK  9 active torsions:
REMARK  status: ('A' for Active; 'I' for Inactive)
REMARK    1  A    between atoms: C2_2  and  C3_3 
REMARK    2  A    between atoms: C8_8  and  N1_9 
REMARK    3  A    between atoms: N1_9  and  C9_10 
REMARK    4  A    between atoms: C11_12  and  C12_13 
REMARK    5  A    between atoms: C12_13  and  N2_14 
REMARK    6  A    between atoms: C14_16  and  C15_17 
REMARK    7  A    between atoms: C15_17  and  N3_18 
REMARK    8  A    between atoms: N3_18  and  C16_19 
REMARK    9  A    between atoms: C17_20  and  N4_21 
ROOT
HETATM    1  N4  UNL     1      28.502   9.030  48.600  1.00  0.00    -0.352 N 
HETATM    2  C18 UNL     1      28.477   7.661  48.012  1.00  0.00     0.152 C 
HETATM    3  C19 UNL     1      29.694   9.834  48.205  1.00  0.00     0.351 C 
HETATM    4  O1  UNL     1      30.603  10.607  47.976  1.00  0.00    -0.284 OA
ENDROOT
BRANCH   1   5
HETATM    5  C17 UNL     1      27.390   9.434  49.436  1.00  0.00     0.152 C 
HETATM    6  C16 UNL     1      26.298   9.035  50.074  1.00  0.00     0.083 C 
BRANCH   6   7
HETATM    7  N3  UNL     1      25.439   7.911  50.387  1.00  0.00    -0.395 N 
HETATM    8  H20 UNL     1      25.589   7.941  51.415  1.00  0.00     0.159 HD
BRANCH   7   9
HETATM    9  C15 UNL     1      24.796   7.266  49.329  1.00  0.00     0.176 C 
BRANCH   9  10
HETATM   10  C14 UNL     1      24.394   5.854  49.721  1.00  0.00     0.036 C 
HETATM   11  C13 UNL     1      23.116   5.612  50.124  1.00  0.00     0.036 C 
HETATM   12  C10 UNL     1      22.629   4.213  50.537  1.00  0.00    -0.030 C 
HETATM   13  C9  UNL     1      23.790   3.651  51.129  1.00  0.00     0.167 C 
HETATM   14  C11 UNL     1      21.300   4.202  50.326  1.00  0.00     0.012 C 
HETATM   15  C22 UNL     1      25.001   3.679  50.316  1.00  0.00     0.062 A 
HETATM   16  N5  UNL     1      25.426   4.790  49.807  1.00  0.00    -0.308 N 
HETATM   17  C21 UNL     1      26.142   2.905  49.896  1.00  0.00     0.146 A 
HETATM   18  C20 UNL     1      26.512   4.991  49.191  1.00  0.00     0.214 A 
HETATM   19  N6  UNL     1      27.046   3.710  49.221  1.00  0.00    -0.254 NA
BRANCH  13  20
HETATM   20  N1  UNL     1      23.664   2.356  51.767  1.00  0.00    -0.375 N 
HETATM   21  H10 UNL     1      22.925   2.985  52.297  1.00  0.00     0.160 HD
BRANCH  20  22
HETATM   22  C8  UNL     1      23.535   1.080  52.399  1.00  0.00     0.035 A 
HETATM   23  C3  UNL     1      24.703   0.976  53.099  1.00  0.00    -0.032 A 
HETATM   24  C4  UNL     1      24.741  -0.104  53.922  1.00  0.00     0.009 A 
HETATM   25  C5  UNL     1      23.558  -0.906  53.861  1.00  0.00     0.001 A 
HETATM   26  C6  UNL     1      22.302  -0.839  53.115  1.00  0.00     0.002 A 
HETATM   27  C7  UNL     1      22.509   0.414  52.331  1.00  0.00     0.029 A 
BRANCH  23  28
HETATM   28  C2  UNL     1      26.000   1.588  53.155  1.00  0.00     0.036 C 
HETATM   29  C1  UNL     1      27.241   0.855  52.903  1.00  0.00     0.010 C 
ENDBRANCH  23  28
ENDBRANCH  20  22
ENDBRANCH  13  20
BRANCH  14  30
HETATM   30  C12 UNL     1      20.551   3.147  50.989  1.00  0.00     0.294 C 
BRANCH  30  31
HETATM   31  N2  UNL     1      20.273   3.421  52.416  1.00  0.00     0.081 N 
HETATM   32  H15 UNL     1      20.426   2.564  52.989  1.00  0.00     0.313 HD
HETATM   33  H16 UNL     1      20.985   4.130  52.787  1.00  0.00     0.313 HD
ENDBRANCH  30  31
ENDBRANCH  14  30
ENDBRANCH   9  10
ENDBRANCH   7   9
ENDBRANCH   6   7
ENDBRANCH   1   5
TORSDOF 9
ENDMDL
