MODEL 1
REMARK VINA RESULT:      -8.8      0.000      0.000
REMARK  1 active torsions:
REMARK  status: ('A' for Active; 'I' for Inactive)
REMARK    1  A    between atoms: N4_12  and  C8_13 
ROOT
HETATM    1  F1  UNL     1      19.281  -2.235  53.832  1.00  0.00    -0.211 F 
HETATM    2  C1  UNL     1      20.217  -1.260  53.904  1.00  0.00     0.096 C 
HETATM    3  C2  UNL     1      21.522  -1.445  54.043  1.00  0.00     0.043 C 
HETATM    4  C3  UNL     1      22.527  -0.323  54.118  1.00  0.00     0.164 C 
HETATM    5  N1  UNL     1      23.836  -0.869  53.944  1.00  0.00    -0.383 N 
HETATM    6  C4  UNL     1      25.016  -0.343  53.393  1.00  0.00     0.120 C 
HETATM    7  C5  UNL     1      25.163   0.685  52.583  1.00  0.00     0.127 A 
HETATM    8  C6  UNL     1      24.146   1.563  52.031  1.00  0.00     0.201 A 
HETATM    9  N2  UNL     1      24.553   2.488  51.245  1.00  0.00    -0.214 NA
HETATM   10  C7  UNL     1      25.958   2.611  50.952  1.00  0.00     0.258 A 
HETATM   11  N3  UNL     1      26.890   1.855  51.420  1.00  0.00    -0.160 NA
HETATM   12  N4  UNL     1      26.546   0.816  52.290  1.00  0.00    -0.227 N 
HETATM   13  O1  UNL     1      22.799   1.510  52.261  1.00  0.00    -0.292 OA
HETATM   14  C14 UNL     1      22.116   0.682  53.143  1.00  0.00     0.078 C 
HETATM   15  C15 UNL     1      20.819   0.917  53.008  1.00  0.00     0.015 C 
HETATM   16  C16 UNL     1      19.819   0.178  53.826  1.00  0.00     0.099 C 
HETATM   17  H3  UNL     1      23.914  -1.865  54.307  1.00  0.00     0.160 HD
ENDROOT
BRANCH  12  18
HETATM   18  C8  UNL     1      27.638   0.052  52.743  1.00  0.00     0.059 A 
HETATM   19  C9  UNL     1      28.622   0.859  53.327  1.00  0.00     0.031 A 
HETATM   20  C10 UNL     1      29.785   0.362  53.872  1.00  0.00     0.002 A 
HETATM   21  C11 UNL     1      30.033  -0.994  53.863  1.00  0.00     0.000 A 
HETATM   22  C12 UNL     1      29.078  -1.806  53.294  1.00  0.00     0.002 A 
HETATM   23  C13 UNL     1      27.912  -1.321  52.748  1.00  0.00     0.031 A 
ENDBRANCH  12  18
TORSDOF 1
ENDMDL
MODEL 2
REMARK VINA RESULT:      -8.8      3.182      5.205
REMARK  1 active torsions:
REMARK  status: ('A' for Active; 'I' for Inactive)
REMARK    1  A    between atoms: N4_12  and  C8_13 
ROOT
HETATM    1  F1  UNL     1      25.309   7.037  48.785  1.00  0.00    -0.211 F 
HETATM    2  C1  UNL     1      25.075   5.716  48.960  1.00  0.00     0.096 C 
HETATM    3  C2  UNL     1      25.920   4.839  49.483  1.00  0.00     0.043 C 
HETATM    4  C3  UNL     1      25.612   3.374  49.658  1.00  0.00     0.164 C 
HETATM    5  N1  UNL     1      26.591   2.799  50.525  1.00  0.00    -0.383 N 
HETATM    6  C4  UNL     1      26.538   1.737  51.442  1.00  0.00     0.120 C 
HETATM    7  C5  UNL     1      25.485   1.179  52.001  1.00  0.00     0.127 A 
HETATM    8  C6  UNL     1      24.080   1.509  51.828  1.00  0.00     0.201 A 
HETATM    9  N2  UNL     1      23.243   0.820  52.509  1.00  0.00    -0.214 NA
HETATM   10  C7  UNL     1      23.716  -0.218  53.388  1.00  0.00     0.258 A 
HETATM   11  N3  UNL     1      24.950  -0.540  53.569  1.00  0.00    -0.160 NA
HETATM   12  N4  UNL     1      25.942   0.154  52.869  1.00  0.00    -0.227 N 
HETATM   13  O1  UNL     1      23.555   2.475  51.016  1.00  0.00    -0.292 OA
HETATM   14  C14 UNL     1      24.225   3.282  50.106  1.00  0.00     0.078 C 
HETATM   15  C15 UNL     1      23.348   4.120  49.573  1.00  0.00     0.015 C 
HETATM   16  C16 UNL     1      23.767   5.119  48.553  1.00  0.00     0.099 C 
HETATM   17  H3  UNL     1      27.536   3.282  50.449  1.00  0.00     0.160 HD
ENDROOT
BRANCH  12  18
HETATM   18  C8  UNL     1      27.254  -0.278  53.139  1.00  0.00     0.059 A 
HETATM   19  C9  UNL     1      27.422  -1.634  52.832  1.00  0.00     0.031 A 
HETATM   20  C10 UNL     1      28.617  -2.303  52.982  1.00  0.00     0.002 A 
HETATM   21  C11 UNL     1      29.730  -1.640  53.454  1.00  0.00     0.000 A 
HETATM   22  C12 UNL     1      29.587  -0.307  53.762  1.00  0.00     0.002 A 
HETATM   23  C13 UNL     1      28.399   0.372  53.616  1.00  0.00     0.031 A 
ENDBRANCH  12  18
TORSDOF 1
ENDMDL
MODEL 3
REMARK VINA RESULT:      -8.3      3.400      5.891
REMARK  1 active torsions:
REMARK  status: ('A' for Active; 'I' for Inactive)
REMARK    1  A    between atoms: N4_12  and  C8_13 
ROOT
HETATM    1  F1  UNL     1      26.795  -2.378  53.050  1.00  0.00    -0.211 F 
HETATM    2  C1  UNL     1      26.291  -1.123  53.005  1.00  0.00     0.096 C 
HETATM    3  C2  UNL     1      26.850  -0.082  52.406  1.00  0.00     0.043 C 
HETATM    4  C3  UNL     1      26.247   1.300  52.383  1.00  0.00     0.164 C 
HETATM    5  N1  UNL     1      26.932   2.083  51.402  1.00  0.00    -0.383 N 
HETATM    6  C4  UNL     1      26.519   3.143  50.581  1.00  0.00     0.120 C 
HETATM    7  C5  UNL     1      25.297   3.502  50.246  1.00  0.00     0.127 A 
HETATM    8  C6  UNL     1      24.032   2.900  50.631  1.00  0.00     0.201 A 
HETATM    9  N2  UNL     1      22.973   3.434  50.149  1.00  0.00    -0.214 NA
HETATM   10  C7  UNL     1      23.080   4.571  49.272  1.00  0.00     0.258 A 
HETATM   11  N3  UNL     1      24.180   5.135  48.907  1.00  0.00    -0.160 NA
HETATM   12  N4  UNL     1      25.392   4.625  49.382  1.00  0.00    -0.227 N 
HETATM   13  O1  UNL     1      23.850   1.823  51.454  1.00  0.00    -0.292 OA
HETATM   14  C14 UNL     1      24.811   1.134  52.183  1.00  0.00     0.078 C 
HETATM   15  C15 UNL     1      24.215   0.124  52.800  1.00  0.00     0.015 C 
HETATM   16  C16 UNL     1      24.989  -0.806  53.666  1.00  0.00     0.099 C 
HETATM   17  H3  UNL     1      27.948   1.792  51.286  1.00  0.00     0.160 HD
ENDROOT
BRANCH  12  18
HETATM   18  C8  UNL     1      26.531   5.314  48.924  1.00  0.00     0.059 A 
HETATM   19  C9  UNL     1      26.310   6.695  48.871  1.00  0.00     0.031 A 
HETATM   20  C10 UNL     1      27.269   7.602  48.478  1.00  0.00     0.002 A 
HETATM   21  C11 UNL     1      28.525   7.170  48.110  1.00  0.00     0.000 A 
HETATM   22  C12 UNL     1      28.765   5.815  48.155  1.00  0.00     0.002 A 
HETATM   23  C13 UNL     1      27.815   4.900  48.547  1.00  0.00     0.031 A 
ENDBRANCH  12  18
TORSDOF 1
ENDMDL
MODEL 4
REMARK VINA RESULT:      -8.2      3.186      4.561
REMARK  1 active torsions:
REMARK  status: ('A' for Active; 'I' for Inactive)
REMARK    1  A    between atoms: N4_12  and  C8_13 
ROOT
HETATM    1  F1  UNL     1      22.081   7.344  51.099  1.00  0.00    -0.211 F 
HETATM    2  C1  UNL     1      22.062   5.992  51.039  1.00  0.00     0.096 C 
HETATM    3  C2  UNL     1      23.098   5.190  51.236  1.00  0.00     0.043 C 
HETATM    4  C3  UNL     1      23.026   3.686  51.158  1.00  0.00     0.164 C 
HETATM    5  N1  UNL     1      24.216   3.139  51.728  1.00  0.00    -0.383 N 
HETATM    6  C4  UNL     1      24.475   1.939  52.408  1.00  0.00     0.120 C 
HETATM    7  C5  UNL     1      23.626   1.124  53.000  1.00  0.00     0.127 A 
HETATM    8  C6  UNL     1      22.183   1.240  53.117  1.00  0.00     0.201 A 
HETATM    9  N2  UNL     1      21.585   0.313  53.767  1.00  0.00    -0.214 NA
HETATM   10  C7  UNL     1      22.347  -0.769  54.335  1.00  0.00     0.258 A 
HETATM   11  N3  UNL     1      23.625  -0.909  54.253  1.00  0.00    -0.160 NA
HETATM   12  N4  UNL     1      24.369   0.052  53.562  1.00  0.00    -0.227 N 
HETATM   13  O1  UNL     1      21.393   2.234  52.609  1.00  0.00    -0.292 OA
HETATM   14  C14 UNL     1      21.770   3.288  51.787  1.00  0.00     0.078 C 
HETATM   15  C15 UNL     1      20.706   4.049  51.577  1.00  0.00     0.015 C 
HETATM   16  C16 UNL     1      20.793   5.267  50.727  1.00  0.00     0.099 C 
HETATM   17  H3  UNL     1      25.058   3.778  51.605  1.00  0.00     0.160 HD
ENDROOT
BRANCH  12  18
HETATM   18  C8  UNL     1      25.754  -0.196  53.532  1.00  0.00     0.059 A 
HETATM   19  C9  UNL     1      26.402   0.372  54.636  1.00  0.00     0.031 A 
HETATM   20  C10 UNL     1      27.756   0.258  54.860  1.00  0.00     0.002 A 
HETATM   21  C11 UNL     1      28.551  -0.440  53.977  1.00  0.00     0.000 A 
HETATM   22  C12 UNL     1      27.935  -1.006  52.885  1.00  0.00     0.002 A 
HETATM   23  C13 UNL     1      26.583  -0.901  52.650  1.00  0.00     0.031 A 
ENDBRANCH  12  18
TORSDOF 1
ENDMDL
MODEL 5
REMARK VINA RESULT:      -8.2      1.654      2.025
REMARK  1 active torsions:
REMARK  status: ('A' for Active; 'I' for Inactive)
REMARK    1  A    between atoms: N4_12  and  C8_13 
ROOT
HETATM    1  F1  UNL     1      18.637  -0.555  51.694  1.00  0.00    -0.211 F 
HETATM    2  C1  UNL     1      19.591   0.393  51.842  1.00  0.00     0.096 C 
HETATM    3  C2  UNL     1      20.805   0.204  52.338  1.00  0.00     0.043 C 
HETATM    4  C3  UNL     1      21.835   1.296  52.482  1.00  0.00     0.164 C 
HETATM    5  N1  UNL     1      23.106   0.696  52.742  1.00  0.00    -0.383 N 
HETATM    6  C4  UNL     1      24.418   1.087  52.432  1.00  0.00     0.120 C 
HETATM    7  C5  UNL     1      24.832   1.952  51.529  1.00  0.00     0.127 A 
HETATM    8  C6  UNL     1      24.046   2.744  50.599  1.00  0.00     0.201 A 
HETATM    9  N2  UNL     1      24.698   3.504  49.802  1.00  0.00    -0.214 NA
HETATM   10  C7  UNL     1      26.137   3.539  49.862  1.00  0.00     0.258 A 
HETATM   11  N3  UNL     1      26.869   2.855  50.671  1.00  0.00    -0.160 NA
HETATM   12  N4  UNL     1      26.250   1.994  51.582  1.00  0.00    -0.227 N 
HETATM   13  O1  UNL     1      22.684   2.765  50.481  1.00  0.00    -0.292 OA
HETATM   14  C14 UNL     1      21.748   2.123  51.283  1.00  0.00     0.078 C 
HETATM   15  C15 UNL     1      20.544   2.362  50.784  1.00  0.00     0.015 C 
HETATM   16  C16 UNL     1      19.325   1.804  51.429  1.00  0.00     0.099 C 
HETATM   17  H3  UNL     1      23.022  -0.222  53.272  1.00  0.00     0.160 HD
ENDROOT
BRANCH  12  18
HETATM   18  C8  UNL     1      27.140   1.296  52.420  1.00  0.00     0.059 A 
HETATM   19  C9  UNL     1      27.986   2.170  53.113  1.00  0.00     0.031 A 
HETATM   20  C10 UNL     1      28.937   1.748  54.015  1.00  0.00     0.002 A 
HETATM   21  C11 UNL     1      29.098   0.404  54.279  1.00  0.00     0.000 A 
HETATM   22  C12 UNL     1      28.276  -0.473  53.608  1.00  0.00     0.002 A 
HETATM   23  C13 UNL     1      27.322  -0.063  52.705  1.00  0.00     0.031 A 
ENDBRANCH  12  18
TORSDOF 1
ENDMDL
MODEL 6
REMARK VINA RESULT:      -8.2      2.882      6.795
REMARK  1 active torsions:
REMARK  status: ('A' for Active; 'I' for Inactive)
REMARK    1  A    between atoms: N4_12  and  C8_13 
ROOT
HETATM    1  F1  UNL     1      28.646  -0.186  55.327  1.00  0.00    -0.211 F 
HETATM    2  C1  UNL     1      27.798   0.243  54.363  1.00  0.00     0.096 C 
HETATM    3  C2  UNL     1      26.552  -0.170  54.184  1.00  0.00     0.043 C 
HETATM    4  C3  UNL     1      25.646   0.340  53.092  1.00  0.00     0.164 C 
HETATM    5  N1  UNL     1      24.307  -0.066  53.381  1.00  0.00    -0.383 N 
HETATM    6  C4  UNL     1      23.060   0.515  53.100  1.00  0.00     0.120 C 
HETATM    7  C5  UNL     1      22.781   1.760  52.776  1.00  0.00     0.127 A 
HETATM    8  C6  UNL     1      23.688   2.885  52.621  1.00  0.00     0.201 A 
HETATM    9  N2  UNL     1      23.157   4.010  52.316  1.00  0.00    -0.214 NA
HETATM   10  C7  UNL     1      21.731   4.106  52.146  1.00  0.00     0.258 A 
HETATM   11  N3  UNL     1      20.894   3.135  52.274  1.00  0.00    -0.160 NA
HETATM   12  N4  UNL     1      21.376   1.864  52.605  1.00  0.00    -0.227 N 
HETATM   13  O1  UNL     1      25.047   2.873  52.766  1.00  0.00    -0.292 OA
HETATM   14  C14 UNL     1      25.872   1.778  52.988  1.00  0.00     0.078 C 
HETATM   15  C15 UNL     1      27.115   2.219  53.125  1.00  0.00     0.015 C 
HETATM   16  C16 UNL     1      28.237   1.274  53.375  1.00  0.00     0.099 C 
HETATM   17  H3  UNL     1      24.266  -0.986  53.913  1.00  0.00     0.160 HD
ENDROOT
BRANCH  12  18
HETATM   18  C8  UNL     1      20.381   0.876  52.718  1.00  0.00     0.059 A 
HETATM   19  C9  UNL     1      19.512   0.893  51.620  1.00  0.00     0.031 A 
HETATM   20  C10 UNL     1      18.462   0.014  51.470  1.00  0.00     0.002 A 
HETATM   21  C11 UNL     1      18.218  -0.947  52.427  1.00  0.00     0.000 A 
HETATM   22  C12 UNL     1      19.060  -0.982  53.516  1.00  0.00     0.002 A 
HETATM   23  C13 UNL     1      20.112  -0.110  53.676  1.00  0.00     0.031 A 
ENDBRANCH  12  18
TORSDOF 1
ENDMDL
MODEL 7
REMARK VINA RESULT:      -8.1      3.488      4.840
REMARK  1 active torsions:
REMARK  status: ('A' for Active; 'I' for Inactive)
REMARK    1  A    between atoms: N4_12  and  C8_13 
ROOT
HETATM    1  F1  UNL     1      23.123  -2.221  55.646  1.00  0.00    -0.211 F 
HETATM    2  C1  UNL     1      22.632  -1.235  54.859  1.00  0.00     0.096 C 
HETATM    3  C2  UNL     1      23.345  -0.298  54.251  1.00  0.00     0.043 C 
HETATM    4  C3  UNL     1      22.749   0.781  53.382  1.00  0.00     0.164 C 
HETATM    5  N1  UNL     1      23.800   1.408  52.644  1.00  0.00    -0.383 N 
HETATM    6  C4  UNL     1      23.836   2.016  51.379  1.00  0.00     0.120 C 
HETATM    7  C5  UNL     1      22.990   1.892  50.378  1.00  0.00     0.127 A 
HETATM    8  C6  UNL     1      21.782   1.089  50.299  1.00  0.00     0.201 A 
HETATM    9  N2  UNL     1      21.139   1.129  49.193  1.00  0.00    -0.214 NA
HETATM   10  C7  UNL     1      21.628   1.943  48.110  1.00  0.00     0.258 A 
HETATM   11  N3  UNL     1      22.691   2.668  48.139  1.00  0.00    -0.160 NA
HETATM   12  N4  UNL     1      23.463   2.693  49.305  1.00  0.00    -0.227 N 
HETATM   13  O1  UNL     1      21.257   0.294  51.280  1.00  0.00    -0.292 OA
HETATM   14  C14 UNL     1      21.693   0.156  52.591  1.00  0.00     0.078 C 
HETATM   15  C15 UNL     1      20.939  -0.759  53.183  1.00  0.00     0.015 C 
HETATM   16  C16 UNL     1      21.163  -1.131  54.606  1.00  0.00     0.099 C 
HETATM   17  H3  UNL     1      24.725   1.402  53.168  1.00  0.00     0.160 HD
ENDROOT
BRANCH  12  18
HETATM   18  C8  UNL     1      24.602   3.517  49.231  1.00  0.00     0.059 A 
HETATM   19  C9  UNL     1      24.258   4.845  48.951  1.00  0.00     0.031 A 
HETATM   20  C10 UNL     1      25.181   5.862  48.847  1.00  0.00     0.002 A 
HETATM   21  C11 UNL     1      26.524   5.602  49.021  1.00  0.00     0.000 A 
HETATM   22  C12 UNL     1      26.884   4.303  49.296  1.00  0.00     0.002 A 
HETATM   23  C13 UNL     1      25.971   3.279  49.404  1.00  0.00     0.031 A 
ENDBRANCH  12  18
TORSDOF 1
ENDMDL
MODEL 8
REMARK VINA RESULT:      -8.1      1.629      2.340
REMARK  1 active torsions:
REMARK  status: ('A' for Active; 'I' for Inactive)
REMARK    1  A    between atoms: N4_12  and  C8_13 
ROOT
HETATM    1  F1  UNL     1      17.766  -3.321  53.516  1.00  0.00    -0.211 F 
HETATM    2  C1  UNL     1      18.465  -2.162  53.501  1.00  0.00     0.096 C 
HETATM    3  C2  UNL     1      19.739  -2.018  53.833  1.00  0.00     0.043 C 
HETATM    4  C3  UNL     1      20.475  -0.702  53.798  1.00  0.00     0.164 C 
HETATM    5  N1  UNL     1      21.877  -0.957  53.901  1.00  0.00    -0.383 N 
HETATM    6  C4  UNL     1      23.001  -0.281  53.401  1.00  0.00     0.120 C 
HETATM    7  C5  UNL     1      23.071   0.597  52.422  1.00  0.00     0.127 A 
HETATM    8  C6  UNL     1      22.003   1.112  51.583  1.00  0.00     0.201 A 
HETATM    9  N2  UNL     1      22.340   1.954  50.679  1.00  0.00    -0.214 NA
HETATM   10  C7  UNL     1      23.720   2.340  50.540  1.00  0.00     0.258 A 
HETATM   11  N3  UNL     1      24.696   1.909  51.263  1.00  0.00    -0.160 NA
HETATM   12  N4  UNL     1      24.429   0.985  52.279  1.00  0.00    -0.227 N 
HETATM   13  O1  UNL     1      20.675   0.794  51.652  1.00  0.00    -0.292 OA
HETATM   14  C14 UNL     1      20.036  -0.001  52.595  1.00  0.00     0.078 C 
HETATM   15  C15 UNL     1      18.758  -0.095  52.258  1.00  0.00     0.015 C 
HETATM   16  C16 UNL     1      17.806  -0.888  53.082  1.00  0.00     0.099 C 
HETATM   17  H3  UNL     1      22.092  -1.832  54.467  1.00  0.00     0.160 HD
ENDROOT
BRANCH  12  18
HETATM   18  C8  UNL     1      25.562   0.580  53.009  1.00  0.00     0.059 A 
HETATM   19  C9  UNL     1      26.365  -0.296  52.267  1.00  0.00     0.031 A 
HETATM   20  C10 UNL     1      27.546  -0.824  52.739  1.00  0.00     0.002 A 
HETATM   21  C11 UNL     1      27.997  -0.501  54.001  1.00  0.00     0.000 A 
HETATM   22  C12 UNL     1      27.223   0.358  54.747  1.00  0.00     0.002 A 
HETATM   23  C13 UNL     1      26.042   0.894  54.286  1.00  0.00     0.031 A 
ENDBRANCH  12  18
TORSDOF 1
ENDMDL
MODEL 9
REMARK VINA RESULT:      -7.9      4.173      6.430
REMARK  1 active torsions:
REMARK  status: ('A' for Active; 'I' for Inactive)
REMARK    1  A    between atoms: N4_12  and  C8_13 
ROOT
HETATM    1  F1  UNL     1      27.392   8.333  48.069  1.00  0.00    -0.211 F 
HETATM    2  C1  UNL     1      26.672   7.198  48.227  1.00  0.00     0.096 C 
HETATM    3  C2  UNL     1      27.083   6.094  48.832  1.00  0.00     0.043 C 
HETATM    4  C3  UNL     1      26.240   4.853  48.984  1.00  0.00     0.164 C 
HETATM    5  N1  UNL     1      26.858   3.993  49.943  1.00  0.00    -0.383 N 
HETATM    6  C4  UNL     1      26.336   3.062  50.855  1.00  0.00     0.120 C 
HETATM    7  C5  UNL     1      25.106   2.954  51.313  1.00  0.00     0.127 A 
HETATM    8  C6  UNL     1      23.944   3.769  51.005  1.00  0.00     0.201 A 
HETATM    9  N2  UNL     1      22.855   3.464  51.606  1.00  0.00    -0.214 NA
HETATM   10  C7  UNL     1      22.833   2.361  52.531  1.00  0.00     0.258 A 
HETATM   11  N3  UNL     1      23.839   1.615  52.831  1.00  0.00    -0.160 NA
HETATM   12  N4  UNL     1      25.074   1.867  52.226  1.00  0.00    -0.227 N 
HETATM   13  O1  UNL     1      23.887   4.829  50.142  1.00  0.00    -0.292 OA
HETATM   14  C14 UNL     1      24.885   5.295  49.297  1.00  0.00     0.078 C 
HETATM   15  C15 UNL     1      24.430   6.375  48.679  1.00  0.00     0.015 C 
HETATM   16  C16 UNL     1      25.277   7.109  47.699  1.00  0.00     0.099 C 
HETATM   17  H3  UNL     1      27.917   4.091  49.956  1.00  0.00     0.160 HD
ENDROOT
BRANCH  12  18
HETATM   18  C8  UNL     1      26.105   0.994  52.622  1.00  0.00     0.059 A 
HETATM   19  C9  UNL     1      26.732   1.437  53.793  1.00  0.00     0.031 A 
HETATM   20  C10 UNL     1      27.759   0.754  54.407  1.00  0.00     0.002 A 
HETATM   21  C11 UNL     1      28.224  -0.429  53.874  1.00  0.00     0.000 A 
HETATM   22  C12 UNL     1      27.622  -0.883  52.723  1.00  0.00     0.002 A 
HETATM   23  C13 UNL     1      26.594  -0.211  52.101  1.00  0.00     0.031 A 
ENDBRANCH  12  18
TORSDOF 1
ENDMDL
