MODEL 1
REMARK VINA RESULT:      -8.4      0.000      0.000
REMARK  5 active torsions:
REMARK  status: ('A' for Active; 'I' for Inactive)
REMARK    1  A    between atoms: C2_3  and  C3_4 
REMARK    2  A    between atoms: C4_5  and  C5_6 
REMARK    3  A    between atoms: C6_7  and  C7_8 
REMARK    4  A    between atoms: C7_8  and  N1_9 
REMARK    5  A    between atoms: N1_9  and  C8_10 
ROOT
HETATM    1  C8  UNL     1      29.392   6.389  47.759  1.00  0.00     0.395 C 
HETATM    2  O1  UNL     1      28.799   7.635  47.507  1.00  0.00    -0.350 OA
HETATM    3  C9  UNL     1      28.818   8.454  48.624  1.00  0.00     0.200 C 
HETATM    4  C10 UNL     1      30.197   8.793  49.054  1.00  0.00     0.031 C 
HETATM    5  C11 UNL     1      31.111   7.865  48.792  1.00  0.00     0.069 A 
HETATM    6  N2  UNL     1      32.417   8.230  49.218  1.00  0.00    -0.243 NA
HETATM    7  C12 UNL     1      33.380   7.394  49.009  1.00  0.00     0.216 A 
HETATM    8  N3  UNL     1      33.069   6.165  48.365  1.00  0.00    -0.297 N 
HETATM    9  C13 UNL     1      34.344   5.537  48.314  1.00  0.00     0.111 C 
HETATM   10 CL1  UNL     1      35.652   6.614  48.745  1.00  0.00    -0.064 Cl
HETATM   11  C14 UNL     1      34.821   4.342  48.025  1.00  0.00     0.044 C 
HETATM   12  C15 UNL     1      34.196   3.094  47.615  1.00  0.00     0.020 C 
HETATM   13  C16 UNL     1      33.023   2.692  47.218  1.00  0.00     0.083 C 
HETATM   14  N4  UNL     1      31.834   3.413  47.035  1.00  0.00    -0.393 N 
HETATM   15  C17 UNL     1      31.107   4.634  47.259  1.00  0.00     0.177 C 
HETATM   16  C18 UNL     1      31.793   5.729  47.912  1.00  0.00     0.049 A 
HETATM   17  C19 UNL     1      30.775   6.587  48.121  1.00  0.00     0.053 A 
HETATM   18  H18 UNL     1      31.150   2.803  46.489  1.00  0.00     0.159 HD
ENDROOT
BRANCH   1  19
HETATM   19  N1  UNL     1      28.708   5.768  48.908  1.00  0.00     0.120 N 
HETATM   20  H9  UNL     1      28.872   6.253  49.793  1.00  0.00     0.320 HD
BRANCH  19  21
HETATM   21  C7  UNL     1      27.362   5.412  48.597  1.00  0.00     0.300 C 
BRANCH  21  22
HETATM   22  C6  UNL     1      27.093   4.049  49.125  1.00  0.00     0.003 C 
HETATM   23  C5  UNL     1      26.396   3.728  50.202  1.00  0.00    -0.002 C 
BRANCH  23  24
HETATM   24  C4  UNL     1      26.154   2.397  50.685  1.00  0.00    -0.001 C 
HETATM   25  C3  UNL     1      26.716   1.894  51.742  1.00  0.00    -0.001 C 
BRANCH  25  26
HETATM   26  C2  UNL     1      26.396   0.531  52.138  1.00  0.00     0.012 C 
HETATM   27  C1  UNL     1      27.305  -0.328  52.586  1.00  0.00     0.441 C 
HETATM   28  F1  UNL     1      28.541  -0.728  52.941  1.00  0.00    -0.452 F 
ENDBRANCH  25  26
ENDBRANCH  23  24
ENDBRANCH  21  22
ENDBRANCH  19  21
ENDBRANCH   1  19
TORSDOF 5
ENDMDL
MODEL 2
REMARK VINA RESULT:      -8.4      7.668     11.028
REMARK  5 active torsions:
REMARK  status: ('A' for Active; 'I' for Inactive)
REMARK    1  A    between atoms: C2_3  and  C3_4 
REMARK    2  A    between atoms: C4_5  and  C5_6 
REMARK    3  A    between atoms: C6_7  and  C7_8 
REMARK    4  A    between atoms: C7_8  and  N1_9 
REMARK    5  A    between atoms: N1_9  and  C8_10 
ROOT
HETATM    1  C8  UNL     1      21.332   0.982  53.116  1.00  0.00     0.395 C 
HETATM    2  O1  UNL     1      20.902   0.556  54.382  1.00  0.00    -0.350 OA
HETATM    3  C9  UNL     1      21.176  -0.784  54.599  1.00  0.00     0.200 C 
HETATM    4  C10 UNL     1      22.632  -1.069  54.602  1.00  0.00     0.031 C 
HETATM    5  C11 UNL     1      23.361  -0.273  53.828  1.00  0.00     0.069 A 
HETATM    6  N2  UNL     1      24.749  -0.580  53.861  1.00  0.00    -0.243 NA
HETATM    7  C12 UNL     1      25.548   0.139  53.142  1.00  0.00     0.216 A 
HETATM    8  N3  UNL     1      24.984   1.189  52.366  1.00  0.00    -0.297 N 
HETATM    9  C13 UNL     1      26.138   1.732  51.737  1.00  0.00     0.111 C 
HETATM   10 CL1  UNL     1      27.632   1.109  52.399  1.00  0.00    -0.064 Cl
HETATM   11  C14 UNL     1      26.397   2.592  50.772  1.00  0.00     0.044 C 
HETATM   12  C15 UNL     1      25.552   3.390  49.898  1.00  0.00     0.020 C 
HETATM   13  C16 UNL     1      24.292   3.710  49.809  1.00  0.00     0.083 C 
HETATM   14  N4  UNL     1      23.208   3.348  50.621  1.00  0.00    -0.393 N 
HETATM   15  C17 UNL     1      22.699   2.490  51.657  1.00  0.00     0.177 C 
HETATM   16  C18 UNL     1      23.613   1.556  52.282  1.00  0.00     0.049 A 
HETATM   17  C19 UNL     1      22.764   0.818  53.024  1.00  0.00     0.053 A 
HETATM   18  H18 UNL     1      22.380   3.977  50.379  1.00  0.00     0.159 HD
ENDROOT
BRANCH   1  19
HETATM   19  N1  UNL     1      20.712   0.120  52.095  1.00  0.00     0.120 N 
HETATM   20  H9  UNL     1      20.822  -0.879  52.280  1.00  0.00     0.320 HD
BRANCH  19  21
HETATM   21  C7  UNL     1      19.410   0.578  51.732  1.00  0.00     0.300 C 
BRANCH  21  22
HETATM   22  C6  UNL     1      18.444  -0.538  51.903  1.00  0.00     0.003 C 
HETATM   23  C5  UNL     1      18.069  -1.109  53.036  1.00  0.00    -0.002 C 
BRANCH  23  24
HETATM   24  C4  UNL     1      17.130  -2.189  53.165  1.00  0.00    -0.001 C 
HETATM   25  C3  UNL     1      17.449  -3.385  53.558  1.00  0.00    -0.001 C 
BRANCH  25  26
HETATM   26  C2  UNL     1      16.412  -4.402  53.652  1.00  0.00     0.012 C 
HETATM   27  C1  UNL     1      15.576  -4.681  52.658  1.00  0.00     0.441 C 
HETATM   28  F1  UNL     1      15.053  -4.546  51.424  1.00  0.00    -0.452 F 
ENDBRANCH  25  26
ENDBRANCH  23  24
ENDBRANCH  21  22
ENDBRANCH  19  21
ENDBRANCH   1  19
TORSDOF 5
ENDMDL
MODEL 3
REMARK VINA RESULT:      -8.2      6.564      9.436
REMARK  5 active torsions:
REMARK  status: ('A' for Active; 'I' for Inactive)
REMARK    1  A    between atoms: C2_3  and  C3_4 
REMARK    2  A    between atoms: C4_5  and  C5_6 
REMARK    3  A    between atoms: C6_7  and  C7_8 
REMARK    4  A    between atoms: C7_8  and  N1_9 
REMARK    5  A    between atoms: N1_9  and  C8_10 
ROOT
HETATM    1  C8  UNL     1      25.277   1.275  53.895  1.00  0.00     0.395 C 
HETATM    2  O1  UNL     1      26.443   1.375  54.669  1.00  0.00    -0.350 OA
HETATM    3  C9  UNL     1      27.553   0.886  54.000  1.00  0.00     0.200 C 
HETATM    4  C10 UNL     1      27.865   1.667  52.777  1.00  0.00     0.031 C 
HETATM    5  C11 UNL     1      26.815   2.219  52.180  1.00  0.00     0.069 A 
HETATM    6  N2  UNL     1      27.159   2.958  51.015  1.00  0.00    -0.243 NA
HETATM    7  C12 UNL     1      26.206   3.536  50.359  1.00  0.00     0.216 A 
HETATM    8  N3  UNL     1      24.878   3.394  50.847  1.00  0.00    -0.297 N 
HETATM    9  C13 UNL     1      24.140   4.145  49.892  1.00  0.00     0.111 C 
HETATM   10 CL1  UNL     1      25.161   5.083  48.826  1.00  0.00    -0.064 Cl
HETATM   11  C14 UNL     1      22.872   4.334  49.582  1.00  0.00     0.044 C 
HETATM   12  C15 UNL     1      21.628   3.814  50.127  1.00  0.00     0.020 C 
HETATM   13  C16 UNL     1      21.244   3.138  51.172  1.00  0.00     0.083 C 
HETATM   14  N4  UNL     1      21.992   2.627  52.242  1.00  0.00    -0.393 N 
HETATM   15  C17 UNL     1      23.290   2.313  52.777  1.00  0.00     0.177 C 
HETATM   16  C18 UNL     1      24.457   2.674  51.999  1.00  0.00     0.049 A 
HETATM   17  C19 UNL     1      25.435   2.064  52.697  1.00  0.00     0.053 A 
HETATM   18  H18 UNL     1      21.319   2.333  53.016  1.00  0.00     0.159 HD
ENDROOT
BRANCH   1  19
HETATM   19  N1  UNL     1      25.101  -0.131  53.491  1.00  0.00     0.120 N 
HETATM   20  H9  UNL     1      25.941  -0.548  53.084  1.00  0.00     0.320 HD
BRANCH  19  21
HETATM   21  C7  UNL     1      24.410  -0.887  54.485  1.00  0.00     0.300 C 
BRANCH  21  22
HETATM   22  C6  UNL     1      22.990  -1.036  54.072  1.00  0.00     0.003 C 
HETATM   23  C5  UNL     1      21.918  -0.594  54.709  1.00  0.00    -0.002 C 
BRANCH  23  24
HETATM   24  C4  UNL     1      20.557  -0.755  54.279  1.00  0.00    -0.001 C 
HETATM   25  C3  UNL     1      20.108  -0.364  53.125  1.00  0.00    -0.001 C 
BRANCH  25  26
HETATM   26  C2  UNL     1      18.706  -0.579  52.797  1.00  0.00     0.012 C 
HETATM   27  C1  UNL     1      17.982  -1.565  53.314  1.00  0.00     0.441 C 
HETATM   28  F1  UNL     1      17.761  -2.647  54.085  1.00  0.00    -0.452 F 
ENDBRANCH  25  26
ENDBRANCH  23  24
ENDBRANCH  21  22
ENDBRANCH  19  21
ENDBRANCH   1  19
TORSDOF 5
ENDMDL
MODEL 4
REMARK VINA RESULT:      -8.2      2.597      4.068
REMARK  5 active torsions:
REMARK  status: ('A' for Active; 'I' for Inactive)
REMARK    1  A    between atoms: C2_3  and  C3_4 
REMARK    2  A    between atoms: C4_5  and  C5_6 
REMARK    3  A    between atoms: C6_7  and  C7_8 
REMARK    4  A    between atoms: C7_8  and  N1_9 
REMARK    5  A    between atoms: N1_9  and  C8_10 
ROOT
HETATM    1  C8  UNL     1      26.028   6.105  48.855  1.00  0.00     0.395 C 
HETATM    2  O1  UNL     1      24.718   6.570  48.661  1.00  0.00    -0.350 OA
HETATM    3  C9  UNL     1      24.241   7.253  49.767  1.00  0.00     0.200 C 
HETATM    4  C10 UNL     1      25.020   8.483  50.051  1.00  0.00     0.031 C 
HETATM    5  C11 UNL     1      26.300   8.431  49.700  1.00  0.00     0.069 A 
HETATM    6  N2  UNL     1      27.009   9.630  49.987  1.00  0.00    -0.243 NA
HETATM    7  C12 UNL     1      28.264   9.682  49.683  1.00  0.00     0.216 A 
HETATM    8  N3  UNL     1      28.852   8.536  49.079  1.00  0.00    -0.297 N 
HETATM    9  C13 UNL     1      30.196   8.965  48.899  1.00  0.00     0.111 C 
HETATM   10 CL1  UNL     1      30.410  10.677  49.189  1.00  0.00    -0.064 Cl
HETATM   11  C14 UNL     1      31.348   8.418  48.567  1.00  0.00     0.044 C 
HETATM   12  C15 UNL     1      31.742   7.059  48.227  1.00  0.00     0.020 C 
HETATM   13  C16 UNL     1      31.156   5.928  47.955  1.00  0.00     0.083 C 
HETATM   14  N4  UNL     1      29.793   5.608  47.893  1.00  0.00    -0.393 N 
HETATM   15  C17 UNL     1      28.439   5.997  48.187  1.00  0.00     0.177 C 
HETATM   16  C18 UNL     1      28.212   7.307  48.761  1.00  0.00     0.049 A 
HETATM   17  C19 UNL     1      26.903   7.232  49.072  1.00  0.00     0.053 A 
HETATM   18  H18 UNL     1      29.690   4.656  47.423  1.00  0.00     0.159 HD
ENDROOT
BRANCH   1  19
HETATM   19  N1  UNL     1      26.054   5.271  50.071  1.00  0.00     0.120 N 
HETATM   20  H9  UNL     1      25.521   5.665  50.849  1.00  0.00     0.320 HD
BRANCH  19  21
HETATM   21  C7  UNL     1      25.854   3.890  49.772  1.00  0.00     0.300 C 
BRANCH  21  22
HETATM   22  C6  UNL     1      26.528   3.073  50.816  1.00  0.00     0.003 C 
HETATM   23  C5  UNL     1      26.226   1.841  51.189  1.00  0.00    -0.002 C 
BRANCH  23  24
HETATM   24  C4  UNL     1      26.901   1.078  52.203  1.00  0.00    -0.001 C 
HETATM   25  C3  UNL     1      26.913  -0.220  52.248  1.00  0.00    -0.001 C 
BRANCH  25  26
HETATM   26  C2  UNL     1      27.630  -0.887  53.324  1.00  0.00     0.012 C 
HETATM   27  C1  UNL     1      28.949  -0.829  53.463  1.00  0.00     0.441 C 
HETATM   28  F1  UNL     1      30.200  -0.450  53.134  1.00  0.00    -0.452 F 
ENDBRANCH  25  26
ENDBRANCH  23  24
ENDBRANCH  21  22
ENDBRANCH  19  21
ENDBRANCH   1  19
TORSDOF 5
ENDMDL
MODEL 5
REMARK VINA RESULT:      -8.1      5.932     10.373
REMARK  5 active torsions:
REMARK  status: ('A' for Active; 'I' for Inactive)
REMARK    1  A    between atoms: C2_3  and  C3_4 
REMARK    2  A    between atoms: C4_5  and  C5_6 
REMARK    3  A    between atoms: C6_7  and  C7_8 
REMARK    4  A    between atoms: C7_8  and  N1_9 
REMARK    5  A    between atoms: N1_9  and  C8_10 
ROOT
HETATM    1  C8  UNL     1      25.047   2.293  51.044  1.00  0.00     0.395 C 
HETATM    2  O1  UNL     1      26.409   1.984  50.909  1.00  0.00    -0.350 OA
HETATM    3  C9  UNL     1      27.093   2.118  52.105  1.00  0.00     0.200 C 
HETATM    4  C10 UNL     1      26.611   1.171  53.141  1.00  0.00     0.031 C 
HETATM    5  C11 UNL     1      25.328   0.840  53.046  1.00  0.00     0.069 A 
HETATM    6  N2  UNL     1      24.909  -0.069  54.055  1.00  0.00    -0.243 NA
HETATM    7  C12 UNL     1      23.675  -0.455  54.052  1.00  0.00     0.216 A 
HETATM    8  N3  UNL     1      22.820   0.056  53.037  1.00  0.00    -0.297 N 
HETATM    9  C13 UNL     1      21.588  -0.578  53.355  1.00  0.00     0.111 C 
HETATM   10 CL1  UNL     1      21.759  -1.836  54.558  1.00  0.00    -0.064 Cl
HETATM   11  C14 UNL     1      20.326  -0.478  52.986  1.00  0.00     0.044 C 
HETATM   12  C15 UNL     1      19.633   0.382  52.039  1.00  0.00     0.020 C 
HETATM   13  C16 UNL     1      19.947   1.229  51.101  1.00  0.00     0.083 C 
HETATM   14  N4  UNL     1      21.205   1.640  50.639  1.00  0.00    -0.393 N 
HETATM   15  C17 UNL     1      22.627   1.675  50.856  1.00  0.00     0.177 C 
HETATM   16  C18 UNL     1      23.163   0.964  51.998  1.00  0.00     0.049 A 
HETATM   17  C19 UNL     1      24.445   1.379  51.985  1.00  0.00     0.053 A 
HETATM   18  H18 UNL     1      21.074   2.163  49.719  1.00  0.00     0.159 HD
ENDROOT
BRANCH   1  19
HETATM   19  N1  UNL     1      24.928   3.655  51.597  1.00  0.00     0.120 N 
HETATM   20  H9  UNL     1      25.768   3.973  52.085  1.00  0.00     0.320 HD
BRANCH  19  21
HETATM   21  C7  UNL     1      24.330   4.556  50.666  1.00  0.00     0.300 C 
BRANCH  21  22
HETATM   22  C6  UNL     1      25.400   5.378  50.042  1.00  0.00     0.003 C 
HETATM   23  C5  UNL     1      26.329   4.975  49.191  1.00  0.00    -0.002 C 
BRANCH  23  24
HETATM   24  C4  UNL     1      27.349   5.799  48.605  1.00  0.00    -0.001 C 
HETATM   25  C3  UNL     1      28.544   5.380  48.315  1.00  0.00    -0.001 C 
BRANCH  25  26
HETATM   26  C2  UNL     1      29.498   6.306  47.723  1.00  0.00     0.012 C 
HETATM   27  C1  UNL     1      29.912   7.411  48.333  1.00  0.00     0.441 C 
HETATM   28  F1  UNL     1      29.968   8.308  49.336  1.00  0.00    -0.452 F 
ENDBRANCH  25  26
ENDBRANCH  23  24
ENDBRANCH  21  22
ENDBRANCH  19  21
ENDBRANCH   1  19
TORSDOF 5
ENDMDL
MODEL 6
REMARK VINA RESULT:      -8.1      8.674     12.166
REMARK  5 active torsions:
REMARK  status: ('A' for Active; 'I' for Inactive)
REMARK    1  A    between atoms: C2_3  and  C3_4 
REMARK    2  A    between atoms: C4_5  and  C5_6 
REMARK    3  A    between atoms: C6_7  and  C7_8 
REMARK    4  A    between atoms: C7_8  and  N1_9 
REMARK    5  A    between atoms: N1_9  and  C8_10 
ROOT
HETATM    1  C8  UNL     1      22.294   0.975  53.035  1.00  0.00     0.395 C 
HETATM    2  O1  UNL     1      23.100   2.112  52.874  1.00  0.00    -0.350 OA
HETATM    3  C9  UNL     1      23.725   2.133  51.638  1.00  0.00     0.200 C 
HETATM    4  C10 UNL     1      22.758   2.218  50.517  1.00  0.00     0.031 C 
HETATM    5  C11 UNL     1      21.579   1.651  50.749  1.00  0.00     0.069 A 
HETATM    6  N2  UNL     1      20.682   1.756  49.650  1.00  0.00    -0.243 NA
HETATM    7  C12 UNL     1      19.505   1.235  49.774  1.00  0.00     0.216 A 
HETATM    8  N3  UNL     1      19.186   0.593  51.002  1.00  0.00    -0.297 N 
HETATM    9  C13 UNL     1      17.852   0.163  50.763  1.00  0.00     0.111 C 
HETATM   10 CL1  UNL     1      17.167   0.846  49.306  1.00  0.00    -0.064 Cl
HETATM   11  C14 UNL     1      16.971  -0.623  51.349  1.00  0.00     0.044 C 
HETATM   12  C15 UNL     1      17.007  -1.428  52.559  1.00  0.00     0.020 C 
HETATM   13  C16 UNL     1      17.785  -1.575  53.593  1.00  0.00     0.083 C 
HETATM   14  N4  UNL     1      18.987  -0.931  53.918  1.00  0.00    -0.393 N 
HETATM   15  C17 UNL     1      20.075  -0.096  53.483  1.00  0.00     0.177 C 
HETATM   16  C18 UNL     1      20.025   0.448  52.141  1.00  0.00     0.049 A 
HETATM   17  C19 UNL     1      21.257   0.983  52.032  1.00  0.00     0.053 A 
HETATM   18  H18 UNL     1      19.218  -1.140  54.939  1.00  0.00     0.159 HD
ENDROOT
BRANCH   1  19
HETATM   19  N1  UNL     1      23.124  -0.224  52.817  1.00  0.00     0.120 N 
HETATM   20  H9  UNL     1      23.840  -0.100  52.097  1.00  0.00     0.320 HD
BRANCH  19  21
HETATM   21  C7  UNL     1      23.530  -0.821  54.048  1.00  0.00     0.300 C 
BRANCH  21  22
HETATM   22  C6  UNL     1      25.015  -0.804  54.121  1.00  0.00     0.003 C 
HETATM   23  C5  UNL     1      25.865  -0.571  53.135  1.00  0.00    -0.002 C 
BRANCH  23  24
HETATM   24  C4  UNL     1      27.297  -0.562  53.241  1.00  0.00    -0.001 C 
HETATM   25  C3  UNL     1      28.004   0.508  53.447  1.00  0.00    -0.001 C 
BRANCH  25  26
HETATM   26  C2  UNL     1      29.452   0.398  53.536  1.00  0.00     0.012 C 
HETATM   27  C1  UNL     1      30.085  -0.761  53.679  1.00  0.00     0.441 C 
HETATM   28  F1  UNL     1      30.175  -2.099  53.808  1.00  0.00    -0.452 F 
ENDBRANCH  25  26
ENDBRANCH  23  24
ENDBRANCH  21  22
ENDBRANCH  19  21
ENDBRANCH   1  19
TORSDOF 5
ENDMDL
MODEL 7
REMARK VINA RESULT:      -8.0      5.723      9.692
REMARK  5 active torsions:
REMARK  status: ('A' for Active; 'I' for Inactive)
REMARK    1  A    between atoms: C2_3  and  C3_4 
REMARK    2  A    between atoms: C4_5  and  C5_6 
REMARK    3  A    between atoms: C6_7  and  C7_8 
REMARK    4  A    between atoms: C7_8  and  N1_9 
REMARK    5  A    between atoms: N1_9  and  C8_10 
ROOT
HETATM    1  C8  UNL     1      23.221   4.328  51.656  1.00  0.00     0.395 C 
HETATM    2  O1  UNL     1      22.203   5.259  51.908  1.00  0.00    -0.350 OA
HETATM    3  C9  UNL     1      21.000   4.879  51.337  1.00  0.00     0.200 C 
HETATM    4  C10 UNL     1      20.478   3.614  51.909  1.00  0.00     0.031 C 
HETATM    5  C11 UNL     1      21.407   2.763  52.331  1.00  0.00     0.069 A 
HETATM    6  N2  UNL     1      20.864   1.566  52.873  1.00  0.00    -0.243 NA
HETATM    7  C12 UNL     1      21.686   0.670  53.313  1.00  0.00     0.216 A 
HETATM    8  N3  UNL     1      23.079   0.944  53.227  1.00  0.00    -0.297 N 
HETATM    9  C13 UNL     1      23.638  -0.235  53.793  1.00  0.00     0.111 C 
HETATM   10 CL1  UNL     1      22.443  -1.255  54.560  1.00  0.00    -0.064 Cl
HETATM   11  C14 UNL     1      24.833  -0.781  53.901  1.00  0.00     0.044 C 
HETATM   12  C15 UNL     1      26.156  -0.375  53.454  1.00  0.00     0.020 C 
HETATM   13  C16 UNL     1      26.717   0.689  52.954  1.00  0.00     0.083 C 
HETATM   14  N4  UNL     1      26.166   1.941  52.645  1.00  0.00    -0.393 N 
HETATM   15  C17 UNL     1      24.981   2.732  52.451  1.00  0.00     0.177 C 
HETATM   16  C18 UNL     1      23.696   2.112  52.702  1.00  0.00     0.049 A 
HETATM   17  C19 UNL     1      22.856   3.058  52.237  1.00  0.00     0.053 A 
HETATM   18  H18 UNL     1      26.964   2.628  52.471  1.00  0.00     0.159 HD
ENDROOT
BRANCH   1  19
HETATM   19  N1  UNL     1      23.338   4.143  50.199  1.00  0.00     0.120 N 
HETATM   20  H9  UNL     1      22.473   3.824  49.756  1.00  0.00     0.320 HD
BRANCH  19  21
HETATM   21  C7  UNL     1      24.030   5.225  49.579  1.00  0.00     0.300 C 
BRANCH  21  22
HETATM   22  C6  UNL     1      25.410   4.783  49.246  1.00  0.00     0.003 C 
HETATM   23  C5  UNL     1      26.425   5.539  48.862  1.00  0.00    -0.002 C 
BRANCH  23  24
HETATM   24  C4  UNL     1      27.749   5.078  48.548  1.00  0.00    -0.001 C 
HETATM   25  C3  UNL     1      28.742   5.863  48.260  1.00  0.00    -0.001 C 
BRANCH  25  26
HETATM   26  C2  UNL     1      30.042   5.283  47.957  1.00  0.00     0.012 C 
HETATM   27  C1  UNL     1      31.188   5.816  48.364  1.00  0.00     0.441 C 
HETATM   28  F1  UNL     1      31.962   6.722  48.992  1.00  0.00    -0.452 F 
ENDBRANCH  25  26
ENDBRANCH  23  24
ENDBRANCH  21  22
ENDBRANCH  19  21
ENDBRANCH   1  19
TORSDOF 5
ENDMDL
MODEL 8
REMARK VINA RESULT:      -8.0      7.325     10.218
REMARK  5 active torsions:
REMARK  status: ('A' for Active; 'I' for Inactive)
REMARK    1  A    between atoms: C2_3  and  C3_4 
REMARK    2  A    between atoms: C4_5  and  C5_6 
REMARK    3  A    between atoms: C6_7  and  C7_8 
REMARK    4  A    between atoms: C7_8  and  N1_9 
REMARK    5  A    between atoms: N1_9  and  C8_10 
ROOT
HETATM    1  C8  UNL     1      21.631   0.721  53.106  1.00  0.00     0.395 C 
HETATM    2  O1  UNL     1      20.895   0.326  54.233  1.00  0.00    -0.350 OA
HETATM    3  C9  UNL     1      21.046  -1.024  54.504  1.00  0.00     0.200 C 
HETATM    4  C10 UNL     1      22.445  -1.378  54.849  1.00  0.00     0.031 C 
HETATM    5  C11 UNL     1      23.373  -0.622  54.272  1.00  0.00     0.069 A 
HETATM    6  N2  UNL     1      24.698  -0.994  54.630  1.00  0.00    -0.243 NA
HETATM    7  C12 UNL     1      25.677  -0.319  54.122  1.00  0.00     0.216 A 
HETATM    8  N3  UNL     1      25.362   0.750  53.239  1.00  0.00    -0.297 N 
HETATM    9  C13 UNL     1      26.656   1.234  52.901  1.00  0.00     0.111 C 
HETATM   10 CL1  UNL     1      27.921   0.547  53.895  1.00  0.00    -0.064 Cl
HETATM   11  C14 UNL     1      27.176   2.073  52.028  1.00  0.00     0.044 C 
HETATM   12  C15 UNL     1      26.600   2.903  50.982  1.00  0.00     0.020 C 
HETATM   13  C16 UNL     1      25.413   3.282  50.599  1.00  0.00     0.083 C 
HETATM   14  N4  UNL     1      24.153   2.978  51.132  1.00  0.00    -0.393 N 
HETATM   15  C17 UNL     1      23.374   2.152  52.016  1.00  0.00     0.177 C 
HETATM   16  C18 UNL     1      24.069   1.181  52.835  1.00  0.00     0.049 A 
HETATM   17  C19 UNL     1      23.035   0.490  53.353  1.00  0.00     0.053 A 
HETATM   18  H18 UNL     1      23.435   3.642  50.704  1.00  0.00     0.159 HD
ENDROOT
BRANCH   1  19
HETATM   19  N1  UNL     1      21.229  -0.119  51.964  1.00  0.00     0.120 N 
HETATM   20  H9  UNL     1      21.272  -1.122  52.158  1.00  0.00     0.320 HD
BRANCH  19  21
HETATM   21  C7  UNL     1      20.050   0.375  51.330  1.00  0.00     0.300 C 
BRANCH  21  22
HETATM   22  C6  UNL     1      20.448   1.257  50.201  1.00  0.00     0.003 C 
HETATM   23  C5  UNL     1      21.290   0.975  49.221  1.00  0.00    -0.002 C 
BRANCH  23  24
HETATM   24  C4  UNL     1      21.652   1.851  48.142  1.00  0.00    -0.001 C 
HETATM   25  C3  UNL     1      21.960   3.104  48.296  1.00  0.00    -0.001 C 
BRANCH  25  26
HETATM   26  C2  UNL     1      22.311   3.898  47.128  1.00  0.00     0.012 C 
HETATM   27  C1  UNL     1      21.623   3.864  45.992  1.00  0.00     0.441 C 
HETATM   28  F1  UNL     1      20.637   3.456  45.170  1.00  0.00    -0.452 F 
ENDBRANCH  25  26
ENDBRANCH  23  24
ENDBRANCH  21  22
ENDBRANCH  19  21
ENDBRANCH   1  19
TORSDOF 5
ENDMDL
MODEL 9
REMARK VINA RESULT:      -8.0      5.774      9.671
REMARK  5 active torsions:
REMARK  status: ('A' for Active; 'I' for Inactive)
REMARK    1  A    between atoms: C2_3  and  C3_4 
REMARK    2  A    between atoms: C4_5  and  C5_6 
REMARK    3  A    between atoms: C6_7  and  C7_8 
REMARK    4  A    between atoms: C7_8  and  N1_9 
REMARK    5  A    between atoms: N1_9  and  C8_10 
ROOT
HETATM    1  C8  UNL     1      22.538   2.443  51.410  1.00  0.00     0.395 C 
HETATM    2  O1  UNL     1      21.163   2.649  51.597  1.00  0.00    -0.350 OA
HETATM    3  C9  UNL     1      20.429   1.499  51.357  1.00  0.00     0.200 C 
HETATM    4  C10 UNL     1      20.761   0.409  52.307  1.00  0.00     0.031 C 
HETATM    5  C11 UNL     1      22.010   0.418  52.759  1.00  0.00     0.069 A 
HETATM    6  N2  UNL     1      22.284  -0.641  53.667  1.00  0.00    -0.243 NA
HETATM    7  C12 UNL     1      23.475  -0.722  54.165  1.00  0.00     0.216 A 
HETATM    8  N3  UNL     1      24.430   0.256  53.772  1.00  0.00    -0.297 N 
HETATM    9  C13 UNL     1      25.577  -0.153  54.506  1.00  0.00     0.111 C 
HETATM   10 CL1  UNL     1      25.221  -1.381  55.699  1.00  0.00    -0.064 Cl
HETATM   11  C14 UNL     1      26.861   0.145  54.536  1.00  0.00     0.044 C 
HETATM   12  C15 UNL     1      27.684   1.074  53.779  1.00  0.00     0.020 C 
HETATM   13  C16 UNL     1      27.503   2.055  52.940  1.00  0.00     0.083 C 
HETATM   14  N4  UNL     1      26.317   2.601  52.431  1.00  0.00    -0.393 N 
HETATM   15  C17 UNL     1      24.895   2.470  52.257  1.00  0.00     0.177 C 
HETATM   16  C18 UNL     1      24.232   1.340  52.874  1.00  0.00     0.049 A 
HETATM   17  C19 UNL     1      22.998   1.441  52.342  1.00  0.00     0.053 A 
HETATM   18  H18 UNL     1      26.549   3.528  51.955  1.00  0.00     0.159 HD
ENDROOT
BRANCH   1  19
HETATM   19  N1  UNL     1      22.755   1.926  50.047  1.00  0.00     0.120 N 
HETATM   20  H9  UNL     1      22.223   1.077  49.842  1.00  0.00     0.320 HD
BRANCH  19  21
HETATM   21  C7  UNL     1      22.727   2.968  49.073  1.00  0.00     0.300 C 
BRANCH  21  22
HETATM   22  C6  UNL     1      24.103   3.508  48.911  1.00  0.00     0.003 C 
HETATM   23  C5  UNL     1      24.539   4.709  49.255  1.00  0.00    -0.002 C 
BRANCH  23  24
HETATM   24  C4  UNL     1      25.878   5.200  49.085  1.00  0.00    -0.001 C 
HETATM   25  C3  UNL     1      26.167   6.390  48.653  1.00  0.00    -0.001 C 
BRANCH  25  26
HETATM   26  C2  UNL     1      27.562   6.779  48.520  1.00  0.00     0.012 C 
HETATM   27  C1  UNL     1      28.536   5.915  48.258  1.00  0.00     0.441 C 
HETATM   28  F1  UNL     1      29.059   4.700  48.005  1.00  0.00    -0.452 F 
ENDBRANCH  25  26
ENDBRANCH  23  24
ENDBRANCH  21  22
ENDBRANCH  19  21
ENDBRANCH   1  19
TORSDOF 5
ENDMDL
