MODEL 1
REMARK VINA RESULT:      -9.1      0.000      0.000
REMARK  3 active torsions:
REMARK  status: ('A' for Active; 'I' for Inactive)
REMARK    1  A    between atoms: N2_13  and  C11_14 
REMARK    2  A    between atoms: C11_14  and  C12_15 
REMARK    3  A    between atoms: C19_27  and  O2_28 
ROOT
HETATM    1  C1  UNL     1      24.837   6.090  49.732  1.00  0.00     0.038 C 
HETATM    2  C2  UNL     1      25.028   4.856  50.481  1.00  0.00    -0.002 C 
HETATM    3  C3  UNL     1      24.045   4.106  51.056  1.00  0.00     0.026 C 
HETATM    4  C4  UNL     1      22.789   4.734  50.806  1.00  0.00     0.034 C 
HETATM    5  C5  UNL     1      21.504   4.907  50.853  1.00  0.00     0.076 C 
HETATM    6  C6  UNL     1      20.448   4.079  51.519  1.00  0.00     0.242 C 
HETATM    7  O1  UNL     1      19.272   3.737  51.906  1.00  0.00    -0.269 OA
HETATM    8  N1  UNL     1      20.500   2.824  52.255  1.00  0.00    -0.344 N 
HETATM    9  C7  UNL     1      20.552   1.547  53.002  1.00  0.00     0.168 C 
HETATM   10  C8  UNL     1      21.938   1.076  53.105  1.00  0.00     0.031 C 
HETATM   11  C9  UNL     1      23.217   1.396  53.123  1.00  0.00     0.023 C 
HETATM   12  C10 UNL     1      23.899   2.720  53.010  1.00  0.00     0.179 C 
HETATM   13  N2  UNL     1      24.574   2.910  51.738  1.00  0.00    -0.370 N 
HETATM   14  N4  UNL     1      24.021   0.219  53.464  1.00  0.00    -0.372 N 
HETATM   15  C17 UNL     1      23.439  -1.084  53.781  1.00  0.00     0.296 C 
HETATM   16  N5  UNL     1      22.618  -1.153  54.919  1.00  0.00    -0.155 NA
HETATM   17  N6  UNL     1      21.422  -1.139  55.172  1.00  0.00    -0.072 NA
HETATM   18  N7  UNL     1      20.322  -1.035  54.320  1.00  0.00    -0.269 N 
HETATM   19  C18 UNL     1      19.726  -0.610  53.071  1.00  0.00     0.145 C 
HETATM   20  C19 UNL     1      19.710   0.507  52.315  1.00  0.00     0.089 C 
HETATM   21  H7  UNL     1      21.487   2.762  51.855  1.00  0.00     0.163 HD
HETATM   22  H18 UNL     1      25.052   0.418  53.469  1.00  0.00     0.161 HD
HETATM   23  H21 UNL     1      19.707  -1.516  55.007  1.00  0.00     0.190 HD
ENDROOT
BRANCH  13  24
HETATM   24  C11 UNL     1      25.647   2.311  50.984  1.00  0.00     0.182 C 
BRANCH  24  25
HETATM   25  C12 UNL     1      26.568   1.440  51.767  1.00  0.00     0.052 A 
HETATM   26  C13 UNL     1      27.509   2.173  52.507  1.00  0.00     0.029 A 
HETATM   27  C14 UNL     1      28.472   1.665  53.352  1.00  0.00     0.003 A 
HETATM   28  C15 UNL     1      28.542   0.298  53.506  1.00  0.00     0.019 A 
HETATM   29  C16 UNL     1      27.629  -0.436  52.790  1.00  0.00     0.117 A 
HETATM   30  N3  UNL     1      26.724   0.128  51.991  1.00  0.00    -0.264 NA
ENDBRANCH  24  25
ENDBRANCH  13  24
BRANCH  20  31
HETATM   31  O2  UNL     1      18.992   0.479  51.164  1.00  0.00    -0.356 OA
HETATM   32  C20 UNL     1      17.675   0.017  51.037  1.00  0.00     0.209 C 
ENDBRANCH  20  31
TORSDOF 3
ENDMDL
MODEL 2
REMARK VINA RESULT:      -9.1      3.029      6.998
REMARK  3 active torsions:
REMARK  status: ('A' for Active; 'I' for Inactive)
REMARK    1  A    between atoms: N2_13  and  C11_14 
REMARK    2  A    between atoms: C11_14  and  C12_15 
REMARK    3  A    between atoms: C19_27  and  O2_28 
ROOT
HETATM    1  C1  UNL     1      18.985  -0.906  53.393  1.00  0.00     0.038 C 
HETATM    2  C2  UNL     1      19.957  -0.093  52.675  1.00  0.00    -0.002 C 
HETATM    3  C3  UNL     1      21.295  -0.026  52.935  1.00  0.00     0.026 C 
HETATM    4  C4  UNL     1      21.587  -0.885  54.035  1.00  0.00     0.034 C 
HETATM    5  C5  UNL     1      22.310  -1.474  54.937  1.00  0.00     0.076 C 
HETATM    6  C6  UNL     1      23.778  -1.358  55.218  1.00  0.00     0.242 C 
HETATM    7  O1  UNL     1      24.896  -1.571  55.813  1.00  0.00    -0.269 OA
HETATM    8  N1  UNL     1      24.850  -0.624  54.562  1.00  0.00    -0.344 N 
HETATM    9  C7  UNL     1      25.941   0.123  53.896  1.00  0.00     0.168 C 
HETATM   10  C8  UNL     1      25.408   0.908  52.777  1.00  0.00     0.031 C 
HETATM   11  C9  UNL     1      24.366   1.524  52.255  1.00  0.00     0.023 C 
HETATM   12  C10 UNL     1      22.968   1.685  52.756  1.00  0.00     0.179 C 
HETATM   13  N2  UNL     1      22.002   0.889  52.020  1.00  0.00    -0.370 N 
HETATM   14  N4  UNL     1      24.775   2.273  51.063  1.00  0.00    -0.372 N 
HETATM   15  C17 UNL     1      26.158   2.339  50.594  1.00  0.00     0.296 C 
HETATM   16  N5  UNL     1      27.093   2.940  51.453  1.00  0.00    -0.155 NA
HETATM   17  N6  UNL     1      27.934   2.582  52.266  1.00  0.00    -0.072 NA
HETATM   18  N7  UNL     1      28.303   1.300  52.675  1.00  0.00    -0.269 N 
HETATM   19  C18 UNL     1      27.998  -0.102  52.869  1.00  0.00     0.145 C 
HETATM   20  C19 UNL     1      26.993  -0.830  53.396  1.00  0.00     0.089 C 
HETATM   21  H7  UNL     1      24.132  -0.492  53.786  1.00  0.00     0.163 HD
HETATM   22  H18 UNL     1      23.974   2.766  50.597  1.00  0.00     0.161 HD
HETATM   23  H21 UNL     1      29.251   1.629  52.950  1.00  0.00     0.190 HD
ENDROOT
BRANCH  13  24
HETATM   24  C11 UNL     1      21.490   0.781  50.676  1.00  0.00     0.182 C 
BRANCH  24  25
HETATM   25  C12 UNL     1      21.745   1.960  49.800  1.00  0.00     0.052 A 
HETATM   26  C13 UNL     1      21.989   1.600  48.466  1.00  0.00     0.029 A 
HETATM   27  C14 UNL     1      22.227   2.454  47.411  1.00  0.00     0.003 A 
HETATM   28  C15 UNL     1      22.230   3.808  47.662  1.00  0.00     0.019 A 
HETATM   29  C16 UNL     1      21.993   4.179  48.962  1.00  0.00     0.117 A 
HETATM   30  N3  UNL     1      21.770   3.293  49.931  1.00  0.00    -0.264 NA
ENDBRANCH  24  25
ENDBRANCH  13  24
BRANCH  20  31
HETATM   31  O2  UNL     1      27.113  -2.181  53.374  1.00  0.00    -0.356 OA
HETATM   32  C20 UNL     1      28.267  -2.889  53.012  1.00  0.00     0.209 C 
ENDBRANCH  20  31
TORSDOF 3
ENDMDL
MODEL 3
REMARK VINA RESULT:      -9.0      2.765      6.142
REMARK  3 active torsions:
REMARK  status: ('A' for Active; 'I' for Inactive)
REMARK    1  A    between atoms: N2_13  and  C11_14 
REMARK    2  A    between atoms: C11_14  and  C12_15 
REMARK    3  A    between atoms: C19_27  and  O2_28 
ROOT
HETATM    1  C1  UNL     1      24.358   5.125  48.894  1.00  0.00     0.038 C 
HETATM    2  C2  UNL     1      23.429   4.433  49.776  1.00  0.00    -0.002 C 
HETATM    3  C3  UNL     1      23.728   3.377  50.586  1.00  0.00     0.026 C 
HETATM    4  C4  UNL     1      25.108   3.056  50.424  1.00  0.00     0.034 C 
HETATM    5  C5  UNL     1      26.219   2.414  50.610  1.00  0.00     0.076 C 
HETATM    6  C6  UNL     1      26.511   1.235  51.488  1.00  0.00     0.242 C 
HETATM    7  O1  UNL     1      27.200   0.294  52.026  1.00  0.00    -0.269 OA
HETATM    8  N1  UNL     1      25.696   0.485  52.432  1.00  0.00    -0.344 N 
HETATM    9  C7  UNL     1      24.867  -0.278  53.393  1.00  0.00     0.168 C 
HETATM   10  C8  UNL     1      23.499   0.251  53.413  1.00  0.00     0.031 C 
HETATM   11  C9  UNL     1      22.549   0.888  52.757  1.00  0.00     0.023 C 
HETATM   12  C10 UNL     1      22.522   1.459  51.377  1.00  0.00     0.179 C 
HETATM   13  N2  UNL     1      22.560   2.911  51.358  1.00  0.00    -0.370 N 
HETATM   14  N4  UNL     1      21.302   0.853  53.527  1.00  0.00    -0.372 N 
HETATM   15  C17 UNL     1      21.168   0.155  54.804  1.00  0.00     0.296 C 
HETATM   16  N5  UNL     1      21.352  -1.238  54.790  1.00  0.00    -0.155 NA
HETATM   17  N6  UNL     1      22.245  -2.034  55.042  1.00  0.00    -0.072 NA
HETATM   18  N7  UNL     1      23.550  -1.813  55.482  1.00  0.00    -0.269 N 
HETATM   19  C18 UNL     1      24.722  -0.970  55.593  1.00  0.00     0.145 C 
HETATM   20  C19 UNL     1      25.465  -0.200  54.772  1.00  0.00     0.089 C 
HETATM   21  H7  UNL     1      25.020   1.302  52.322  1.00  0.00     0.163 HD
HETATM   22  H18 UNL     1      20.518   1.367  53.055  1.00  0.00     0.161 HD
HETATM   23  H21 UNL     1      23.597  -2.760  55.912  1.00  0.00     0.190 HD
ENDROOT
BRANCH  13  24
HETATM   24  C11 UNL     1      21.759   4.020  51.814  1.00  0.00     0.182 C 
BRANCH  24  25
HETATM   25  C12 UNL     1      20.293   3.884  51.584  1.00  0.00     0.052 A 
HETATM   26  C13 UNL     1      19.829   4.706  50.547  1.00  0.00     0.029 A 
HETATM   27  C14 UNL     1      18.537   4.788  50.072  1.00  0.00     0.003 A 
HETATM   28  C15 UNL     1      17.581   3.990  50.659  1.00  0.00     0.019 A 
HETATM   29  C16 UNL     1      18.016   3.178  51.676  1.00  0.00     0.117 A 
HETATM   30  N3  UNL     1      19.285   3.153  52.081  1.00  0.00    -0.264 NA
ENDBRANCH  24  25
ENDBRANCH  13  24
BRANCH  20  31
HETATM   31  O2  UNL     1      26.528   0.451  55.307  1.00  0.00    -0.356 OA
HETATM   32  C20 UNL     1      27.871   0.085  55.146  1.00  0.00     0.209 C 
ENDBRANCH  20  31
TORSDOF 3
ENDMDL
MODEL 4
REMARK VINA RESULT:      -8.0      2.570      7.774
REMARK  3 active torsions:
REMARK  status: ('A' for Active; 'I' for Inactive)
REMARK    1  A    between atoms: N2_13  and  C11_14 
REMARK    2  A    between atoms: C11_14  and  C12_15 
REMARK    3  A    between atoms: C19_27  and  O2_28 
ROOT
HETATM    1  C1  UNL     1      18.079  -2.360  53.830  1.00  0.00     0.038 C 
HETATM    2  C2  UNL     1      18.411  -1.141  53.105  1.00  0.00    -0.002 C 
HETATM    3  C3  UNL     1      19.630  -0.530  53.079  1.00  0.00     0.026 C 
HETATM    4  C4  UNL     1      20.533  -1.283  53.886  1.00  0.00     0.034 C 
HETATM    5  C5  UNL     1      21.652  -1.589  54.467  1.00  0.00     0.076 C 
HETATM    6  C6  UNL     1      22.972  -0.879  54.443  1.00  0.00     0.242 C 
HETATM    7  O1  UNL     1      24.203  -0.647  54.726  1.00  0.00    -0.269 OA
HETATM    8  N1  UNL     1      23.439   0.306  53.740  1.00  0.00    -0.344 N 
HETATM    9  C7  UNL     1      23.915   1.512  53.025  1.00  0.00     0.168 C 
HETATM   10  C8  UNL     1      22.825   2.097  52.236  1.00  0.00     0.031 C 
HETATM   11  C9  UNL     1      21.524   2.252  52.092  1.00  0.00     0.023 C 
HETATM   12  C10 UNL     1      20.378   1.744  52.904  1.00  0.00     0.179 C 
HETATM   13  N2  UNL     1      19.633   0.686  52.244  1.00  0.00    -0.370 N 
HETATM   14  N4  UNL     1      21.253   3.218  51.023  1.00  0.00    -0.372 N 
HETATM   15  C17 UNL     1      22.305   3.920  50.291  1.00  0.00     0.296 C 
HETATM   16  N5  UNL     1      23.134   4.777  51.034  1.00  0.00    -0.155 NA
HETATM   17  N6  UNL     1      24.240   4.739  51.554  1.00  0.00    -0.072 NA
HETATM   18  N7  UNL     1      25.179   3.707  51.597  1.00  0.00    -0.269 N 
HETATM   19  C18 UNL     1      25.514   2.300  51.555  1.00  0.00     0.145 C 
HETATM   20  C19 UNL     1      25.067   1.161  52.123  1.00  0.00     0.089 C 
HETATM   21  H7  UNL     1      22.539   0.191  53.182  1.00  0.00     0.163 HD
HETATM   22  H18 UNL     1      20.226   3.360  50.854  1.00  0.00     0.161 HD
HETATM   23  H21 UNL     1      25.960   4.384  51.724  1.00  0.00     0.190 HD
ENDROOT
BRANCH  13  24
HETATM   24  C11 UNL     1      18.846   0.501  51.050  1.00  0.00     0.182 C 
BRANCH  24  25
HETATM   25  C12 UNL     1      18.118   1.711  50.573  1.00  0.00     0.052 A 
HETATM   26  C13 UNL     1      16.900   1.908  51.240  1.00  0.00     0.029 A 
HETATM   27  C14 UNL     1      16.014   2.947  51.051  1.00  0.00     0.003 A 
HETATM   28  C15 UNL     1      16.332   3.907  50.118  1.00  0.00     0.019 A 
HETATM   29  C16 UNL     1      17.520   3.731  49.454  1.00  0.00     0.117 A 
HETATM   30  N3  UNL     1      18.328   2.699  49.692  1.00  0.00    -0.264 NA
ENDBRANCH  24  25
ENDBRANCH  13  24
BRANCH  20  31
HETATM   31  O2  UNL     1      25.693   0.003  51.794  1.00  0.00    -0.356 OA
HETATM   32  C20 UNL     1      26.838  -0.508  52.419  1.00  0.00     0.209 C 
ENDBRANCH  20  31
TORSDOF 3
ENDMDL
MODEL 5
REMARK VINA RESULT:      -8.0      2.016      5.373
REMARK  3 active torsions:
REMARK  status: ('A' for Active; 'I' for Inactive)
REMARK    1  A    between atoms: N2_13  and  C11_14 
REMARK    2  A    between atoms: C11_14  and  C12_15 
REMARK    3  A    between atoms: C19_27  and  O2_28 
ROOT
HETATM    1  C1  UNL     1      21.511  -1.499  54.945  1.00  0.00     0.038 C 
HETATM    2  C2  UNL     1      22.757  -0.991  54.388  1.00  0.00    -0.002 C 
HETATM    3  C3  UNL     1      22.879   0.042  53.506  1.00  0.00     0.026 C 
HETATM    4  C4  UNL     1      21.577   0.546  53.213  1.00  0.00     0.034 C 
HETATM    5  C5  UNL     1      20.681   1.301  52.657  1.00  0.00     0.076 C 
HETATM    6  C6  UNL     1      20.844   2.414  51.666  1.00  0.00     0.242 C 
HETATM    7  O1  UNL     1      20.493   3.353  50.863  1.00  0.00    -0.269 OA
HETATM    8  N1  UNL     1      22.016   3.035  51.068  1.00  0.00    -0.344 N 
HETATM    9  C7  UNL     1      23.209   3.667  50.459  1.00  0.00     0.168 C 
HETATM   10  C8  UNL     1      24.430   3.006  50.931  1.00  0.00     0.031 C 
HETATM   11  C9  UNL     1      24.980   1.905  51.404  1.00  0.00     0.023 C 
HETATM   12  C10 UNL     1      24.389   0.569  51.717  1.00  0.00     0.179 C 
HETATM   13  N2  UNL     1      24.283   0.310  53.142  1.00  0.00    -0.370 N 
HETATM   14  N4  UNL     1      26.437   2.060  51.461  1.00  0.00    -0.372 N 
HETATM   15  C17 UNL     1      27.133   3.258  50.999  1.00  0.00     0.296 C 
HETATM   16  N5  UNL     1      27.022   3.573  49.634  1.00  0.00    -0.155 NA
HETATM   17  N6  UNL     1      26.358   4.319  48.930  1.00  0.00    -0.072 NA
HETATM   18  N7  UNL     1      25.357   5.229  49.275  1.00  0.00    -0.269 N 
HETATM   19  C18 UNL     1      24.310   5.678  50.167  1.00  0.00     0.145 C 
HETATM   20  C19 UNL     1      23.255   5.131  50.806  1.00  0.00     0.089 C 
HETATM   21  H7  UNL     1      22.544   2.503  51.825  1.00  0.00     0.163 HD
HETATM   22  H18 UNL     1      26.920   1.214  51.853  1.00  0.00     0.161 HD
HETATM   23  H21 UNL     1      25.540   5.798  48.423  1.00  0.00     0.190 HD
ENDROOT
BRANCH  13  24
HETATM   24  C11 UNL     1      25.153   0.174  54.284  1.00  0.00     0.182 C 
BRANCH  24  25
HETATM   25  C12 UNL     1      26.535  -0.294  53.980  1.00  0.00     0.052 A 
HETATM   26  C13 UNL     1      27.521   0.502  54.583  1.00  0.00     0.029 A 
HETATM   27  C14 UNL     1      28.885   0.316  54.521  1.00  0.00     0.003 A 
HETATM   28  C15 UNL     1      29.359  -0.757  53.799  1.00  0.00     0.019 A 
HETATM   29  C16 UNL     1      28.410  -1.547  53.202  1.00  0.00     0.117 A 
HETATM   30  N3  UNL     1      27.104  -1.304  53.308  1.00  0.00    -0.264 NA
ENDBRANCH  24  25
ENDBRANCH  13  24
BRANCH  20  31
HETATM   31  O2  UNL     1      22.495   5.945  51.581  1.00  0.00    -0.356 OA
HETATM   32  C20 UNL     1      21.538   6.854  51.112  1.00  0.00     0.209 C 
ENDBRANCH  20  31
TORSDOF 3
ENDMDL
MODEL 6
REMARK VINA RESULT:      -8.0      2.626      6.278
REMARK  3 active torsions:
REMARK  status: ('A' for Active; 'I' for Inactive)
REMARK    1  A    between atoms: N2_13  and  C11_14 
REMARK    2  A    between atoms: C11_14  and  C12_15 
REMARK    3  A    between atoms: C19_27  and  O2_28 
ROOT
HETATM    1  C1  UNL     1      17.461   1.621  49.756  1.00  0.00     0.038 C 
HETATM    2  C2  UNL     1      18.730   1.442  50.448  1.00  0.00    -0.002 C 
HETATM    3  C3  UNL     1      19.912   2.043  50.125  1.00  0.00     0.026 C 
HETATM    4  C4  UNL     1      19.701   2.879  48.989  1.00  0.00     0.034 C 
HETATM    5  C5  UNL     1      20.003   3.707  48.038  1.00  0.00     0.076 C 
HETATM    6  C6  UNL     1      21.321   4.330  47.689  1.00  0.00     0.242 C 
HETATM    7  O1  UNL     1      22.162   5.046  47.034  1.00  0.00    -0.269 OA
HETATM    8  N1  UNL     1      22.635   4.265  48.311  1.00  0.00    -0.344 N 
HETATM    9  C7  UNL     1      23.972   4.200  48.944  1.00  0.00     0.168 C 
HETATM   10  C8  UNL     1      23.939   3.308  50.109  1.00  0.00     0.031 C 
HETATM   11  C9  UNL     1      23.364   2.278  50.697  1.00  0.00     0.023 C 
HETATM   12  C10 UNL     1      22.223   1.414  50.269  1.00  0.00     0.179 C 
HETATM   13  N2  UNL     1      21.009   1.651  51.030  1.00  0.00    -0.370 N 
HETATM   14  N4  UNL     1      24.128   1.894  51.888  1.00  0.00    -0.372 N 
HETATM   15  C17 UNL     1      25.369   2.553  52.290  1.00  0.00     0.296 C 
HETATM   16  N5  UNL     1      26.455   2.463  51.404  1.00  0.00    -0.155 NA
HETATM   17  N6  UNL     1      26.977   3.154  50.542  1.00  0.00    -0.072 NA
HETATM   18  N7  UNL     1      26.639   4.427  50.080  1.00  0.00    -0.269 N 
HETATM   19  C18 UNL     1      25.665   5.476  49.863  1.00  0.00     0.145 C 
HETATM   20  C19 UNL     1      24.415   5.575  49.366  1.00  0.00     0.089 C 
HETATM   21  H7  UNL     1      22.103   3.829  49.125  1.00  0.00     0.163 HD
HETATM   22  H18 UNL     1      23.697   1.088  52.405  1.00  0.00     0.161 HD
HETATM   23  H21 UNL     1      27.615   4.605  49.768  1.00  0.00     0.190 HD
ENDROOT
BRANCH  13  24
HETATM   24  C11 UNL     1      20.551   1.552  52.393  1.00  0.00     0.182 C 
BRANCH  24  25
HETATM   25  C12 UNL     1      21.218   0.503  53.216  1.00  0.00     0.052 A 
HETATM   26  C13 UNL     1      20.359  -0.557  53.542  1.00  0.00     0.029 A 
HETATM   27  C14 UNL     1      20.680  -1.689  54.260  1.00  0.00     0.003 A 
HETATM   28  C15 UNL     1      21.972  -1.820  54.718  1.00  0.00     0.019 A 
HETATM   29  C16 UNL     1      22.827  -0.792  54.409  1.00  0.00     0.117 A 
HETATM   30  N3  UNL     1      22.443   0.274  53.707  1.00  0.00    -0.264 NA
ENDBRANCH  24  25
ENDBRANCH  13  24
BRANCH  20  31
HETATM   31  O2  UNL     1      23.839   6.803  49.345  1.00  0.00    -0.356 OA
HETATM   32  C20 UNL     1      23.505   7.564  50.473  1.00  0.00     0.209 C 
ENDBRANCH  20  31
TORSDOF 3
ENDMDL
MODEL 7
REMARK VINA RESULT:      -7.9      2.512      3.806
REMARK  3 active torsions:
REMARK  status: ('A' for Active; 'I' for Inactive)
REMARK    1  A    between atoms: N2_13  and  C11_14 
REMARK    2  A    between atoms: C11_14  and  C12_15 
REMARK    3  A    between atoms: C19_27  and  O2_28 
ROOT
HETATM    1  C1  UNL     1      27.865   5.858  48.268  1.00  0.00     0.038 C 
HETATM    2  C2  UNL     1      27.139   4.950  49.146  1.00  0.00    -0.002 C 
HETATM    3  C3  UNL     1      25.791   4.943  49.355  1.00  0.00     0.026 C 
HETATM    4  C4  UNL     1      25.205   5.980  48.571  1.00  0.00     0.034 C 
HETATM    5  C5  UNL     1      24.265   6.734  48.091  1.00  0.00     0.076 C 
HETATM    6  C6  UNL     1      22.791   6.722  48.362  1.00  0.00     0.242 C 
HETATM    7  O1  UNL     1      21.563   7.092  48.284  1.00  0.00    -0.269 OA
HETATM    8  N1  UNL     1      21.947   5.857  49.174  1.00  0.00    -0.344 N 
HETATM    9  C7  UNL     1      21.088   4.978  50.000  1.00  0.00     0.168 C 
HETATM   10  C8  UNL     1      21.905   3.970  50.685  1.00  0.00     0.031 C 
HETATM   11  C9  UNL     1      23.086   3.651  51.175  1.00  0.00     0.023 C 
HETATM   12  C10 UNL     1      24.372   4.411  51.215  1.00  0.00     0.179 C 
HETATM   13  N2  UNL     1      25.373   3.891  50.300  1.00  0.00    -0.370 N 
HETATM   14  N4  UNL     1      22.994   2.389  51.916  1.00  0.00    -0.372 N 
HETATM   15  C17 UNL     1      21.742   1.658  52.101  1.00  0.00     0.296 C 
HETATM   16  N5  UNL     1      20.727   2.308  52.823  1.00  0.00    -0.155 NA
HETATM   17  N6  UNL     1      19.713   2.947  52.581  1.00  0.00    -0.072 NA
HETATM   18  N7  UNL     1      19.141   3.299  51.359  1.00  0.00    -0.269 N 
HETATM   19  C18 UNL     1      19.254   3.574  49.942  1.00  0.00     0.145 C 
HETATM   20  C19 UNL     1      20.058   4.299  49.138  1.00  0.00     0.089 C 
HETATM   21  H7  UNL     1      22.811   5.233  49.204  1.00  0.00     0.163 HD
HETATM   22  H18 UNL     1      23.917   2.079  52.309  1.00  0.00     0.161 HD
HETATM   23  H21 UNL     1      18.197   3.379  51.790  1.00  0.00     0.190 HD
ENDROOT
BRANCH  13  24
HETATM   24  C11 UNL     1      26.119   2.675  50.091  1.00  0.00     0.182 C 
BRANCH  24  25
HETATM   25  C12 UNL     1      26.731   2.085  51.316  1.00  0.00     0.052 A 
HETATM   26  C13 UNL     1      26.317   0.764  51.544  1.00  0.00     0.029 A 
HETATM   27  C14 UNL     1      26.724  -0.064  52.569  1.00  0.00     0.003 A 
HETATM   28  C15 UNL     1      27.632   0.431  53.478  1.00  0.00     0.019 A 
HETATM   29  C16 UNL     1      28.048   1.723  53.271  1.00  0.00     0.117 A 
HETATM   30  N3  UNL     1      27.609   2.463  52.254  1.00  0.00    -0.264 NA
ENDBRANCH  24  25
ENDBRANCH  13  24
BRANCH  20  31
HETATM   31  O2  UNL     1      19.804   4.279  47.805  1.00  0.00    -0.356 OA
HETATM   32  C20 UNL     1      20.495   3.513  46.857  1.00  0.00     0.209 C 
ENDBRANCH  20  31
TORSDOF 3
ENDMDL
MODEL 8
REMARK VINA RESULT:      -7.9      2.148      5.293
REMARK  3 active torsions:
REMARK  status: ('A' for Active; 'I' for Inactive)
REMARK    1  A    between atoms: N2_13  and  C11_14 
REMARK    2  A    between atoms: C11_14  and  C12_15 
REMARK    3  A    between atoms: C19_27  and  O2_28 
ROOT
HETATM    1  C1  UNL     1      22.417  -1.467  54.274  1.00  0.00     0.038 C 
HETATM    2  C2  UNL     1      23.278  -0.395  53.795  1.00  0.00    -0.002 C 
HETATM    3  C3  UNL     1      22.966   0.513  52.826  1.00  0.00     0.026 C 
HETATM    4  C4  UNL     1      21.650   0.237  52.352  1.00  0.00     0.034 C 
HETATM    5  C5  UNL     1      20.581   0.380  51.631  1.00  0.00     0.076 C 
HETATM    6  C6  UNL     1      20.277   1.373  50.550  1.00  0.00     0.242 C 
HETATM    7  O1  UNL     1      19.605   1.953  49.622  1.00  0.00    -0.269 OA
HETATM    8  N1  UNL     1      21.024   2.500  50.012  1.00  0.00    -0.344 N 
HETATM    9  C7  UNL     1      21.782   3.647  49.464  1.00  0.00     0.168 C 
HETATM   10  C8  UNL     1      23.088   3.754  50.124  1.00  0.00     0.031 C 
HETATM   11  C9  UNL     1      24.059   3.131  50.763  1.00  0.00     0.023 C 
HETATM   12  C10 UNL     1      24.215   1.697  51.153  1.00  0.00     0.179 C 
HETATM   13  N2  UNL     1      24.059   1.473  52.580  1.00  0.00    -0.370 N 
HETATM   14  N4  UNL     1      25.195   4.038  50.950  1.00  0.00    -0.372 N 
HETATM   15  C17 UNL     1      25.221   5.406  50.437  1.00  0.00     0.296 C 
HETATM   16  N5  UNL     1      25.156   5.564  49.043  1.00  0.00    -0.155 NA
HETATM   17  N6  UNL     1      24.307   5.818  48.200  1.00  0.00    -0.072 NA
HETATM   18  N7  UNL     1      22.942   6.068  48.345  1.00  0.00    -0.269 N 
HETATM   19  C18 UNL     1      21.700   5.924  49.075  1.00  0.00     0.145 C 
HETATM   20  C19 UNL     1      21.008   4.923  49.657  1.00  0.00     0.089 C 
HETATM   21  H7  UNL     1      21.638   2.358  50.871  1.00  0.00     0.163 HD
HETATM   22  H18 UNL     1      25.988   3.593  51.475  1.00  0.00     0.161 HD
HETATM   23  H21 UNL     1      22.919   6.616  47.461  1.00  0.00     0.190 HD
ENDROOT
BRANCH  13  24
HETATM   24  C11 UNL     1      24.700   1.860  53.812  1.00  0.00     0.182 C 
BRANCH  24  25
HETATM   25  C12 UNL     1      26.188   1.758  53.816  1.00  0.00     0.052 A 
HETATM   26  C13 UNL     1      26.653   0.676  54.578  1.00  0.00     0.029 A 
HETATM   27  C14 UNL     1      27.966   0.294  54.755  1.00  0.00     0.003 A 
HETATM   28  C15 UNL     1      28.944   1.033  54.129  1.00  0.00     0.019 A 
HETATM   29  C16 UNL     1      28.508   2.096  53.379  1.00  0.00     0.117 A 
HETATM   30  N3  UNL     1      27.218   2.404  53.254  1.00  0.00    -0.264 NA
ENDBRANCH  24  25
ENDBRANCH  13  24
BRANCH  20  31
HETATM   31  O2  UNL     1      19.834   5.236  50.261  1.00  0.00    -0.356 OA
HETATM   32  C20 UNL     1      18.582   5.280  49.634  1.00  0.00     0.209 C 
ENDBRANCH  20  31
TORSDOF 3
ENDMDL
MODEL 9
REMARK VINA RESULT:      -7.8      2.608      5.512
REMARK  3 active torsions:
REMARK  status: ('A' for Active; 'I' for Inactive)
REMARK    1  A    between atoms: N2_13  and  C11_14 
REMARK    2  A    between atoms: C11_14  and  C12_15 
REMARK    3  A    between atoms: C19_27  and  O2_28 
ROOT
HETATM    1  C1  UNL     1      24.199  -0.512  53.850  1.00  0.00     0.038 C 
HETATM    2  C2  UNL     1      24.098   0.598  52.914  1.00  0.00    -0.002 C 
HETATM    3  C3  UNL     1      22.953   1.050  52.325  1.00  0.00     0.026 C 
HETATM    4  C4  UNL     1      21.864   0.248  52.776  1.00  0.00     0.034 C 
HETATM    5  C5  UNL     1      20.638  -0.166  52.870  1.00  0.00     0.076 C 
HETATM    6  C6  UNL     1      19.401   0.334  52.187  1.00  0.00     0.242 C 
HETATM    7  O1  UNL     1      18.160   0.384  51.861  1.00  0.00    -0.269 OA
HETATM    8  N1  UNL     1      19.161   1.441  51.273  1.00  0.00    -0.344 N 
HETATM    9  C7  UNL     1      18.916   2.567  50.344  1.00  0.00     0.168 C 
HETATM   10  C8  UNL     1      20.172   3.264  50.049  1.00  0.00     0.031 C 
HETATM   11  C9  UNL     1      21.486   3.189  49.964  1.00  0.00     0.023 C 
HETATM   12  C10 UNL     1      22.421   2.050  50.210  1.00  0.00     0.179 C 
HETATM   13  N2  UNL     1      23.194   2.197  51.430  1.00  0.00    -0.370 N 
HETATM   14  N4  UNL     1      22.020   4.424  49.384  1.00  0.00    -0.372 N 
HETATM   15  C17 UNL     1      21.175   5.527  48.931  1.00  0.00     0.296 C 
HETATM   16  N5  UNL     1      20.290   5.258  47.874  1.00  0.00    -0.155 NA
HETATM   17  N6  UNL     1      19.107   4.982  47.734  1.00  0.00    -0.072 NA
HETATM   18  N7  UNL     1      18.102   4.814  48.687  1.00  0.00    -0.269 N 
HETATM   19  C18 UNL     1      17.677   4.493  50.033  1.00  0.00     0.145 C 
HETATM   20  C19 UNL     1      17.927   3.530  50.944  1.00  0.00     0.089 C 
HETATM   21  H7  UNL     1      20.138   1.748  51.569  1.00  0.00     0.163 HD
HETATM   22  H18 UNL     1      23.068   4.422  49.316  1.00  0.00     0.161 HD
HETATM   23  H21 UNL     1      17.364   5.055  47.994  1.00  0.00     0.190 HD
ENDROOT
BRANCH  13  24
HETATM   24  C11 UNL     1      24.172   3.098  51.989  1.00  0.00     0.182 C 
BRANCH  24  25
HETATM   25  C12 UNL     1      24.918   3.924  50.998  1.00  0.00     0.052 A 
HETATM   26  C13 UNL     1      25.946   3.210  50.364  1.00  0.00     0.029 A 
HETATM   27  C14 UNL     1      26.793   3.677  49.381  1.00  0.00     0.003 A 
HETATM   28  C15 UNL     1      26.635   4.978  48.958  1.00  0.00     0.019 A 
HETATM   29  C16 UNL     1      25.634   5.692  49.567  1.00  0.00     0.117 A 
HETATM   30  N3  UNL     1      24.854   5.170  50.511  1.00  0.00    -0.264 NA
ENDBRANCH  24  25
ENDBRANCH  13  24
BRANCH  20  31
HETATM   31  O2  UNL     1      17.287   3.609  52.138  1.00  0.00    -0.356 OA
HETATM   32  C20 UNL     1      15.984   4.087  52.332  1.00  0.00     0.209 C 
ENDBRANCH  20  31
TORSDOF 3
ENDMDL
