MODEL 1
REMARK VINA RESULT:      -8.0      0.000      0.000
REMARK  8 active torsions:
REMARK  status: ('A' for Active; 'I' for Inactive)
REMARK    1  A    between atoms: O1_2  and  C2_3 
REMARK    2  A    between atoms: C5_6  and  C6_7 
REMARK    3  A    between atoms: C6_7  and  C7_8 
REMARK    4  A    between atoms: C10_11  and  C11_12 
REMARK    5  A    between atoms: C13_15  and  N2_16 
REMARK    6  A    between atoms: C14_18  and  N4_19 
REMARK    7  A    between atoms: C15_20  and  O2_21 
REMARK    8  A    between atoms: C15_20  and  O3_22 
ROOT
HETATM    1  C7  UNL     1      25.942   4.304  49.425  1.00  0.00    -0.009 A 
HETATM    2  C8  UNL     1      27.149   4.368  48.939  1.00  0.00     0.010 A 
HETATM    3  C9  UNL     1      27.440   5.748  48.580  1.00  0.00     0.014 A 
HETATM    4  C10 UNL     1      26.434   6.563  48.831  1.00  0.00     0.024 A 
HETATM    5  C15 UNL     1      25.390   5.682  49.399  1.00  0.00     0.217 A 
ENDROOT
BRANCH   4   6
HETATM    6  C11 UNL     1      26.285   7.979  48.639  1.00  0.00     0.040 A 
HETATM    7  C12 UNL     1      25.873   8.498  47.422  1.00  0.00     0.152 A 
HETATM    8  N1  UNL     1      25.715   9.788  47.174  1.00  0.00    -0.074 NA
HETATM    9  C13 UNL     1      25.956  10.715  48.137  1.00  0.00     0.721 A 
HETATM   10  N3  UNL     1      26.355  10.235  49.327  1.00  0.00    -0.045 NA
HETATM   11  C14 UNL     1      26.515   8.936  49.576  1.00  0.00     0.153 A 
BRANCH   9  12
HETATM   12  N2  UNL     1      25.788  12.100  47.883  1.00  0.00    -0.231 N 
HETATM   13  H11 UNL     1      24.881  12.568  48.156  1.00  0.00     0.174 HD
HETATM   14  H12 UNL     1      26.478  12.775  47.433  1.00  0.00     0.174 HD
ENDBRANCH   9  12
BRANCH  11  15
HETATM   15  N4  UNL     1      26.943   8.571  50.880  1.00  0.00    -0.383 N 
HETATM   16  H13 UNL     1      27.645   7.794  50.789  1.00  0.00     0.157 HD
HETATM   17  H14 UNL     1      26.625   8.992  51.800  1.00  0.00     0.157 HD
ENDBRANCH  11  15
ENDBRANCH   4   6
BRANCH   5  18
HETATM   18  O2  UNL     1      25.135   6.036  50.727  1.00  0.00    -0.358 OA
HETATM   19  H15 UNL     1      25.309   6.987  50.911  1.00  0.00     0.213 HD
ENDBRANCH   5  18
BRANCH   5  20
HETATM   20  O3  UNL     1      24.183   5.787  48.735  1.00  0.00    -0.352 OA
HETATM   21  C16 UNL     1      23.151   6.319  49.462  1.00  0.00     0.206 C 
ENDBRANCH   5  20
BRANCH   1  22
HETATM   22  C6  UNL     1      25.056   3.241  49.963  1.00  0.00     0.079 C 
BRANCH  22  23
HETATM   23  C5  UNL     1      25.507   2.738  51.274  1.00  0.00    -0.048 A 
HETATM   24  C4  UNL     1      26.745   2.092  51.328  1.00  0.00     0.011 A 
HETATM   25  C3  UNL     1      27.244   1.589  52.524  1.00  0.00     0.037 A 
HETATM   26  C2  UNL     1      26.461   1.756  53.668  1.00  0.00     0.068 A 
HETATM   27  C19 UNL     1      25.237   2.389  53.639  1.00  0.00     0.044 A 
HETATM   28  C17 UNL     1      24.760   2.885  52.421  1.00  0.00    -0.053 A 
HETATM   29  C18 UNL     1      23.439   3.571  52.375  1.00  0.00     0.049 C 
BRANCH  26  30
HETATM   30  O1  UNL     1      27.050   1.220  54.803  1.00  0.00    -0.356 OA
HETATM   31  C1  UNL     1      28.145   0.300  54.683  1.00  0.00     0.210 C 
ENDBRANCH  26  30
ENDBRANCH  22  23
ENDBRANCH   1  22
TORSDOF 8
ENDMDL
MODEL 2
REMARK VINA RESULT:      -7.5      1.729      2.228
REMARK  8 active torsions:
REMARK  status: ('A' for Active; 'I' for Inactive)
REMARK    1  A    between atoms: O1_2  and  C2_3 
REMARK    2  A    between atoms: C5_6  and  C6_7 
REMARK    3  A    between atoms: C6_7  and  C7_8 
REMARK    4  A    between atoms: C10_11  and  C11_12 
REMARK    5  A    between atoms: C13_15  and  N2_16 
REMARK    6  A    between atoms: C14_18  and  N4_19 
REMARK    7  A    between atoms: C15_20  and  O2_21 
REMARK    8  A    between atoms: C15_20  and  O3_22 
ROOT
HETATM    1  C7  UNL     1      24.217   3.377  50.899  1.00  0.00    -0.009 A 
HETATM    2  C8  UNL     1      25.144   3.117  50.022  1.00  0.00     0.010 A 
HETATM    3  C9  UNL     1      25.426   4.324  49.260  1.00  0.00     0.014 A 
HETATM    4  C10 UNL     1      24.688   5.350  49.640  1.00  0.00     0.024 A 
HETATM    5  C15 UNL     1      23.852   4.807  50.733  1.00  0.00     0.217 A 
ENDROOT
BRANCH   4   6
HETATM    6  C11 UNL     1      24.634   6.708  49.175  1.00  0.00     0.040 A 
HETATM    7  C12 UNL     1      23.844   7.064  48.093  1.00  0.00     0.152 A 
HETATM    8  N1  UNL     1      23.746   8.291  47.611  1.00  0.00    -0.074 NA
HETATM    9  C13 UNL     1      24.439   9.315  48.171  1.00  0.00     0.721 A 
HETATM   10  N3  UNL     1      25.212   8.995  49.223  1.00  0.00    -0.045 NA
HETATM   11  C14 UNL     1      25.311   7.758  49.708  1.00  0.00     0.153 A 
BRANCH   9  12
HETATM   12  N2  UNL     1      24.341  10.636  47.663  1.00  0.00    -0.231 N 
HETATM   13  H11 UNL     1      24.534  11.451  48.307  1.00  0.00     0.174 HD
HETATM   14  H12 UNL     1      24.086  10.945  46.677  1.00  0.00     0.174 HD
ENDBRANCH   9  12
BRANCH  11  15
HETATM   15  N4  UNL     1      26.166   7.563  50.825  1.00  0.00    -0.383 N 
HETATM   16  H13 UNL     1      26.056   8.386  51.470  1.00  0.00     0.157 HD
HETATM   17  H14 UNL     1      26.813   6.740  51.001  1.00  0.00     0.157 HD
ENDBRANCH  11  15
ENDBRANCH   4   6
BRANCH   5  18
HETATM   18  O2  UNL     1      24.165   5.441  51.938  1.00  0.00    -0.358 OA
HETATM   19  H15 UNL     1      24.711   6.251  51.814  1.00  0.00     0.213 HD
ENDBRANCH   5  18
BRANCH   5  20
HETATM   20  O3  UNL     1      22.501   5.017  50.527  1.00  0.00    -0.352 OA
HETATM   21  C16 UNL     1      21.900   5.894  51.392  1.00  0.00     0.206 C 
ENDBRANCH   5  20
BRANCH   1  22
HETATM   22  C6  UNL     1      23.493   2.622  51.953  1.00  0.00     0.079 C 
BRANCH  22  23
HETATM   23  C5  UNL     1      24.394   1.796  52.777  1.00  0.00    -0.048 A 
HETATM   24  C4  UNL     1      25.605   2.366  53.181  1.00  0.00     0.011 A 
HETATM   25  C3  UNL     1      26.512   1.656  53.961  1.00  0.00     0.037 A 
HETATM   26  C2  UNL     1      26.164   0.354  54.324  1.00  0.00     0.068 A 
HETATM   27  C19 UNL     1      24.976  -0.229  53.939  1.00  0.00     0.044 A 
HETATM   28  C17 UNL     1      24.083   0.509  53.154  1.00  0.00    -0.053 A 
HETATM   29  C18 UNL     1      22.797  -0.108  52.729  1.00  0.00     0.049 C 
BRANCH  26  30
HETATM   30  O1  UNL     1      27.135  -0.263  55.099  1.00  0.00    -0.356 OA
HETATM   31  C1  UNL     1      28.524   0.016  54.874  1.00  0.00     0.210 C 
ENDBRANCH  26  30
ENDBRANCH  22  23
ENDBRANCH   1  22
TORSDOF 8
ENDMDL
MODEL 3
REMARK VINA RESULT:      -7.3      5.132      8.554
REMARK  8 active torsions:
REMARK  status: ('A' for Active; 'I' for Inactive)
REMARK    1  A    between atoms: O1_2  and  C2_3 
REMARK    2  A    between atoms: C5_6  and  C6_7 
REMARK    3  A    between atoms: C6_7  and  C7_8 
REMARK    4  A    between atoms: C10_11  and  C11_12 
REMARK    5  A    between atoms: C13_15  and  N2_16 
REMARK    6  A    between atoms: C14_18  and  N4_19 
REMARK    7  A    between atoms: C15_20  and  O2_21 
REMARK    8  A    between atoms: C15_20  and  O3_22 
ROOT
HETATM    1  C7  UNL     1      23.367   2.297  52.494  1.00  0.00    -0.009 A 
HETATM    2  C8  UNL     1      22.672   1.356  53.067  1.00  0.00     0.010 A 
HETATM    3  C9  UNL     1      23.559   0.253  53.407  1.00  0.00     0.014 A 
HETATM    4  C10 UNL     1      24.811   0.480  53.057  1.00  0.00     0.024 A 
HETATM    5  C15 UNL     1      24.774   1.825  52.441  1.00  0.00     0.217 A 
ENDROOT
BRANCH   4   6
HETATM    6  C11 UNL     1      25.998  -0.317  53.197  1.00  0.00     0.040 A 
HETATM    7  C12 UNL     1      26.223  -1.416  52.384  1.00  0.00     0.152 A 
HETATM    8  N1  UNL     1      27.291  -2.193  52.457  1.00  0.00    -0.074 NA
HETATM    9  C13 UNL     1      28.267  -1.949  53.368  1.00  0.00     0.721 A 
HETATM   10  N3  UNL     1      28.071  -0.887  54.168  1.00  0.00    -0.045 NA
HETATM   11  C14 UNL     1      26.996  -0.104  54.095  1.00  0.00     0.153 A 
BRANCH   9  12
HETATM   12  N2  UNL     1      29.417  -2.775  53.454  1.00  0.00    -0.231 N 
HETATM   13  H11 UNL     1      29.820  -2.999  54.405  1.00  0.00     0.174 HD
HETATM   14  H12 UNL     1      29.964  -3.226  52.661  1.00  0.00     0.174 HD
ENDBRANCH   9  12
BRANCH  11  15
HETATM   15  N4  UNL     1      26.919   0.984  55.003  1.00  0.00    -0.383 N 
HETATM   16  H13 UNL     1      27.225   0.644  55.949  1.00  0.00     0.157 HD
HETATM   17  H14 UNL     1      26.610   1.977  54.789  1.00  0.00     0.157 HD
ENDBRANCH  11  15
ENDBRANCH   4   6
BRANCH   5  18
HETATM   18  O2  UNL     1      25.526   2.722  53.203  1.00  0.00    -0.358 OA
HETATM   19  H15 UNL     1      24.969   3.367  53.697  1.00  0.00     0.213 HD
ENDBRANCH   5  18
BRANCH   5  20
HETATM   20  O3  UNL     1      25.322   1.846  51.172  1.00  0.00    -0.352 OA
HETATM   21  C16 UNL     1      26.485   2.558  51.041  1.00  0.00     0.206 C 
ENDBRANCH   5  20
BRANCH   1  22
HETATM   22  C6  UNL     1      23.093   3.640  51.924  1.00  0.00     0.079 C 
BRANCH  22  23
HETATM   23  C5  UNL     1      22.789   3.590  50.482  1.00  0.00    -0.048 A 
HETATM   24  C4  UNL     1      21.905   2.601  50.040  1.00  0.00     0.011 A 
HETATM   25  C3  UNL     1      21.565   2.485  48.697  1.00  0.00     0.037 A 
HETATM   26  C2  UNL     1      22.140   3.396  47.808  1.00  0.00     0.068 A 
HETATM   27  C19 UNL     1      23.013   4.380  48.220  1.00  0.00     0.044 A 
HETATM   28  C17 UNL     1      23.338   4.472  49.577  1.00  0.00    -0.053 A 
HETATM   29  C18 UNL     1      24.280   5.529  50.036  1.00  0.00     0.049 C 
BRANCH  26  30
HETATM   30  O1  UNL     1      21.734   3.194  46.498  1.00  0.00    -0.356 OA
HETATM   31  C1  UNL     1      21.919   4.225  45.517  1.00  0.00     0.210 C 
ENDBRANCH  26  30
ENDBRANCH  22  23
ENDBRANCH   1  22
TORSDOF 8
ENDMDL
MODEL 4
REMARK VINA RESULT:      -7.2      2.850      3.779
REMARK  8 active torsions:
REMARK  status: ('A' for Active; 'I' for Inactive)
REMARK    1  A    between atoms: O1_2  and  C2_3 
REMARK    2  A    between atoms: C5_6  and  C6_7 
REMARK    3  A    between atoms: C6_7  and  C7_8 
REMARK    4  A    between atoms: C10_11  and  C11_12 
REMARK    5  A    between atoms: C13_15  and  N2_16 
REMARK    6  A    between atoms: C14_18  and  N4_19 
REMARK    7  A    between atoms: C15_20  and  O2_21 
REMARK    8  A    between atoms: C15_20  and  O3_22 
ROOT
HETATM    1  C7  UNL     1      23.698   2.858  52.034  1.00  0.00    -0.009 A 
HETATM    2  C8  UNL     1      23.824   3.545  53.133  1.00  0.00     0.010 A 
HETATM    3  C9  UNL     1      23.531   4.942  52.853  1.00  0.00     0.014 A 
HETATM    4  C10 UNL     1      23.221   5.154  51.588  1.00  0.00     0.024 A 
HETATM    5  C15 UNL     1      23.306   3.814  50.967  1.00  0.00     0.217 A 
ENDROOT
BRANCH   4   6
HETATM    6  C11 UNL     1      22.868   6.355  50.882  1.00  0.00     0.040 A 
HETATM    7  C12 UNL     1      21.556   6.798  50.834  1.00  0.00     0.152 A 
HETATM    8  N1  UNL     1      21.159   7.891  50.204  1.00  0.00    -0.074 NA
HETATM    9  C13 UNL     1      22.050   8.674  49.543  1.00  0.00     0.721 A 
HETATM   10  N3  UNL     1      23.330   8.265  49.578  1.00  0.00    -0.045 NA
HETATM   11  C14 UNL     1      23.729   7.164  50.211  1.00  0.00     0.153 A 
BRANCH   9  12
HETATM   12  N2  UNL     1      21.636   9.850  48.866  1.00  0.00    -0.231 N 
HETATM   13  H11 UNL     1      21.564  10.756  49.405  1.00  0.00     0.174 HD
HETATM   14  H12 UNL     1      21.373   9.960  47.841  1.00  0.00     0.174 HD
ENDBRANCH   9  12
BRANCH  11  15
HETATM   15  N4  UNL     1      25.113   6.851  50.165  1.00  0.00    -0.383 N 
HETATM   16  H13 UNL     1      25.493   6.898  51.143  1.00  0.00     0.157 HD
HETATM   17  H14 UNL     1      25.687   6.608  49.305  1.00  0.00     0.157 HD
ENDBRANCH  11  15
ENDBRANCH   4   6
BRANCH   5  18
HETATM   18  O2  UNL     1      22.047   3.414  50.515  1.00  0.00    -0.358 OA
HETATM   19  H15 UNL     1      21.386   4.143  50.523  1.00  0.00     0.213 HD
ENDBRANCH   5  18
BRANCH   5  20
HETATM   20  O3  UNL     1      24.137   3.788  49.863  1.00  0.00    -0.352 OA
HETATM   21  C16 UNL     1      23.521   3.546  48.664  1.00  0.00     0.206 C 
ENDBRANCH   5  20
BRANCH   1  22
HETATM   22  C6  UNL     1      23.846   1.436  51.633  1.00  0.00     0.079 C 
BRANCH  22  23
HETATM   23  C5  UNL     1      24.940   0.756  52.352  1.00  0.00    -0.048 A 
HETATM   24  C4  UNL     1      26.251   1.054  51.968  1.00  0.00     0.011 A 
HETATM   25  C3  UNL     1      27.339   0.458  52.595  1.00  0.00     0.037 A 
HETATM   26  C2  UNL     1      27.070  -0.448  53.623  1.00  0.00     0.068 A 
HETATM   27  C19 UNL     1      25.787  -0.757  54.020  1.00  0.00     0.044 A 
HETATM   28  C17 UNL     1      24.711  -0.142  53.370  1.00  0.00    -0.053 A 
HETATM   29  C18 UNL     1      23.320  -0.467  53.787  1.00  0.00     0.049 C 
BRANCH  26  30
HETATM   30  O1  UNL     1      28.223  -0.983  54.180  1.00  0.00    -0.356 OA
HETATM   31  C1  UNL     1      29.438  -1.030  53.419  1.00  0.00     0.210 C 
ENDBRANCH  26  30
ENDBRANCH  22  23
ENDBRANCH   1  22
TORSDOF 8
ENDMDL
MODEL 5
REMARK VINA RESULT:      -7.2      6.760      9.100
REMARK  8 active torsions:
REMARK  status: ('A' for Active; 'I' for Inactive)
REMARK    1  A    between atoms: O1_2  and  C2_3 
REMARK    2  A    between atoms: C5_6  and  C6_7 
REMARK    3  A    between atoms: C6_7  and  C7_8 
REMARK    4  A    between atoms: C10_11  and  C11_12 
REMARK    5  A    between atoms: C13_15  and  N2_16 
REMARK    6  A    between atoms: C14_18  and  N4_19 
REMARK    7  A    between atoms: C15_20  and  O2_21 
REMARK    8  A    between atoms: C15_20  and  O3_22 
ROOT
HETATM    1  C7  UNL     1      22.077   1.241  52.069  1.00  0.00    -0.009 A 
HETATM    2  C8  UNL     1      21.957   0.680  50.899  1.00  0.00     0.010 A 
HETATM    3  C9  UNL     1      20.584   0.226  50.732  1.00  0.00     0.014 A 
HETATM    4  C10 UNL     1      19.829   0.490  51.781  1.00  0.00     0.024 A 
HETATM    5  C15 UNL     1      20.745   1.170  52.722  1.00  0.00     0.217 A 
ENDROOT
BRANCH   4   6
HETATM    6  C11 UNL     1      18.442   0.227  52.045  1.00  0.00     0.040 A 
HETATM    7  C12 UNL     1      18.033  -0.974  52.602  1.00  0.00     0.152 A 
HETATM    8  N1  UNL     1      16.776  -1.284  52.872  1.00  0.00    -0.074 NA
HETATM    9  C13 UNL     1      15.773  -0.408  52.609  1.00  0.00     0.721 A 
HETATM   10  N3  UNL     1      16.145   0.766  52.070  1.00  0.00    -0.045 NA
HETATM   11  C14 UNL     1      17.411   1.077  51.798  1.00  0.00     0.153 A 
BRANCH   9  12
HETATM   12  N2  UNL     1      14.421  -0.729  52.896  1.00  0.00    -0.231 N 
HETATM   13  H11 UNL     1      13.690   0.033  52.849  1.00  0.00     0.174 HD
HETATM   14  H12 UNL     1      14.012  -1.673  53.167  1.00  0.00     0.174 HD
ENDBRANCH   9  12
BRANCH  11  15
HETATM   15  N4  UNL     1      17.659   2.354  51.227  1.00  0.00    -0.383 N 
HETATM   16  H13 UNL     1      16.744   2.866  51.159  1.00  0.00     0.157 HD
HETATM   17  H14 UNL     1      18.595   2.745  50.915  1.00  0.00     0.157 HD
ENDBRANCH  11  15
ENDBRANCH   4   6
BRANCH   5  18
HETATM   18  O2  UNL     1      20.330   2.488  52.929  1.00  0.00    -0.358 OA
HETATM   19  H15 UNL     1      19.354   2.572  53.024  1.00  0.00     0.213 HD
ENDBRANCH   5  18
BRANCH   5  20
HETATM   20  O3  UNL     1      20.768   0.574  53.970  1.00  0.00    -0.352 OA
HETATM   21  C16 UNL     1      21.158  -0.739  53.992  1.00  0.00     0.206 C 
ENDBRANCH   5  20
BRANCH   1  22
HETATM   22  C6  UNL     1      23.165   1.891  52.842  1.00  0.00     0.079 C 
BRANCH  22  23
HETATM   23  C5  UNL     1      24.389   1.070  52.895  1.00  0.00    -0.048 A 
HETATM   24  C4  UNL     1      24.422   0.016  53.813  1.00  0.00     0.011 A 
HETATM   25  C3  UNL     1      25.537  -0.807  53.926  1.00  0.00     0.037 A 
HETATM   26  C2  UNL     1      26.621  -0.538  53.088  1.00  0.00     0.068 A 
HETATM   27  C19 UNL     1      26.612   0.495  52.176  1.00  0.00     0.044 A 
HETATM   28  C17 UNL     1      25.476   1.307  52.084  1.00  0.00    -0.053 A 
HETATM   29  C18 UNL     1      25.452   2.427  51.104  1.00  0.00     0.049 C 
BRANCH  26  30
HETATM   30  O1  UNL     1      27.677  -1.416  53.282  1.00  0.00    -0.356 OA
HETATM   31  C1  UNL     1      29.014  -0.915  53.429  1.00  0.00     0.210 C 
ENDBRANCH  26  30
ENDBRANCH  22  23
ENDBRANCH   1  22
TORSDOF 8
ENDMDL
MODEL 6
REMARK VINA RESULT:      -7.2      5.647      8.781
REMARK  8 active torsions:
REMARK  status: ('A' for Active; 'I' for Inactive)
REMARK    1  A    between atoms: O1_2  and  C2_3 
REMARK    2  A    between atoms: C5_6  and  C6_7 
REMARK    3  A    between atoms: C6_7  and  C7_8 
REMARK    4  A    between atoms: C10_11  and  C11_12 
REMARK    5  A    between atoms: C13_15  and  N2_16 
REMARK    6  A    between atoms: C14_18  and  N4_19 
REMARK    7  A    between atoms: C15_20  and  O2_21 
REMARK    8  A    between atoms: C15_20  and  O3_22 
ROOT
HETATM    1  C7  UNL     1      23.337   2.254  52.519  1.00  0.00    -0.009 A 
HETATM    2  C8  UNL     1      22.648   1.280  53.043  1.00  0.00     0.010 A 
HETATM    3  C9  UNL     1      23.550   0.185  53.368  1.00  0.00     0.014 A 
HETATM    4  C10 UNL     1      24.805   0.449  53.058  1.00  0.00     0.024 A 
HETATM    5  C15 UNL     1      24.755   1.813  52.486  1.00  0.00     0.217 A 
ENDROOT
BRANCH   4   6
HETATM    6  C11 UNL     1      26.004  -0.327  53.201  1.00  0.00     0.040 A 
HETATM    7  C12 UNL     1      26.258  -1.413  52.378  1.00  0.00     0.152 A 
HETATM    8  N1  UNL     1      27.339  -2.171  52.454  1.00  0.00    -0.074 NA
HETATM    9  C13 UNL     1      28.302  -1.919  53.377  1.00  0.00     0.721 A 
HETATM   10  N3  UNL     1      28.078  -0.870  54.186  1.00  0.00    -0.045 NA
HETATM   11  C14 UNL     1      26.990  -0.107  54.111  1.00  0.00     0.153 A 
BRANCH   9  12
HETATM   12  N2  UNL     1      29.466  -2.725  53.466  1.00  0.00    -0.231 N 
HETATM   13  H11 UNL     1      30.162  -2.541  54.240  1.00  0.00     0.174 HD
HETATM   14  H12 UNL     1      29.759  -3.530  52.835  1.00  0.00     0.174 HD
ENDBRANCH   9  12
BRANCH  11  15
HETATM   15  N4  UNL     1      26.884   0.970  55.030  1.00  0.00    -0.383 N 
HETATM   16  H13 UNL     1      27.854   1.242  55.330  1.00  0.00     0.157 HD
HETATM   17  H14 UNL     1      25.994   1.436  55.372  1.00  0.00     0.157 HD
ENDBRANCH  11  15
ENDBRANCH   4   6
BRANCH   5  18
HETATM   18  O2  UNL     1      25.468   2.699  53.296  1.00  0.00    -0.358 OA
HETATM   19  H15 UNL     1      25.792   3.490  52.808  1.00  0.00     0.213 HD
ENDBRANCH   5  18
BRANCH   5  20
HETATM   20  O3  UNL     1      25.332   1.888  51.233  1.00  0.00    -0.352 OA
HETATM   21  C16 UNL     1      26.465   2.655  51.147  1.00  0.00     0.206 C 
ENDBRANCH   5  20
BRANCH   1  22
HETATM   22  C6  UNL     1      23.048   3.610  51.987  1.00  0.00     0.079 C 
BRANCH  22  23
HETATM   23  C5  UNL     1      21.809   3.651  51.188  1.00  0.00    -0.048 A 
HETATM   24  C4  UNL     1      20.611   3.898  51.864  1.00  0.00     0.011 A 
HETATM   25  C3  UNL     1      19.399   3.954  51.185  1.00  0.00     0.037 A 
HETATM   26  C2  UNL     1      19.426   3.755  49.804  1.00  0.00     0.068 A 
HETATM   27  C19 UNL     1      20.595   3.511  49.115  1.00  0.00     0.044 A 
HETATM   28  C17 UNL     1      21.800   3.459  49.824  1.00  0.00    -0.053 A 
HETATM   29  C18 UNL     1      23.070   3.195  49.094  1.00  0.00     0.049 C 
BRANCH  26  30
HETATM   30  O1  UNL     1      18.168   3.832  49.226  1.00  0.00    -0.356 OA
HETATM   31  C1  UNL     1      16.999   3.937  50.053  1.00  0.00     0.210 C 
ENDBRANCH  26  30
ENDBRANCH  22  23
ENDBRANCH   1  22
TORSDOF 8
ENDMDL
MODEL 7
REMARK VINA RESULT:      -7.1      6.537      8.834
REMARK  8 active torsions:
REMARK  status: ('A' for Active; 'I' for Inactive)
REMARK    1  A    between atoms: O1_2  and  C2_3 
REMARK    2  A    between atoms: C5_6  and  C6_7 
REMARK    3  A    between atoms: C6_7  and  C7_8 
REMARK    4  A    between atoms: C10_11  and  C11_12 
REMARK    5  A    between atoms: C13_15  and  N2_16 
REMARK    6  A    between atoms: C14_18  and  N4_19 
REMARK    7  A    between atoms: C15_20  and  O2_21 
REMARK    8  A    between atoms: C15_20  and  O3_22 
ROOT
HETATM    1  C7  UNL     1      22.467   1.858  51.599  1.00  0.00    -0.009 A 
HETATM    2  C8  UNL     1      21.880   2.756  52.337  1.00  0.00     0.010 A 
HETATM    3  C9  UNL     1      20.584   2.246  52.761  1.00  0.00     0.014 A 
HETATM    4  C10 UNL     1      20.339   1.034  52.301  1.00  0.00     0.024 A 
HETATM    5  C15 UNL     1      21.546   0.696  51.515  1.00  0.00     0.217 A 
ENDROOT
BRANCH   4   6
HETATM    6  C11 UNL     1      19.207   0.165  52.466  1.00  0.00     0.040 A 
HETATM    7  C12 UNL     1      18.081   0.296  51.671  1.00  0.00     0.152 A 
HETATM    8  N1  UNL     1      17.005  -0.468  51.767  1.00  0.00    -0.074 NA
HETATM    9  C13 UNL     1      16.940  -1.464  52.687  1.00  0.00     0.721 A 
HETATM   10  N3  UNL     1      18.023  -1.612  53.470  1.00  0.00    -0.045 NA
HETATM   11  C14 UNL     1      19.106  -0.843  53.373  1.00  0.00     0.153 A 
BRANCH   9  12
HETATM   12  N2  UNL     1      15.792  -2.290  52.799  1.00  0.00    -0.231 N 
HETATM   13  H11 UNL     1      15.269  -2.565  51.923  1.00  0.00     0.174 HD
HETATM   14  H12 UNL     1      15.355  -2.694  53.681  1.00  0.00     0.174 HD
ENDBRANCH   9  12
BRANCH  11  15
HETATM   15  N4  UNL     1      20.177  -1.111  54.266  1.00  0.00    -0.383 N 
HETATM   16  H13 UNL     1      20.142  -2.129  54.523  1.00  0.00     0.157 HD
HETATM   17  H14 UNL     1      20.899  -0.421  54.626  1.00  0.00     0.157 HD
ENDBRANCH  11  15
ENDBRANCH   4   6
BRANCH   5  18
HETATM   18  O2  UNL     1      22.211  -0.385  52.099  1.00  0.00    -0.358 OA
HETATM   19  H15 UNL     1      22.056  -0.452  53.069  1.00  0.00     0.213 HD
ENDBRANCH   5  18
BRANCH   5  20
HETATM   20  O3  UNL     1      21.250   0.311  50.221  1.00  0.00    -0.352 OA
HETATM   21  C16 UNL     1      20.770   1.301  49.404  1.00  0.00     0.206 C 
ENDBRANCH   5  20
BRANCH   1  22
HETATM   22  C6  UNL     1      23.757   1.738  50.874  1.00  0.00     0.079 C 
BRANCH  22  23
HETATM   23  C5  UNL     1      24.919   1.740  51.783  1.00  0.00    -0.048 A 
HETATM   24  C4  UNL     1      24.768   1.120  53.027  1.00  0.00     0.011 A 
HETATM   25  C3  UNL     1      25.813   1.076  53.943  1.00  0.00     0.037 A 
HETATM   26  C2  UNL     1      27.018   1.675  53.571  1.00  0.00     0.068 A 
HETATM   27  C19 UNL     1      27.191   2.292  52.350  1.00  0.00     0.044 A 
HETATM   28  C17 UNL     1      26.122   2.321  51.449  1.00  0.00    -0.053 A 
HETATM   29  C18 UNL     1      26.293   2.984  50.128  1.00  0.00     0.049 C 
BRANCH  26  30
HETATM   30  O1  UNL     1      27.992   1.574  54.553  1.00  0.00    -0.356 OA
HETATM   31  C1  UNL     1      28.723   0.351  54.722  1.00  0.00     0.210 C 
ENDBRANCH  26  30
ENDBRANCH  22  23
ENDBRANCH   1  22
TORSDOF 8
ENDMDL
MODEL 8
REMARK VINA RESULT:      -7.0      3.521      4.866
REMARK  8 active torsions:
REMARK  status: ('A' for Active; 'I' for Inactive)
REMARK    1  A    between atoms: O1_2  and  C2_3 
REMARK    2  A    between atoms: C5_6  and  C6_7 
REMARK    3  A    between atoms: C6_7  and  C7_8 
REMARK    4  A    between atoms: C10_11  and  C11_12 
REMARK    5  A    between atoms: C13_15  and  N2_16 
REMARK    6  A    between atoms: C14_18  and  N4_19 
REMARK    7  A    between atoms: C15_20  and  O2_21 
REMARK    8  A    between atoms: C15_20  and  O3_22 
ROOT
HETATM    1  C7  UNL     1      23.539   2.478  51.602  1.00  0.00    -0.009 A 
HETATM    2  C8  UNL     1      23.180   1.986  50.451  1.00  0.00     0.010 A 
HETATM    3  C9  UNL     1      23.627   2.882  49.395  1.00  0.00     0.014 A 
HETATM    4  C10 UNL     1      24.267   3.938  49.859  1.00  0.00     0.024 A 
HETATM    5  C15 UNL     1      24.256   3.749  51.326  1.00  0.00     0.217 A 
ENDROOT
BRANCH   4   6
HETATM    6  C11 UNL     1      24.869   5.057  49.189  1.00  0.00     0.040 A 
HETATM    7  C12 UNL     1      24.094   6.074  48.656  1.00  0.00     0.152 A 
HETATM    8  N1  UNL     1      24.580   7.132  48.027  1.00  0.00    -0.074 NA
HETATM    9  C13 UNL     1      25.918   7.289  47.862  1.00  0.00     0.721 A 
HETATM   10  N3  UNL     1      26.691   6.314  48.372  1.00  0.00    -0.045 NA
HETATM   11  C14 UNL     1      26.202   5.249  49.005  1.00  0.00     0.153 A 
BRANCH   9  12
HETATM   12  N2  UNL     1      26.450   8.419  47.190  1.00  0.00    -0.231 N 
HETATM   13  H11 UNL     1      25.789   9.151  46.810  1.00  0.00     0.174 HD
HETATM   14  H12 UNL     1      27.471   8.652  47.002  1.00  0.00     0.174 HD
ENDBRANCH   9  12
BRANCH  11  15
HETATM   15  N4  UNL     1      27.135   4.297  49.494  1.00  0.00    -0.383 N 
HETATM   16  H13 UNL     1      26.599   3.528  49.971  1.00  0.00     0.157 HD
HETATM   17  H14 UNL     1      28.192   4.332  49.406  1.00  0.00     0.157 HD
ENDBRANCH  11  15
ENDBRANCH   4   6
BRANCH   5  18
HETATM   18  O2  UNL     1      25.561   3.583  51.798  1.00  0.00    -0.358 OA
HETATM   19  H15 UNL     1      26.168   3.204  51.122  1.00  0.00     0.213 HD
ENDBRANCH   5  18
BRANCH   5  20
HETATM   20  O3  UNL     1      23.739   4.838  52.002  1.00  0.00    -0.352 OA
HETATM   21  C16 UNL     1      22.400   5.066  51.821  1.00  0.00     0.206 C 
ENDBRANCH   5  20
BRANCH   1  22
HETATM   22  C6  UNL     1      23.406   2.084  53.028  1.00  0.00     0.079 C 
BRANCH  22  23
HETATM   23  C5  UNL     1      22.402   1.023  53.230  1.00  0.00    -0.048 A 
HETATM   24  C4  UNL     1      21.060   1.354  53.023  1.00  0.00     0.011 A 
HETATM   25  C3  UNL     1      20.050   0.414  53.191  1.00  0.00     0.037 A 
HETATM   26  C2  UNL     1      20.430  -0.874  53.574  1.00  0.00     0.068 A 
HETATM   27  C19 UNL     1      21.746  -1.225  53.783  1.00  0.00     0.044 A 
HETATM   28  C17 UNL     1      22.741  -0.257  53.607  1.00  0.00    -0.053 A 
HETATM   29  C18 UNL     1      24.167  -0.621  53.831  1.00  0.00     0.049 C 
BRANCH  26  30
HETATM   30  O1  UNL     1      19.349  -1.732  53.712  1.00  0.00    -0.356 OA
HETATM   31  C1  UNL     1      18.044  -1.326  53.275  1.00  0.00     0.210 C 
ENDBRANCH  26  30
ENDBRANCH  22  23
ENDBRANCH   1  22
TORSDOF 8
ENDMDL
MODEL 9
REMARK VINA RESULT:      -6.9      3.416      5.297
REMARK  8 active torsions:
REMARK  status: ('A' for Active; 'I' for Inactive)
REMARK    1  A    between atoms: O1_2  and  C2_3 
REMARK    2  A    between atoms: C5_6  and  C6_7 
REMARK    3  A    between atoms: C6_7  and  C7_8 
REMARK    4  A    between atoms: C10_11  and  C11_12 
REMARK    5  A    between atoms: C13_15  and  N2_16 
REMARK    6  A    between atoms: C14_18  and  N4_19 
REMARK    7  A    between atoms: C15_20  and  O2_21 
REMARK    8  A    between atoms: C15_20  and  O3_22 
ROOT
HETATM    1  C7  UNL     1      26.525   5.649  49.122  1.00  0.00    -0.009 A 
HETATM    2  C8  UNL     1      27.375   4.706  48.834  1.00  0.00     0.010 A 
HETATM    3  C9  UNL     1      28.537   5.298  48.187  1.00  0.00     0.014 A 
HETATM    4  C10 UNL     1      28.437   6.607  48.060  1.00  0.00     0.024 A 
HETATM    5  C15 UNL     1      27.123   6.928  48.660  1.00  0.00     0.217 A 
ENDROOT
BRANCH   4   6
HETATM    6  C11 UNL     1      29.330   7.580  47.494  1.00  0.00     0.040 A 
HETATM    7  C12 UNL     1      29.291   7.888  46.144  1.00  0.00     0.152 A 
HETATM    8  N1  UNL     1      30.081   8.771  45.556  1.00  0.00    -0.074 NA
HETATM    9  C13 UNL     1      31.013   9.454  46.270  1.00  0.00     0.721 A 
HETATM   10  N3  UNL     1      31.068   9.172  47.583  1.00  0.00    -0.045 NA
HETATM   11  C14 UNL     1      30.273   8.283  48.175  1.00  0.00     0.153 A 
BRANCH   9  12
HETATM   12  N2  UNL     1      31.865  10.403  45.650  1.00  0.00    -0.231 N 
HETATM   13  H11 UNL     1      32.342  10.151  44.741  1.00  0.00     0.174 HD
HETATM   14  H12 UNL     1      32.110  11.384  45.983  1.00  0.00     0.174 HD
ENDBRANCH   9  12
BRANCH  11  15
HETATM   15  N4  UNL     1      30.442   8.085  49.570  1.00  0.00    -0.383 N 
HETATM   16  H13 UNL     1      31.130   8.798  49.922  1.00  0.00     0.157 HD
HETATM   17  H14 UNL     1      29.969   7.352  50.176  1.00  0.00     0.157 HD
ENDBRANCH  11  15
ENDBRANCH   4   6
BRANCH   5  18
HETATM   18  O2  UNL     1      27.295   7.722  49.796  1.00  0.00    -0.358 OA
HETATM   19  H15 UNL     1      28.001   7.387  50.395  1.00  0.00     0.213 HD
ENDBRANCH   5  18
BRANCH   5  20
HETATM   20  O3  UNL     1      26.308   7.648  47.807  1.00  0.00    -0.352 OA
HETATM   21  C16 UNL     1      26.027   8.931  48.199  1.00  0.00     0.206 C 
ENDBRANCH   5  20
BRANCH   1  22
HETATM   22  C6  UNL     1      25.189   5.732  49.764  1.00  0.00     0.079 C 
BRANCH  22  23
HETATM   23  C5  UNL     1      24.129   5.113  48.946  1.00  0.00    -0.048 A 
HETATM   24  C4  UNL     1      23.524   5.904  47.964  1.00  0.00     0.011 A 
HETATM   25  C3  UNL     1      22.519   5.398  47.149  1.00  0.00     0.037 A 
HETATM   26  C2  UNL     1      22.137   4.070  47.350  1.00  0.00     0.068 A 
HETATM   27  C19 UNL     1      22.718   3.271  48.310  1.00  0.00     0.044 A 
HETATM   28  C17 UNL     1      23.728   3.807  49.116  1.00  0.00    -0.053 A 
HETATM   29  C18 UNL     1      24.365   2.957  50.159  1.00  0.00     0.049 C 
BRANCH  26  30
HETATM   30  O1  UNL     1      21.130   3.666  46.486  1.00  0.00    -0.356 OA
HETATM   31  C1  UNL     1      21.271   3.859  45.071  1.00  0.00     0.210 C 
ENDBRANCH  26  30
ENDBRANCH  22  23
ENDBRANCH   1  22
TORSDOF 8
ENDMDL
