MODEL 1
REMARK VINA RESULT:     -10.5      0.000      0.000
REMARK  2 active torsions:
REMARK  status: ('A' for Active; 'I' for Inactive)
REMARK    1  A    between atoms: C4_4  and  N1_5 
REMARK    2  A    between atoms: N1_5  and  C5_6 
ROOT
HETATM    1  C5  UNL     1      20.412  -1.021  53.836  1.00  0.00     0.728 A 
HETATM    2  N2  UNL     1      21.217  -1.559  54.770  1.00  0.00    -0.074 NA
HETATM    3  C6  UNL     1      22.553  -1.264  54.783  1.00  0.00     0.152 A 
HETATM    4  C7  UNL     1      22.962  -0.416  53.799  1.00  0.00     0.041 A 
HETATM    5  C8  UNL     1      24.291  -0.112  53.742  1.00  0.00    -0.009 A 
HETATM    6  C9  UNL     1      24.814   0.713  52.781  1.00  0.00     0.028 A 
HETATM    7  C10 UNL     1      23.933   1.247  51.842  1.00  0.00     0.271 A 
HETATM    8  O1  UNL     1      24.233   2.024  50.895  1.00  0.00    -0.266 OA
HETATM    9  N3  UNL     1      22.617   0.961  51.874  1.00  0.00    -0.200 N 
HETATM   10 CL1  UNL     1      21.455   1.597  50.725  1.00  0.00     0.023 Cl
HETATM   11  C11 UNL     1      22.173   0.145  52.840  1.00  0.00     0.179 A 
HETATM   12  N4  UNL     1      20.854  -0.171  52.864  1.00  0.00    -0.043 NA
HETATM   13  C12 UNL     1      26.142   1.266  52.360  1.00  0.00     0.096 C 
HETATM   14  C13 UNL     1      27.056   1.252  53.500  1.00  0.00     0.016 C 
HETATM   15 CL2  UNL     1      28.308   2.481  53.241  1.00  0.00    -0.089 Cl
HETATM   16  C14 UNL     1      27.205   0.589  54.635  1.00  0.00     0.020 C 
HETATM   17  C15 UNL     1      26.355  -0.503  55.161  1.00  0.00     0.002 C 
HETATM   18  C16 UNL     1      25.125  -0.752  54.742  1.00  0.00     0.013 C 
ENDROOT
BRANCH   1  19
HETATM   19  N1  UNL     1      19.053  -1.358  53.795  1.00  0.00    -0.188 N 
HETATM   20  H5  UNL     1      18.639  -0.801  54.605  1.00  0.00     0.184 HD
BRANCH  19  21
HETATM   21  C4  UNL     1      17.869  -1.938  53.388  1.00  0.00     0.050 A 
HETATM   22  C3  UNL     1      17.664  -3.249  53.768  1.00  0.00     0.039 A 
HETATM   23  C2  UNL     1      16.494  -3.906  53.399  1.00  0.00    -0.021 A 
HETATM   24  C1  UNL     1      16.267  -5.311  53.802  1.00  0.00     0.051 C 
HETATM   25  C19 UNL     1      15.622  -3.157  52.665  1.00  0.00     0.122 A 
HETATM   26  C18 UNL     1      15.760  -1.850  52.250  1.00  0.00     0.045 A 
HETATM   27  F1  UNL     1      14.464  -3.780  52.285  1.00  0.00    -0.206 F 
HETATM   28  C17 UNL     1      16.945  -1.248  52.646  1.00  0.00     0.033 A 
ENDBRANCH  19  21
ENDBRANCH   1  19
TORSDOF 2
ENDMDL
MODEL 2
REMARK VINA RESULT:     -10.0      6.175     10.663
REMARK  2 active torsions:
REMARK  status: ('A' for Active; 'I' for Inactive)
REMARK    1  A    between atoms: C4_4  and  N1_5 
REMARK    2  A    between atoms: N1_5  and  C5_6 
ROOT
HETATM    1  C5  UNL     1      26.389   3.888  49.844  1.00  0.00     0.728 A 
HETATM    2  N2  UNL     1      25.126   3.867  49.383  1.00  0.00    -0.074 NA
HETATM    3  C6  UNL     1      24.199   3.031  49.944  1.00  0.00     0.152 A 
HETATM    4  C7  UNL     1      24.669   2.259  50.964  1.00  0.00     0.041 A 
HETATM    5  C8  UNL     1      23.797   1.381  51.541  1.00  0.00    -0.009 A 
HETATM    6  C9  UNL     1      24.169   0.541  52.559  1.00  0.00     0.028 A 
HETATM    7  C10 UNL     1      25.489   0.611  53.001  1.00  0.00     0.271 A 
HETATM    8  O1  UNL     1      26.003  -0.078  53.924  1.00  0.00    -0.266 OA
HETATM    9  N3  UNL     1      26.370   1.466  52.447  1.00  0.00    -0.200 N 
HETATM   10 CL1  UNL     1      28.043   1.603  52.953  1.00  0.00     0.023 Cl
HETATM   11  C11 UNL     1      25.941   2.257  51.454  1.00  0.00     0.179 A 
HETATM   12  N4  UNL     1      26.826   3.102  50.871  1.00  0.00    -0.043 NA
HETATM   13  C12 UNL     1      23.574  -0.532  53.418  1.00  0.00     0.096 C 
HETATM   14  C13 UNL     1      22.123  -0.367  53.466  1.00  0.00     0.016 C 
HETATM   15 CL2  UNL     1      21.512  -1.124  54.949  1.00  0.00    -0.089 Cl
HETATM   16  C14 UNL     1      21.168   0.171  52.725  1.00  0.00     0.020 C 
HETATM   17  C15 UNL     1      21.316   0.871  51.429  1.00  0.00     0.002 C 
HETATM   18  C16 UNL     1      22.460   1.363  50.980  1.00  0.00     0.013 C 
ENDROOT
BRANCH   1  19
HETATM   19  N1  UNL     1      27.348   4.711  49.240  1.00  0.00    -0.188 N 
HETATM   20  H5  UNL     1      28.272   4.292  49.570  1.00  0.00     0.184 HD
BRANCH  19  21
HETATM   21  C4  UNL     1      27.901   5.720  48.478  1.00  0.00     0.050 A 
HETATM   22  C3  UNL     1      29.244   5.603  48.184  1.00  0.00     0.039 A 
HETATM   23  C2  UNL     1      29.877   6.578  47.419  1.00  0.00    -0.021 A 
HETATM   24  C1  UNL     1      31.317   6.459  47.100  1.00  0.00     0.051 C 
HETATM   25  C19 UNL     1      29.072   7.600  47.012  1.00  0.00     0.122 A 
HETATM   26  C18 UNL     1      27.730   7.783  47.268  1.00  0.00     0.045 A 
HETATM   27  F1  UNL     1      29.670   8.576  46.261  1.00  0.00    -0.206 F 
HETATM   28  C17 UNL     1      27.155   6.781  48.034  1.00  0.00     0.033 A 
ENDBRANCH  19  21
ENDBRANCH   1  19
TORSDOF 2
ENDMDL
MODEL 3
REMARK VINA RESULT:      -9.9      4.165      8.711
REMARK  2 active torsions:
REMARK  status: ('A' for Active; 'I' for Inactive)
REMARK    1  A    between atoms: C4_4  and  N1_5 
REMARK    2  A    between atoms: N1_5  and  C5_6 
ROOT
HETATM    1  C5  UNL     1      24.145   0.619  52.704  1.00  0.00     0.728 A 
HETATM    2  N2  UNL     1      23.427  -0.035  53.635  1.00  0.00    -0.074 NA
HETATM    3  C6  UNL     1      22.083  -0.225  53.464  1.00  0.00     0.152 A 
HETATM    4  C7  UNL     1      21.574   0.295  52.312  1.00  0.00     0.041 A 
HETATM    5  C8  UNL     1      20.231   0.165  52.102  1.00  0.00    -0.009 A 
HETATM    6  C9  UNL     1      19.611   0.669  50.988  1.00  0.00     0.028 A 
HETATM    7  C10 UNL     1      20.406   1.331  50.054  1.00  0.00     0.271 A 
HETATM    8  O1  UNL     1      20.011   1.851  48.974  1.00  0.00    -0.266 OA
HETATM    9  N3  UNL     1      21.732   1.476  50.237  1.00  0.00    -0.200 N 
HETATM   10 CL1  UNL     1      22.788   2.297  49.104  1.00  0.00     0.023 Cl
HETATM   11  C11 UNL     1      22.274   0.960  51.350  1.00  0.00     0.179 A 
HETATM   12  N4  UNL     1      23.603   1.124  51.558  1.00  0.00    -0.043 NA
HETATM   13  C12 UNL     1      18.236   0.765  50.401  1.00  0.00     0.096 C 
HETATM   14  C13 UNL     1      17.399  -0.300  50.951  1.00  0.00     0.016 C 
HETATM   15 CL2  UNL     1      16.080  -0.632  49.813  1.00  0.00    -0.089 Cl
HETATM   16  C14 UNL     1      17.354  -1.056  52.035  1.00  0.00     0.020 C 
HETATM   17  C15 UNL     1      18.283  -1.040  53.188  1.00  0.00     0.002 C 
HETATM   18  C16 UNL     1      19.494  -0.506  53.155  1.00  0.00     0.013 C 
ENDROOT
BRANCH   1  19
HETATM   19  N1  UNL     1      25.513   0.852  52.901  1.00  0.00    -0.188 N 
HETATM   20  H5  UNL     1      25.593   1.913  52.818  1.00  0.00     0.184 HD
BRANCH  19  21
HETATM   21  C4  UNL     1      26.850   0.615  53.145  1.00  0.00     0.050 A 
HETATM   22  C3  UNL     1      27.269  -0.696  53.051  1.00  0.00     0.039 A 
HETATM   23  C2  UNL     1      28.603  -1.018  53.281  1.00  0.00    -0.021 A 
HETATM   24  C1  UNL     1      29.060  -2.422  53.182  1.00  0.00     0.051 C 
HETATM   25  C19 UNL     1      29.404   0.040  53.589  1.00  0.00     0.122 A 
HETATM   26  C18 UNL     1      29.057   1.369  53.702  1.00  0.00     0.045 A 
HETATM   27  F1  UNL     1      30.721  -0.249  53.824  1.00  0.00    -0.206 F 
HETATM   28  C17 UNL     1      27.716   1.629  53.463  1.00  0.00     0.033 A 
ENDBRANCH  19  21
ENDBRANCH   1  19
TORSDOF 2
ENDMDL
MODEL 4
REMARK VINA RESULT:      -9.8      4.535      8.958
REMARK  2 active torsions:
REMARK  status: ('A' for Active; 'I' for Inactive)
REMARK    1  A    between atoms: C4_4  and  N1_5 
REMARK    2  A    between atoms: N1_5  and  C5_6 
ROOT
HETATM    1  C5  UNL     1      24.541   1.076  52.345  1.00  0.00     0.728 A 
HETATM    2  N2  UNL     1      24.226   1.723  51.208  1.00  0.00    -0.074 NA
HETATM    3  C6  UNL     1      22.939   1.714  50.743  1.00  0.00     0.152 A 
HETATM    4  C7  UNL     1      22.057   1.014  51.511  1.00  0.00     0.041 A 
HETATM    5  C8  UNL     1      20.765   0.943  51.078  1.00  0.00    -0.009 A 
HETATM    6  C9  UNL     1      19.800   0.248  51.761  1.00  0.00     0.028 A 
HETATM    7  C10 UNL     1      20.183  -0.397  52.936  1.00  0.00     0.271 A 
HETATM    8  O1  UNL     1      19.434  -1.075  53.692  1.00  0.00    -0.266 OA
HETATM    9  N3  UNL     1      21.452  -0.345  53.384  1.00  0.00    -0.200 N 
HETATM   10 CL1  UNL     1      22.000  -1.134  54.850  1.00  0.00     0.023 Cl
HETATM   11  C11 UNL     1      22.345   0.350  52.666  1.00  0.00     0.179 A 
HETATM   12  N4  UNL     1      23.631   0.387  53.093  1.00  0.00    -0.043 NA
HETATM   13  C12 UNL     1      18.346  -0.089  51.641  1.00  0.00     0.096 C 
HETATM   14  C13 UNL     1      17.685   0.906  50.800  1.00  0.00     0.016 C 
HETATM   15 CL2  UNL     1      15.959   0.941  51.207  1.00  0.00    -0.089 Cl
HETATM   16  C14 UNL     1      18.011   1.760  49.843  1.00  0.00     0.020 C 
HETATM   17  C15 UNL     1      19.349   1.987  49.252  1.00  0.00     0.002 C 
HETATM   18  C16 UNL     1      20.484   1.617  49.826  1.00  0.00     0.013 C 
ENDROOT
BRANCH   1  19
HETATM   19  N1  UNL     1      25.867   1.047  52.797  1.00  0.00    -0.188 N 
HETATM   20  H5  UNL     1      26.036   2.050  53.120  1.00  0.00     0.184 HD
BRANCH  19  21
HETATM   21  C4  UNL     1      27.122   0.570  53.115  1.00  0.00     0.050 A 
HETATM   22  C3  UNL     1      27.325  -0.784  52.947  1.00  0.00     0.039 A 
HETATM   23  C2  UNL     1      28.563  -1.345  53.244  1.00  0.00    -0.021 A 
HETATM   24  C1  UNL     1      28.789  -2.796  53.068  1.00  0.00     0.051 C 
HETATM   25  C19 UNL     1      29.501  -0.461  53.691  1.00  0.00     0.122 A 
HETATM   26  C18 UNL     1      29.369   0.897  53.884  1.00  0.00     0.045 A 
HETATM   27  F1  UNL     1      30.728  -0.987  53.995  1.00  0.00    -0.206 F 
HETATM   28  C17 UNL     1      28.114   1.398  53.572  1.00  0.00     0.033 A 
ENDBRANCH  19  21
ENDBRANCH   1  19
TORSDOF 2
ENDMDL
MODEL 5
REMARK VINA RESULT:      -9.7      5.903     10.135
REMARK  2 active torsions:
REMARK  status: ('A' for Active; 'I' for Inactive)
REMARK    1  A    between atoms: C4_4  and  N1_5 
REMARK    2  A    between atoms: N1_5  and  C5_6 
ROOT
HETATM    1  C5  UNL     1      26.412   3.462  50.083  1.00  0.00     0.728 A 
HETATM    2  N2  UNL     1      27.074   2.704  50.975  1.00  0.00    -0.074 NA
HETATM    3  C6  UNL     1      26.386   1.916  51.857  1.00  0.00     0.152 A 
HETATM    4  C7  UNL     1      25.030   1.980  51.744  1.00  0.00     0.041 A 
HETATM    5  C8  UNL     1      24.289   1.240  52.620  1.00  0.00    -0.009 A 
HETATM    6  C9  UNL     1      22.918   1.247  52.610  1.00  0.00     0.028 A 
HETATM    7  C10 UNL     1      22.286   2.047  51.659  1.00  0.00     0.271 A 
HETATM    8  O1  UNL     1      21.041   2.173  51.500  1.00  0.00    -0.266 OA
HETATM    9  N3  UNL     1      22.993   2.789  50.785  1.00  0.00    -0.200 N 
HETATM   10 CL1  UNL     1      22.262   3.815  49.567  1.00  0.00     0.023 Cl
HETATM   11  C11 UNL     1      24.330   2.737  50.852  1.00  0.00     0.179 A 
HETATM   12  N4  UNL     1      25.051   3.501  49.994  1.00  0.00    -0.043 NA
HETATM   13  C12 UNL     1      21.776   0.637  53.362  1.00  0.00     0.096 C 
HETATM   14  C13 UNL     1      22.223  -0.593  54.010  1.00  0.00     0.016 C 
HETATM   15 CL2  UNL     1      20.817  -1.639  54.282  1.00  0.00    -0.089 Cl
HETATM   16  C14 UNL     1      23.356  -1.123  54.442  1.00  0.00     0.020 C 
HETATM   17  C15 UNL     1      24.711  -0.528  54.387  1.00  0.00     0.002 C 
HETATM   18  C16 UNL     1      25.046   0.476  53.592  1.00  0.00     0.013 C 
ENDROOT
BRANCH   1  19
HETATM   19  N1  UNL     1      27.116   4.303  49.210  1.00  0.00    -0.188 N 
HETATM   20  H5  UNL     1      27.706   3.622  48.639  1.00  0.00     0.184 HD
BRANCH  19  21
HETATM   21  C4  UNL     1      27.555   5.451  48.582  1.00  0.00     0.050 A 
HETATM   22  C3  UNL     1      28.890   5.492  48.240  1.00  0.00     0.039 A 
HETATM   23  C2  UNL     1      29.411   6.613  47.602  1.00  0.00    -0.021 A 
HETATM   24  C1  UNL     1      30.843   6.666  47.233  1.00  0.00     0.051 C 
HETATM   25  C19 UNL     1      28.510   7.608  47.362  1.00  0.00     0.122 A 
HETATM   26  C18 UNL     1      27.168   7.636  47.675  1.00  0.00     0.045 A 
HETATM   27  F1  UNL     1      28.996   8.725  46.738  1.00  0.00    -0.206 F 
HETATM   28  C17 UNL     1      26.706   6.492  48.310  1.00  0.00     0.033 A 
ENDBRANCH  19  21
ENDBRANCH   1  19
TORSDOF 2
ENDMDL
MODEL 6
REMARK VINA RESULT:      -9.6      4.616      6.674
REMARK  2 active torsions:
REMARK  status: ('A' for Active; 'I' for Inactive)
REMARK    1  A    between atoms: C4_4  and  N1_5 
REMARK    2  A    between atoms: N1_5  and  C5_6 
ROOT
HETATM    1  C5  UNL     1      24.618   2.249  51.714  1.00  0.00     0.728 A 
HETATM    2  N2  UNL     1      25.888   2.059  51.309  1.00  0.00    -0.074 NA
HETATM    3  C6  UNL     1      26.490   2.964  50.478  1.00  0.00     0.152 A 
HETATM    4  C7  UNL     1      25.708   4.020  50.119  1.00  0.00     0.041 A 
HETATM    5  C8  UNL     1      26.245   4.938  49.263  1.00  0.00    -0.009 A 
HETATM    6  C9  UNL     1      25.541   6.027  48.820  1.00  0.00     0.028 A 
HETATM    7  C10 UNL     1      24.232   6.176  49.277  1.00  0.00     0.271 A 
HETATM    8  O1  UNL     1      23.441   7.113  48.980  1.00  0.00    -0.266 OA
HETATM    9  N3  UNL     1      23.677   5.283  50.118  1.00  0.00    -0.200 N 
HETATM   10 CL1  UNL     1      22.039   5.410  50.729  1.00  0.00     0.023 Cl
HETATM   11  C11 UNL     1      24.421   4.241  50.511  1.00  0.00     0.179 A 
HETATM   12  N4  UNL     1      23.863   3.321  51.337  1.00  0.00    -0.043 NA
HETATM   13  C12 UNL     1      25.725   7.205  47.913  1.00  0.00     0.096 C 
HETATM   14  C13 UNL     1      27.151   7.496  47.780  1.00  0.00     0.016 C 
HETATM   15 CL2  UNL     1      27.346   9.201  47.332  1.00  0.00    -0.089 Cl
HETATM   16  C14 UNL     1      28.302   6.853  47.892  1.00  0.00     0.020 C 
HETATM   17  C15 UNL     1      28.511   5.429  48.238  1.00  0.00     0.002 C 
HETATM   18  C16 UNL     1      27.599   4.667  48.820  1.00  0.00     0.013 C 
ENDROOT
BRANCH   1  19
HETATM   19  N1  UNL     1      23.987   1.299  52.528  1.00  0.00    -0.188 N 
HETATM   20  H5  UNL     1      24.731   1.072  53.258  1.00  0.00     0.184 HD
BRANCH  19  21
HETATM   21  C4  UNL     1      23.018   0.453  53.027  1.00  0.00     0.050 A 
HETATM   22  C3  UNL     1      21.748   0.601  52.510  1.00  0.00     0.039 A 
HETATM   23  C2  UNL     1      20.714  -0.216  52.958  1.00  0.00    -0.021 A 
HETATM   24  C1  UNL     1      19.349  -0.063  52.409  1.00  0.00     0.051 C 
HETATM   25  C19 UNL     1      21.073  -1.126  53.908  1.00  0.00     0.122 A 
HETATM   26  C18 UNL     1      22.315  -1.328  54.470  1.00  0.00     0.045 A 
HETATM   27  F1  UNL     1      20.074  -1.940  54.371  1.00  0.00    -0.206 F 
HETATM   28  C17 UNL     1      23.304  -0.486  53.984  1.00  0.00     0.033 A 
ENDBRANCH  19  21
ENDBRANCH   1  19
TORSDOF 2
ENDMDL
MODEL 7
REMARK VINA RESULT:      -9.5      2.349      3.425
REMARK  2 active torsions:
REMARK  status: ('A' for Active; 'I' for Inactive)
REMARK    1  A    between atoms: C4_4  and  N1_5 
REMARK    2  A    between atoms: N1_5  and  C5_6 
ROOT
HETATM    1  C5  UNL     1      20.996   0.536  52.202  1.00  0.00     0.728 A 
HETATM    2  N2  UNL     1      21.716   1.401  51.464  1.00  0.00    -0.074 NA
HETATM    3  C6  UNL     1      23.058   1.548  51.688  1.00  0.00     0.152 A 
HETATM    4  C7  UNL     1      23.560   0.770  52.687  1.00  0.00     0.041 A 
HETATM    5  C8  UNL     1      24.888   0.899  52.977  1.00  0.00    -0.009 A 
HETATM    6  C9  UNL     1      25.493   0.181  53.977  1.00  0.00     0.028 A 
HETATM    7  C10 UNL     1      24.699  -0.704  54.704  1.00  0.00     0.271 A 
HETATM    8  O1  UNL     1      25.083  -1.445  55.650  1.00  0.00    -0.266 OA
HETATM    9  N3  UNL     1      23.386  -0.848  54.440  1.00  0.00    -0.200 N 
HETATM   10 CL1  UNL     1      22.332  -1.941  55.316  1.00  0.00     0.023 Cl
HETATM   11  C11 UNL     1      22.859  -0.114  53.451  1.00  0.00     0.179 A 
HETATM   12  N4  UNL     1      21.532  -0.231  53.194  1.00  0.00    -0.043 NA
HETATM   13  C12 UNL     1      26.842   0.035  54.611  1.00  0.00     0.096 C 
HETATM   14  C13 UNL     1      27.871   0.463  53.666  1.00  0.00     0.016 C 
HETATM   15 CL2  UNL     1      29.401  -0.327  54.093  1.00  0.00    -0.089 Cl
HETATM   16  C14 UNL     1      27.973   1.260  52.614  1.00  0.00     0.020 C 
HETATM   17  C15 UNL     1      26.906   2.077  51.994  1.00  0.00     0.002 C 
HETATM   18  C16 UNL     1      25.612   1.875  52.187  1.00  0.00     0.013 C 
ENDROOT
BRANCH   1  19
HETATM   19  N1  UNL     1      19.614   0.419  52.003  1.00  0.00    -0.188 N 
HETATM   20  H5  UNL     1      19.281   1.433  51.997  1.00  0.00     0.184 HD
BRANCH  19  21
HETATM   21  C4  UNL     1      18.373  -0.150  51.797  1.00  0.00     0.050 A 
HETATM   22  C3  UNL     1      17.790   0.077  50.568  1.00  0.00     0.039 A 
HETATM   23  C2  UNL     1      16.540  -0.464  50.280  1.00  0.00    -0.021 A 
HETATM   24  C1  UNL     1      15.907  -0.224  48.965  1.00  0.00     0.051 C 
HETATM   25  C19 UNL     1      15.989  -1.201  51.285  1.00  0.00     0.122 A 
HETATM   26  C18 UNL     1      16.511  -1.468  52.533  1.00  0.00     0.045 A 
HETATM   27  F1  UNL     1      14.757  -1.742  51.031  1.00  0.00    -0.206 F 
HETATM   28  C17 UNL     1      17.756  -0.903  52.762  1.00  0.00     0.033 A 
ENDBRANCH  19  21
ENDBRANCH   1  19
TORSDOF 2
ENDMDL
MODEL 8
REMARK VINA RESULT:      -9.1      3.414      4.288
REMARK  2 active torsions:
REMARK  status: ('A' for Active; 'I' for Inactive)
REMARK    1  A    between atoms: C4_4  and  N1_5 
REMARK    2  A    between atoms: N1_5  and  C5_6 
ROOT
HETATM    1  C5  UNL     1      21.207   0.761  51.654  1.00  0.00     0.728 A 
HETATM    2  N2  UNL     1      22.020   1.627  51.023  1.00  0.00    -0.074 NA
HETATM    3  C6  UNL     1      23.332   1.737  51.395  1.00  0.00     0.152 A 
HETATM    4  C7  UNL     1      23.707   0.923  52.421  1.00  0.00     0.041 A 
HETATM    5  C8  UNL     1      24.997   1.014  52.857  1.00  0.00    -0.009 A 
HETATM    6  C9  UNL     1      25.475   0.257  53.896  1.00  0.00     0.028 A 
HETATM    7  C10 UNL     1      24.588  -0.627  54.508  1.00  0.00     0.271 A 
HETATM    8  O1  UNL     1      24.852  -1.401  55.469  1.00  0.00    -0.266 OA
HETATM    9  N3  UNL     1      23.309  -0.734  54.099  1.00  0.00    -0.200 N 
HETATM   10 CL1  UNL     1      22.144  -1.824  54.825  1.00  0.00     0.023 Cl
HETATM   11  C11 UNL     1      22.908   0.036  53.079  1.00  0.00     0.179 A 
HETATM   12  N4  UNL     1      21.616  -0.044  52.677  1.00  0.00    -0.043 NA
HETATM   13  C12 UNL     1      26.743   0.064  54.669  1.00  0.00     0.096 C 
HETATM   14  C13 UNL     1      27.878   0.492  53.854  1.00  0.00     0.016 C 
HETATM   15 CL2  UNL     1      29.336  -0.344  54.422  1.00  0.00    -0.089 Cl
HETATM   16  C14 UNL     1      28.110   1.312  52.842  1.00  0.00     0.020 C 
HETATM   17  C15 UNL     1      27.134   2.170  52.132  1.00  0.00     0.002 C 
HETATM   18  C16 UNL     1      25.823   1.993  52.178  1.00  0.00     0.013 C 
ENDROOT
BRANCH   1  19
HETATM   19  N1  UNL     1      19.852   0.680  51.303  1.00  0.00    -0.188 N 
HETATM   20  H5  UNL     1      19.676  -0.371  51.252  1.00  0.00     0.184 HD
BRANCH  19  21
HETATM   21  C4  UNL     1      18.567   1.067  50.982  1.00  0.00     0.050 A 
HETATM   22  C3  UNL     1      18.124   2.249  51.539  1.00  0.00     0.039 A 
HETATM   23  C2  UNL     1      16.841   2.710  51.264  1.00  0.00    -0.021 A 
HETATM   24  C1  UNL     1      16.358   3.976  51.858  1.00  0.00     0.051 C 
HETATM   25  C19 UNL     1      16.112   1.915  50.430  1.00  0.00     0.122 A 
HETATM   26  C18 UNL     1      16.487   0.727  49.840  1.00  0.00     0.045 A 
HETATM   27  F1  UNL     1      14.843   2.344  50.145  1.00  0.00    -0.206 F 
HETATM   28  C17 UNL     1      17.775   0.318  50.151  1.00  0.00     0.033 A 
ENDBRANCH  19  21
ENDBRANCH   1  19
TORSDOF 2
ENDMDL
MODEL 9
REMARK VINA RESULT:      -8.6      7.067      9.545
REMARK  2 active torsions:
REMARK  status: ('A' for Active; 'I' for Inactive)
REMARK    1  A    between atoms: C4_4  and  N1_5 
REMARK    2  A    between atoms: N1_5  and  C5_6 
ROOT
HETATM    1  C5  UNL     1      25.081   3.331  51.332  1.00  0.00     0.728 A 
HETATM    2  N2  UNL     1      23.890   3.692  51.843  1.00  0.00    -0.074 NA
HETATM    3  C6  UNL     1      23.288   4.851  51.436  1.00  0.00     0.152 A 
HETATM    4  C7  UNL     1      23.986   5.566  50.511  1.00  0.00     0.041 A 
HETATM    5  C8  UNL     1      23.450   6.749  50.092  1.00  0.00    -0.009 A 
HETATM    6  C9  UNL     1      24.078   7.557  49.180  1.00  0.00     0.028 A 
HETATM    7  C10 UNL     1      25.306   7.129  48.680  1.00  0.00     0.271 A 
HETATM    8  O1  UNL     1      26.020   7.737  47.836  1.00  0.00    -0.266 OA
HETATM    9  N3  UNL     1      25.860   5.968  49.078  1.00  0.00    -0.200 N 
HETATM   10 CL1  UNL     1      27.400   5.372  48.491  1.00  0.00     0.023 Cl
HETATM   11  C11 UNL     1      25.193   5.227  49.974  1.00  0.00     0.179 A 
HETATM   12  N4  UNL     1      25.753   4.069  50.402  1.00  0.00    -0.043 NA
HETATM   13  C12 UNL     1      23.868   8.874  48.497  1.00  0.00     0.096 C 
HETATM   14  C13 UNL     1      22.442   9.192  48.487  1.00  0.00     0.016 C 
HETATM   15 CL2  UNL     1      22.116  10.305  47.144  1.00  0.00    -0.089 Cl
HETATM   16  C14 UNL     1      21.360   8.892  49.187  1.00  0.00     0.020 C 
HETATM   17  C15 UNL     1      21.268   8.009  50.372  1.00  0.00     0.002 C 
HETATM   18  C16 UNL     1      22.188   7.118  50.704  1.00  0.00     0.013 C 
ENDROOT
BRANCH   1  19
HETATM   19  N1  UNL     1      25.719   2.167  51.782  1.00  0.00    -0.188 N 
HETATM   20  H5  UNL     1      25.028   1.395  51.524  1.00  0.00     0.184 HD
BRANCH  19  21
HETATM   21  C4  UNL     1      26.671   1.340  52.341  1.00  0.00     0.050 A 
HETATM   22  C3  UNL     1      26.469  -0.017  52.193  1.00  0.00     0.039 A 
HETATM   23  C2  UNL     1      27.385  -0.919  52.727  1.00  0.00    -0.021 A 
HETATM   24  C1  UNL     1      27.176  -2.375  52.573  1.00  0.00     0.051 C 
HETATM   25  C19 UNL     1      28.443  -0.349  53.371  1.00  0.00     0.122 A 
HETATM   26  C18 UNL     1      28.707   0.991  53.558  1.00  0.00     0.045 A 
HETATM   27  F1  UNL     1      29.357  -1.214  53.910  1.00  0.00    -0.206 F 
HETATM   28  C17 UNL     1      27.760   1.840  53.006  1.00  0.00     0.033 A 
ENDBRANCH  19  21
ENDBRANCH   1  19
TORSDOF 2
ENDMDL
