MODEL 1
REMARK VINA RESULT:      -8.1      0.000      0.000
REMARK  3 active torsions:
REMARK  status: ('A' for Active; 'I' for Inactive)
REMARK    1  A    between atoms: C4_6  and  C5_7 
REMARK    2  A    between atoms: C14_19  and  C15_20 
REMARK    3  A    between atoms: C15_20  and  N3_21 
ROOT
HETATM    1  C1  UNL     1      25.645   1.028  53.851  1.00  0.00     0.066 C 
HETATM    2  C2  UNL     1      24.916   1.844  52.841  1.00  0.00     0.018 C 
HETATM    3  N1  UNL     1      25.321   2.412  51.769  1.00  0.00    -0.251 NA
HETATM    4  C3  UNL     1      26.579   2.447  51.204  1.00  0.00     0.227 C 
HETATM    5  N2  UNL     1      26.893   2.943  50.105  1.00  0.00    -0.269 NA
HETATM    6  C4  UNL     1      26.177   3.608  49.082  1.00  0.00     0.167 C 
HETATM    7  C11 UNL     1      24.734   3.477  49.055  1.00  0.00     0.029 C 
HETATM    8  C12 UNL     1      23.579   3.063  49.543  1.00  0.00     0.133 C 
HETATM    9  O1  UNL     1      23.230   2.337  50.671  1.00  0.00    -0.362 OA
HETATM   10  C13 UNL     1      22.914   2.961  51.909  1.00  0.00     0.186 C 
HETATM   11  C14 UNL     1      23.431   2.062  53.057  1.00  0.00     0.085 C 
ENDROOT
BRANCH   6  12
HETATM   12  C5  UNL     1      26.589   5.048  49.039  1.00  0.00    -0.028 A 
HETATM   13  C6  UNL     1      27.767   5.478  48.458  1.00  0.00     0.013 A 
HETATM   14  C7  UNL     1      28.071   6.825  48.468  1.00  0.00     0.044 A 
HETATM   15  C8  UNL     1      27.177   7.719  49.066  1.00  0.00     0.138 A 
HETATM   16  F1  UNL     1      27.460   9.042  49.085  1.00  0.00    -0.204 F 
HETATM   17  C9  UNL     1      26.001   7.280  49.645  1.00  0.00     0.073 A 
HETATM   18 CL1  UNL     1      24.893   8.419  50.392  1.00  0.00    -0.081 Cl
HETATM   19  C10 UNL     1      25.709   5.929  49.629  1.00  0.00     0.036 A 
ENDBRANCH   6  12
BRANCH  11  20
HETATM   20  C15 UNL     1      22.769   0.729  53.038  1.00  0.00     0.285 C 
BRANCH  20  21
HETATM   21  N3  UNL     1      21.494   0.711  53.729  1.00  0.00     0.093 N 
HETATM   22  C16 UNL     1      21.478  -0.198  54.846  1.00  0.00     0.298 C 
HETATM   23  C17 UNL     1      21.249  -1.622  54.426  1.00  0.00     0.198 C 
HETATM   24  O2  UNL     1      20.007  -1.795  53.844  1.00  0.00    -0.388 OA
HETATM   25  C18 UNL     1      19.454  -0.614  53.366  1.00  0.00     0.198 C 
HETATM   26  C19 UNL     1      20.481   0.334  52.786  1.00  0.00     0.298 C 
ENDBRANCH  20  21
ENDBRANCH  11  20
TORSDOF 3
ENDMDL
MODEL 2
REMARK VINA RESULT:      -8.1      4.540      6.242
REMARK  3 active torsions:
REMARK  status: ('A' for Active; 'I' for Inactive)
REMARK    1  A    between atoms: C4_6  and  C5_7 
REMARK    2  A    between atoms: C14_19  and  C15_20 
REMARK    3  A    between atoms: C15_20  and  N3_21 
ROOT
HETATM    1  C1  UNL     1      24.108   3.387  48.768  1.00  0.00     0.066 C 
HETATM    2  C2  UNL     1      24.133   2.872  50.165  1.00  0.00     0.018 C 
HETATM    3  N1  UNL     1      25.109   2.653  50.962  1.00  0.00    -0.251 NA
HETATM    4  C3  UNL     1      26.465   2.829  50.775  1.00  0.00     0.227 C 
HETATM    5  N2  UNL     1      27.363   2.683  51.626  1.00  0.00    -0.269 NA
HETATM    6  C4  UNL     1      27.378   2.317  52.992  1.00  0.00     0.167 C 
HETATM    7  C11 UNL     1      26.140   2.397  53.740  1.00  0.00     0.029 C 
HETATM    8  C12 UNL     1      24.841   2.611  53.850  1.00  0.00     0.133 C 
HETATM    9  O1  UNL     1      23.857   2.967  52.941  1.00  0.00    -0.362 OA
HETATM   10  C13 UNL     1      23.091   2.000  52.233  1.00  0.00     0.186 C 
HETATM   11  C14 UNL     1      22.802   2.547  50.816  1.00  0.00     0.085 C 
ENDROOT
BRANCH   6  12
HETATM   12  C5  UNL     1      28.011   0.967  53.140  1.00  0.00    -0.028 A 
HETATM   13  C6  UNL     1      29.273   0.780  53.671  1.00  0.00     0.013 A 
HETATM   14  C7  UNL     1      29.782  -0.500  53.767  1.00  0.00     0.044 A 
HETATM   15  C8  UNL     1      29.006  -1.574  53.321  1.00  0.00     0.138 A 
HETATM   16  F1  UNL     1      29.490  -2.835  53.406  1.00  0.00    -0.204 F 
HETATM   17  C9  UNL     1      27.744  -1.378  52.790  1.00  0.00     0.073 A 
HETATM   18 CL1  UNL     1      26.787  -2.742  52.236  1.00  0.00    -0.081 Cl
HETATM   19  C10 UNL     1      27.247  -0.092  52.701  1.00  0.00     0.036 A 
ENDBRANCH   6  12
BRANCH  11  20
HETATM   20  C15 UNL     1      22.007   3.804  50.873  1.00  0.00     0.285 C 
BRANCH  20  21
HETATM   21  N3  UNL     1      20.823   3.773  50.036  1.00  0.00     0.093 N 
HETATM   22  C16 UNL     1      19.671   4.353  50.677  1.00  0.00     0.298 C 
HETATM   23  C17 UNL     1      19.001   3.402  51.627  1.00  0.00     0.198 C 
HETATM   24  O2  UNL     1      18.490   2.295  50.974  1.00  0.00    -0.388 OA
HETATM   25  C18 UNL     1      19.074   2.070  49.735  1.00  0.00     0.198 C 
HETATM   26  C19 UNL     1      20.549   2.406  49.700  1.00  0.00     0.298 C 
ENDBRANCH  20  21
ENDBRANCH  11  20
TORSDOF 3
ENDMDL
MODEL 3
REMARK VINA RESULT:      -8.1      2.065      2.901
REMARK  3 active torsions:
REMARK  status: ('A' for Active; 'I' for Inactive)
REMARK    1  A    between atoms: C4_6  and  C5_7 
REMARK    2  A    between atoms: C14_19  and  C15_20 
REMARK    3  A    between atoms: C15_20  and  N3_21 
ROOT
HETATM    1  C1  UNL     1      21.545   1.013  49.039  1.00  0.00     0.066 C 
HETATM    2  C2  UNL     1      22.395   1.858  49.922  1.00  0.00     0.018 C 
HETATM    3  N1  UNL     1      22.992   2.968  49.702  1.00  0.00    -0.251 NA
HETATM    4  C3  UNL     1      23.034   3.742  48.561  1.00  0.00     0.227 C 
HETATM    5  N2  UNL     1      23.560   4.864  48.436  1.00  0.00    -0.269 NA
HETATM    6  C4  UNL     1      24.259   5.728  49.310  1.00  0.00     0.167 C 
HETATM    7  C11 UNL     1      24.140   5.509  50.737  1.00  0.00     0.029 C 
HETATM    8  C12 UNL     1      23.720   4.839  51.796  1.00  0.00     0.133 C 
HETATM    9  O1  UNL     1      22.964   3.688  51.952  1.00  0.00    -0.362 OA
HETATM   10  C13 UNL     1      23.554   2.397  52.041  1.00  0.00     0.186 C 
HETATM   11  C14 UNL     1      22.618   1.382  51.345  1.00  0.00     0.085 C 
ENDROOT
BRANCH   6  12
HETATM   12  C5  UNL     1      25.697   5.802  48.894  1.00  0.00    -0.028 A 
HETATM   13  C6  UNL     1      26.580   4.749  49.038  1.00  0.00     0.013 A 
HETATM   14  C7  UNL     1      27.890   4.905  48.633  1.00  0.00     0.044 A 
HETATM   15  C8  UNL     1      28.290   6.129  48.086  1.00  0.00     0.138 A 
HETATM   16  F1  UNL     1      29.570   6.300  47.684  1.00  0.00    -0.204 F 
HETATM   17  C9  UNL     1      27.400   7.178  47.945  1.00  0.00     0.073 A 
HETATM   18 CL1  UNL     1      27.924   8.706  47.256  1.00  0.00    -0.081 Cl
HETATM   19  C10 UNL     1      26.091   7.007  48.355  1.00  0.00     0.036 A 
ENDBRANCH   6  12
BRANCH  11  20
HETATM   20  C15 UNL     1      21.290   1.322  52.016  1.00  0.00     0.285 C 
BRANCH  20  21
HETATM   21  N3  UNL     1      20.918  -0.016  52.433  1.00  0.00     0.093 N 
HETATM   22  C16 UNL     1      20.041  -0.020  53.576  1.00  0.00     0.298 C 
HETATM   23  C17 UNL     1      20.782   0.157  54.870  1.00  0.00     0.198 C 
HETATM   24  O2  UNL     1      21.648  -0.893  55.117  1.00  0.00    -0.388 OA
HETATM   25  C18 UNL     1      21.985  -1.608  53.975  1.00  0.00     0.198 C 
HETATM   26  C19 UNL     1      22.117  -0.738  52.744  1.00  0.00     0.298 C 
ENDBRANCH  20  21
ENDBRANCH  11  20
TORSDOF 3
ENDMDL
MODEL 4
REMARK VINA RESULT:      -7.9      3.665      5.677
REMARK  3 active torsions:
REMARK  status: ('A' for Active; 'I' for Inactive)
REMARK    1  A    between atoms: C4_6  and  C5_7 
REMARK    2  A    between atoms: C14_19  and  C15_20 
REMARK    3  A    between atoms: C15_20  and  N3_21 
ROOT
HETATM    1  C1  UNL     1      23.789   0.072  53.503  1.00  0.00     0.066 C 
HETATM    2  C2  UNL     1      24.497   0.901  52.490  1.00  0.00     0.018 C 
HETATM    3  N1  UNL     1      24.076   1.839  51.728  1.00  0.00    -0.251 NA
HETATM    4  C3  UNL     1      22.815   2.385  51.607  1.00  0.00     0.227 C 
HETATM    5  N2  UNL     1      22.486   3.363  50.910  1.00  0.00    -0.269 NA
HETATM    6  C4  UNL     1      23.184   4.235  50.042  1.00  0.00     0.167 C 
HETATM    7  C11 UNL     1      24.629   4.290  50.136  1.00  0.00     0.029 C 
HETATM    8  C12 UNL     1      25.795   3.894  50.616  1.00  0.00     0.133 C 
HETATM    9  O1  UNL     1      26.162   2.932  51.544  1.00  0.00    -0.362 OA
HETATM   10  C13 UNL     1      26.473   1.595  51.171  1.00  0.00     0.186 C 
HETATM   11  C14 UNL     1      25.979   0.648  52.289  1.00  0.00     0.085 C 
ENDROOT
BRANCH   6  12
HETATM   12  C5  UNL     1      22.744   3.992  48.631  1.00  0.00    -0.028 A 
HETATM   13  C6  UNL     1      22.500   2.730  48.123  1.00  0.00     0.013 A 
HETATM   14  C7  UNL     1      22.102   2.597  46.808  1.00  0.00     0.044 A 
HETATM   15  C8  UNL     1      21.958   3.745  46.023  1.00  0.00     0.138 A 
HETATM   16  F1  UNL     1      21.570   3.633  44.731  1.00  0.00    -0.204 F 
HETATM   17  C9  UNL     1      22.205   5.004  46.538  1.00  0.00     0.073 A 
HETATM   18 CL1  UNL     1      22.017   6.433  45.534  1.00  0.00    -0.081 Cl
HETATM   19  C10 UNL     1      22.602   5.123  47.857  1.00  0.00     0.036 A 
ENDBRANCH   6  12
BRANCH  11  20
HETATM   20  C15 UNL     1      26.666   0.931  53.578  1.00  0.00     0.285 C 
BRANCH  20  21
HETATM   21  N3  UNL     1      27.332  -0.229  54.141  1.00  0.00     0.093 N 
HETATM   22  C16 UNL     1      28.572   0.102  54.793  1.00  0.00     0.298 C 
HETATM   23  C17 UNL     1      29.708   0.260  53.822  1.00  0.00     0.198 C 
HETATM   24  O2  UNL     1      29.989  -0.922  53.161  1.00  0.00    -0.388 OA
HETATM   25  C18 UNL     1      28.935  -1.825  53.176  1.00  0.00     0.198 C 
HETATM   26  C19 UNL     1      27.578  -1.161  53.079  1.00  0.00     0.298 C 
ENDBRANCH  20  21
ENDBRANCH  11  20
TORSDOF 3
ENDMDL
MODEL 5
REMARK VINA RESULT:      -7.7      4.432      6.435
REMARK  3 active torsions:
REMARK  status: ('A' for Active; 'I' for Inactive)
REMARK    1  A    between atoms: C4_6  and  C5_7 
REMARK    2  A    between atoms: C14_19  and  C15_20 
REMARK    3  A    between atoms: C15_20  and  N3_21 
ROOT
HETATM    1  C1  UNL     1      22.922   3.270  48.563  1.00  0.00     0.066 C 
HETATM    2  C2  UNL     1      22.793   2.322  49.704  1.00  0.00     0.018 C 
HETATM    3  N1  UNL     1      23.603   2.035  50.652  1.00  0.00    -0.251 NA
HETATM    4  C3  UNL     1      24.866   2.521  50.920  1.00  0.00     0.227 C 
HETATM    5  N2  UNL     1      25.570   2.269  51.915  1.00  0.00    -0.269 NA
HETATM    6  C4  UNL     1      25.399   1.467  53.067  1.00  0.00     0.167 C 
HETATM    7  C11 UNL     1      24.058   1.045  53.420  1.00  0.00     0.029 C 
HETATM    8  C12 UNL     1      22.757   0.953  53.208  1.00  0.00     0.133 C 
HETATM    9  O1  UNL     1      21.927   1.403  52.194  1.00  0.00    -0.362 OA
HETATM   10  C13 UNL     1      21.622   0.609  51.053  1.00  0.00     0.186 C 
HETATM   11  C14 UNL     1      21.498   1.543  49.826  1.00  0.00     0.085 C 
ENDROOT
BRANCH   6  12
HETATM   12  C5  UNL     1      26.333   0.297  53.004  1.00  0.00    -0.028 A 
HETATM   13  C6  UNL     1      25.921  -0.981  52.676  1.00  0.00     0.013 A 
HETATM   14  C7  UNL     1      26.848  -2.003  52.647  1.00  0.00     0.044 A 
HETATM   15  C8  UNL     1      28.183  -1.717  52.951  1.00  0.00     0.138 A 
HETATM   16  F1  UNL     1      29.105  -2.707  52.929  1.00  0.00    -0.204 F 
HETATM   17  C9  UNL     1      28.587  -0.436  53.279  1.00  0.00     0.073 A 
HETATM   18 CL1  UNL     1      30.268  -0.100  53.658  1.00  0.00    -0.081 Cl
HETATM   19  C10 UNL     1      27.648   0.578  53.304  1.00  0.00     0.036 A 
ENDBRANCH   6  12
BRANCH  11  20
HETATM   20  C15 UNL     1      20.394   2.525  50.005  1.00  0.00     0.285 C 
BRANCH  20  21
HETATM   21  N3  UNL     1      19.211   1.955  50.620  1.00  0.00     0.093 N 
HETATM   22  C16 UNL     1      18.200   1.597  49.659  1.00  0.00     0.298 C 
HETATM   23  C17 UNL     1      17.380   2.776  49.221  1.00  0.00     0.198 C 
HETATM   24  O2  UNL     1      16.659   3.321  50.268  1.00  0.00    -0.388 OA
HETATM   25  C18 UNL     1      17.169   2.992  51.517  1.00  0.00     0.198 C 
HETATM   26  C19 UNL     1      18.680   2.915  51.543  1.00  0.00     0.298 C 
ENDBRANCH  20  21
ENDBRANCH  11  20
TORSDOF 3
ENDMDL
MODEL 6
REMARK VINA RESULT:      -7.6      4.398      7.079
REMARK  3 active torsions:
REMARK  status: ('A' for Active; 'I' for Inactive)
REMARK    1  A    between atoms: C4_6  and  C5_7 
REMARK    2  A    between atoms: C14_19  and  C15_20 
REMARK    3  A    between atoms: C15_20  and  N3_21 
ROOT
HETATM    1  C1  UNL     1      24.177   4.357  48.949  1.00  0.00     0.066 C 
HETATM    2  C2  UNL     1      23.767   3.191  49.780  1.00  0.00     0.018 C 
HETATM    3  N1  UNL     1      24.341   2.623  50.772  1.00  0.00    -0.251 NA
HETATM    4  C3  UNL     1      25.537   2.917  51.393  1.00  0.00     0.227 C 
HETATM    5  N2  UNL     1      26.000   2.382  52.418  1.00  0.00    -0.269 NA
HETATM    6  C4  UNL     1      25.551   1.359  53.285  1.00  0.00     0.167 C 
HETATM    7  C11 UNL     1      24.149   0.995  53.254  1.00  0.00     0.029 C 
HETATM    8  C12 UNL     1      22.921   1.075  52.773  1.00  0.00     0.133 C 
HETATM    9  O1  UNL     1      22.347   1.818  51.753  1.00  0.00    -0.362 OA
HETATM   10  C13 UNL     1      22.260   1.335  50.417  1.00  0.00     0.186 C 
HETATM   11  C14 UNL     1      22.442   2.529  49.452  1.00  0.00     0.085 C 
ENDROOT
BRANCH   6  12
HETATM   12  C5  UNL     1      26.425   0.152  53.129  1.00  0.00    -0.028 A 
HETATM   13  C6  UNL     1      25.952  -1.070  52.689  1.00  0.00     0.013 A 
HETATM   14  C7  UNL     1      26.827  -2.133  52.579  1.00  0.00     0.044 A 
HETATM   15  C8  UNL     1      28.171  -1.943  52.916  1.00  0.00     0.138 A 
HETATM   16  F1  UNL     1      29.041  -2.974  52.815  1.00  0.00    -0.204 F 
HETATM   17  C9  UNL     1      28.635  -0.718  53.355  1.00  0.00     0.073 A 
HETATM   18 CL1  UNL     1      30.327  -0.502  53.774  1.00  0.00    -0.081 Cl
HETATM   19  C10 UNL     1      27.749   0.338  53.461  1.00  0.00     0.036 A 
ENDBRANCH   6  12
BRANCH  11  20
HETATM   20  C15 UNL     1      21.370   3.544  49.640  1.00  0.00     0.285 C 
BRANCH  20  21
HETATM   21  N3  UNL     1      20.290   3.422  48.680  1.00  0.00     0.093 N 
HETATM   22  C16 UNL     1      20.751   3.064  47.363  1.00  0.00     0.298 C 
HETATM   23  C17 UNL     1      21.274   4.245  46.596  1.00  0.00     0.198 C 
HETATM   24  O2  UNL     1      20.285   5.181  46.354  1.00  0.00    -0.388 OA
HETATM   25  C18 UNL     1      19.203   5.075  47.218  1.00  0.00     0.198 C 
HETATM   26  C19 UNL     1      19.598   4.677  48.623  1.00  0.00     0.298 C 
ENDBRANCH  20  21
ENDBRANCH  11  20
TORSDOF 3
ENDMDL
MODEL 7
REMARK VINA RESULT:      -7.6      4.061      7.005
REMARK  3 active torsions:
REMARK  status: ('A' for Active; 'I' for Inactive)
REMARK    1  A    between atoms: C4_6  and  C5_7 
REMARK    2  A    between atoms: C14_19  and  C15_20 
REMARK    3  A    between atoms: C15_20  and  N3_21 
ROOT
HETATM    1  C1  UNL     1      23.161   6.379  50.301  1.00  0.00     0.066 C 
HETATM    2  C2  UNL     1      23.143   4.897  50.159  1.00  0.00     0.018 C 
HETATM    3  N1  UNL     1      23.451   3.971  50.986  1.00  0.00    -0.251 NA
HETATM    4  C3  UNL     1      23.901   4.056  52.287  1.00  0.00     0.227 C 
HETATM    5  N2  UNL     1      24.097   3.111  53.075  1.00  0.00    -0.269 NA
HETATM    6  C4  UNL     1      23.959   1.707  52.985  1.00  0.00     0.167 C 
HETATM    7  C11 UNL     1      23.148   1.161  51.915  1.00  0.00     0.029 C 
HETATM    8  C12 UNL     1      22.414   1.267  50.822  1.00  0.00     0.133 C 
HETATM    9  O1  UNL     1      22.023   2.342  50.040  1.00  0.00    -0.362 OA
HETATM   10  C13 UNL     1      22.783   2.784  48.922  1.00  0.00     0.186 C 
HETATM   11  C14 UNL     1      22.675   4.325  48.835  1.00  0.00     0.085 C 
ENDROOT
BRANCH   6  12
HETATM   12  C5  UNL     1      25.314   1.069  53.014  1.00  0.00    -0.028 A 
HETATM   13  C6  UNL     1      25.527  -0.264  52.716  1.00  0.00     0.013 A 
HETATM   14  C7  UNL     1      26.810  -0.772  52.772  1.00  0.00     0.044 A 
HETATM   15  C8  UNL     1      27.861   0.078  53.130  1.00  0.00     0.138 A 
HETATM   16  F1  UNL     1      29.124  -0.403  53.191  1.00  0.00    -0.204 F 
HETATM   17  C9  UNL     1      27.640   1.410  53.427  1.00  0.00     0.073 A 
HETATM   18 CL1  UNL     1      28.975   2.459  53.875  1.00  0.00    -0.081 Cl
HETATM   19  C10 UNL     1      26.350   1.905  53.367  1.00  0.00     0.036 A 
ENDBRANCH   6  12
BRANCH  11  20
HETATM   20  C15 UNL     1      21.266   4.757  48.627  1.00  0.00     0.285 C 
BRANCH  20  21
HETATM   21  N3  UNL     1      21.060   5.459  47.375  1.00  0.00     0.093 N 
HETATM   22  C16 UNL     1      20.136   4.783  46.502  1.00  0.00     0.298 C 
HETATM   23  C17 UNL     1      20.780   3.658  45.743  1.00  0.00     0.198 C 
HETATM   24  O2  UNL     1      21.767   4.112  44.887  1.00  0.00    -0.388 OA
HETATM   25  C18 UNL     1      22.257   5.366  45.228  1.00  0.00     0.198 C 
HETATM   26  C19 UNL     1      22.330   5.592  46.723  1.00  0.00     0.298 C 
ENDBRANCH  20  21
ENDBRANCH  11  20
TORSDOF 3
ENDMDL
MODEL 8
REMARK VINA RESULT:      -7.5      4.769      7.237
REMARK  3 active torsions:
REMARK  status: ('A' for Active; 'I' for Inactive)
REMARK    1  A    between atoms: C4_6  and  C5_7 
REMARK    2  A    between atoms: C14_19  and  C15_20 
REMARK    3  A    between atoms: C15_20  and  N3_21 
ROOT
HETATM    1  C1  UNL     1      23.052  -0.888  54.374  1.00  0.00     0.066 C 
HETATM    2  C2  UNL     1      23.124   0.199  53.360  1.00  0.00     0.018 C 
HETATM    3  N1  UNL     1      22.250   1.053  52.980  1.00  0.00    -0.251 NA
HETATM    4  C3  UNL     1      20.948   1.237  53.397  1.00  0.00     0.227 C 
HETATM    5  N2  UNL     1      20.173   2.149  53.053  1.00  0.00    -0.269 NA
HETATM    6  C4  UNL     1      20.281   3.260  52.185  1.00  0.00     0.167 C 
HETATM    7  C11 UNL     1      21.604   3.704  51.795  1.00  0.00     0.029 C 
HETATM    8  C12 UNL     1      22.921   3.603  51.769  1.00  0.00     0.133 C 
HETATM    9  O1  UNL     1      23.814   2.695  52.316  1.00  0.00    -0.362 OA
HETATM   10  C13 UNL     1      24.252   1.540  51.611  1.00  0.00     0.186 C 
HETATM   11  C14 UNL     1      24.439   0.388  52.627  1.00  0.00     0.085 C 
ENDROOT
BRANCH   6  12
HETATM   12  C5  UNL     1      19.410   3.043  50.986  1.00  0.00    -0.028 A 
HETATM   13  C6  UNL     1      19.908   2.935  49.701  1.00  0.00     0.013 A 
HETATM   14  C7  UNL     1      19.032   2.741  48.652  1.00  0.00     0.044 A 
HETATM   15  C8  UNL     1      17.661   2.659  48.917  1.00  0.00     0.138 A 
HETATM   16  F1  UNL     1      16.789   2.470  47.900  1.00  0.00    -0.204 F 
HETATM   17  C9  UNL     1      17.171   2.769  50.205  1.00  0.00     0.073 A 
HETATM   18 CL1  UNL     1      15.446   2.664  50.516  1.00  0.00    -0.081 Cl
HETATM   19  C10 UNL     1      18.059   2.963  51.247  1.00  0.00     0.036 A 
ENDBRANCH   6  12
BRANCH  11  20
HETATM   20  C15 UNL     1      25.477   0.723  53.639  1.00  0.00     0.285 C 
BRANCH  20  21
HETATM   21  N3  UNL     1      26.794   0.924  53.065  1.00  0.00     0.093 N 
HETATM   22  C16 UNL     1      27.737  -0.089  53.464  1.00  0.00     0.298 C 
HETATM   23  C17 UNL     1      28.312   0.166  54.828  1.00  0.00     0.198 C 
HETATM   24  O2  UNL     1      29.052   1.335  54.865  1.00  0.00    -0.388 OA
HETATM   25  C18 UNL     1      28.738   2.217  53.839  1.00  0.00     0.198 C 
HETATM   26  C19 UNL     1      27.269   2.213  53.476  1.00  0.00     0.298 C 
ENDBRANCH  20  21
ENDBRANCH  11  20
TORSDOF 3
ENDMDL
MODEL 9
REMARK VINA RESULT:      -7.5      4.281      8.747
REMARK  3 active torsions:
REMARK  status: ('A' for Active; 'I' for Inactive)
REMARK    1  A    between atoms: C4_6  and  C5_7 
REMARK    2  A    between atoms: C14_19  and  C15_20 
REMARK    3  A    between atoms: C15_20  and  N3_21 
ROOT
HETATM    1  C1  UNL     1      27.201   4.362  48.952  1.00  0.00     0.066 C 
HETATM    2  C2  UNL     1      25.923   4.736  49.617  1.00  0.00     0.018 C 
HETATM    3  N1  UNL     1      25.210   4.113  50.477  1.00  0.00    -0.251 NA
HETATM    4  C3  UNL     1      25.406   2.881  51.068  1.00  0.00     0.227 C 
HETATM    5  N2  UNL     1      24.721   2.366  51.971  1.00  0.00    -0.269 NA
HETATM    6  C4  UNL     1      23.578   2.775  52.697  1.00  0.00     0.167 C 
HETATM    7  C11 UNL     1      23.223   4.180  52.690  1.00  0.00     0.029 C 
HETATM    8  C12 UNL     1      23.375   5.432  52.296  1.00  0.00     0.133 C 
HETATM    9  O1  UNL     1      24.264   6.055  51.435  1.00  0.00    -0.362 OA
HETATM   10  C13 UNL     1      23.990   6.221  50.049  1.00  0.00     0.186 C 
HETATM   11  C14 UNL     1      25.318   6.082  49.268  1.00  0.00     0.085 C 
ENDROOT
BRANCH   6  12
HETATM   12  C5  UNL     1      22.409   1.922  52.310  1.00  0.00    -0.028 A 
HETATM   13  C6  UNL     1      21.656   2.144  51.172  1.00  0.00     0.013 A 
HETATM   14  C7  UNL     1      20.591   1.311  50.894  1.00  0.00     0.044 A 
HETATM   15  C8  UNL     1      20.301   0.262  51.773  1.00  0.00     0.138 A 
HETATM   16  F1  UNL     1      19.261  -0.563  51.516  1.00  0.00    -0.204 F 
HETATM   17  C9  UNL     1      21.059   0.047  52.909  1.00  0.00     0.073 A 
HETATM   18 CL1  UNL     1      20.677  -1.275  54.000  1.00  0.00    -0.081 Cl
HETATM   19  C10 UNL     1      22.122   0.889  53.176  1.00  0.00     0.036 A 
ENDBRANCH   6  12
BRANCH  11  20
HETATM   20  C15 UNL     1      26.292   7.134  49.668  1.00  0.00     0.285 C 
BRANCH  20  21
HETATM   21  N3  UNL     1      26.597   8.069  48.602  1.00  0.00     0.093 N 
HETATM   22  C16 UNL     1      27.964   8.520  48.630  1.00  0.00     0.298 C 
HETATM   23  C17 UNL     1      28.188   9.617  49.631  1.00  0.00     0.198 C 
HETATM   24  O2  UNL     1      27.473  10.758  49.315  1.00  0.00    -0.388 OA
HETATM   25  C18 UNL     1      26.401  10.518  48.466  1.00  0.00     0.198 C 
HETATM   26  C19 UNL     1      25.716   9.194  48.729  1.00  0.00     0.298 C 
ENDBRANCH  20  21
ENDBRANCH  11  20
TORSDOF 3
ENDMDL
