MODEL 1
REMARK VINA RESULT:      -7.9      0.000      0.000
REMARK  3 active torsions:
REMARK  status: ('A' for Active; 'I' for Inactive)
REMARK    1  A    between atoms: C2_2  and  C3_4 
REMARK    2  A    between atoms: C10_15  and  O2_16 
REMARK    3  A    between atoms: C18_25  and  N4_26 
ROOT
HETATM    1  C3  UNL     1      26.282   1.000  51.982  1.00  0.00     0.182 C 
HETATM    2  F1  UNL     1      26.987   1.809  51.111  1.00  0.00    -0.200 F 
HETATM    3  C4  UNL     1      25.208   1.722  51.714  1.00  0.00     0.164 C 
HETATM    4  N1  UNL     1      24.559   2.766  51.058  1.00  0.00    -0.247 N 
HETATM    5  C5  UNL     1      24.879   3.268  49.960  1.00  0.00     0.200 A 
HETATM    6  N2  UNL     1      23.737   3.846  50.558  1.00  0.00    -0.139 NA
HETATM    7  C6  UNL     1      22.535   3.903  49.990  1.00  0.00     0.219 C 
HETATM    8  O1  UNL     1      21.730   4.543  50.921  1.00  0.00    -0.356 OA
HETATM    9  C7  UNL     1      21.376   4.086  52.267  1.00  0.00     0.184 C 
HETATM   10  C8  UNL     1      20.896   2.778  52.127  1.00  0.00     0.069 C 
HETATM   11  C9  UNL     1      20.002   1.717  52.312  1.00  0.00     0.022 C 
HETATM   12  C10 UNL     1      19.658   1.412  50.996  1.00  0.00     0.071 C 
HETATM   13  C12 UNL     1      21.031   1.092  50.457  1.00  0.00    -0.024 C 
HETATM   14  C13 UNL     1      22.241   1.078  51.088  1.00  0.00     0.019 C 
HETATM   15  C14 UNL     1      22.244   1.984  52.227  1.00  0.00    -0.032 C 
HETATM   16  C15 UNL     1      23.349   1.757  52.926  1.00  0.00     0.097 C 
HETATM   17  N3  UNL     1      24.449   0.870  52.635  1.00  0.00    -0.348 N 
HETATM   18  C16 UNL     1      21.331   0.964  49.008  1.00  0.00     0.044 C 
HETATM   19  C17 UNL     1      22.441   1.828  48.544  1.00  0.00     0.045 C 
HETATM   20  C18 UNL     1      22.514   3.288  48.631  1.00  0.00     0.276 C 
HETATM   21  H13 UNL     1      23.988   0.217  53.261  1.00  0.00     0.167 HD
ENDROOT
BRANCH   1  22
HETATM   22  C2  UNL     1      27.006  -0.097  52.658  1.00  0.00     0.067 C 
HETATM   23  C1  UNL     1      27.887   0.300  53.558  1.00  0.00     0.040 C 
HETATM   24 CL1  UNL     1      26.594  -1.749  52.171  1.00  0.00    -0.082 Cl
ENDBRANCH   1  22
BRANCH  20  25
HETATM   25  N4  UNL     1      21.447   3.922  47.819  1.00  0.00     0.088 N 
HETATM   26  C19 UNL     1      21.677   3.651  46.407  1.00  0.00     0.307 C 
HETATM   27  H19 UNL     1      21.471   4.959  47.905  1.00  0.00     0.316 HD
ENDBRANCH  20  25
BRANCH  12  28
HETATM   28  O2  UNL     1      18.679   1.292  50.065  1.00  0.00    -0.356 OA
HETATM   29  C11 UNL     1      17.647   0.309  50.111  1.00  0.00     0.210 C 
ENDBRANCH  12  28
TORSDOF 3
ENDMDL
MODEL 2
REMARK VINA RESULT:      -7.7      1.851      2.520
REMARK  3 active torsions:
REMARK  status: ('A' for Active; 'I' for Inactive)
REMARK    1  A    between atoms: C2_2  and  C3_4 
REMARK    2  A    between atoms: C10_15  and  O2_16 
REMARK    3  A    between atoms: C18_25  and  N4_26 
ROOT
HETATM    1  C3  UNL     1      25.331   1.392  53.468  1.00  0.00     0.182 C 
HETATM    2  F1  UNL     1      25.711   2.629  53.956  1.00  0.00    -0.200 F 
HETATM    3  C4  UNL     1      24.244   1.966  52.984  1.00  0.00     0.164 C 
HETATM    4  N1  UNL     1      23.427   3.076  52.773  1.00  0.00    -0.247 N 
HETATM    5  C5  UNL     1      23.793   4.269  52.721  1.00  0.00     0.200 A 
HETATM    6  N2  UNL     1      22.405   4.073  52.539  1.00  0.00    -0.139 NA
HETATM    7  C6  UNL     1      21.723   4.458  51.464  1.00  0.00     0.219 C 
HETATM    8  O1  UNL     1      20.415   4.066  51.711  1.00  0.00    -0.356 OA
HETATM    9  C7  UNL     1      19.904   2.705  51.886  1.00  0.00     0.184 C 
HETATM   10  C8  UNL     1      20.363   1.965  50.788  1.00  0.00     0.069 C 
HETATM   11  C9  UNL     1      20.255   1.094  49.698  1.00  0.00     0.022 C 
HETATM   12  C10 UNL     1      20.689   1.906  48.651  1.00  0.00     0.071 C 
HETATM   13  C12 UNL     1      22.072   2.234  49.159  1.00  0.00    -0.024 C 
HETATM   14  C13 UNL     1      22.711   1.826  50.294  1.00  0.00     0.019 C 
HETATM   15  C14 UNL     1      21.755   1.500  51.340  1.00  0.00    -0.032 C 
HETATM   16  C15 UNL     1      22.414   0.899  52.322  1.00  0.00     0.097 C 
HETATM   17  N3  UNL     1      23.830   0.661  52.461  1.00  0.00    -0.348 N 
HETATM   18  C16 UNL     1      22.920   3.309  48.582  1.00  0.00     0.044 C 
HETATM   19  C17 UNL     1      23.404   4.293  49.579  1.00  0.00     0.045 C 
HETATM   20  C18 UNL     1      22.584   5.136  50.452  1.00  0.00     0.276 C 
HETATM   21  H13 UNL     1      23.631  -0.269  52.104  1.00  0.00     0.167 HD
ENDROOT
BRANCH   1  22
HETATM   22  C2  UNL     1      26.224   0.241  53.713  1.00  0.00     0.067 C 
HETATM   23  C1  UNL     1      26.383  -0.070  54.987  1.00  0.00     0.040 C 
HETATM   24 CL1  UNL     1      26.936  -0.537  52.291  1.00  0.00    -0.082 Cl
ENDBRANCH   1  22
BRANCH  20  25
HETATM   25  N4  UNL     1      21.761   6.081  49.658  1.00  0.00     0.088 N 
HETATM   26  C19 UNL     1      21.514   7.289  50.433  1.00  0.00     0.307 C 
HETATM   27  H19 UNL     1      20.819   5.687  49.458  1.00  0.00     0.316 HD
ENDBRANCH  20  25
BRANCH  12  28
HETATM   28  O2  UNL     1      20.409   2.482  47.457  1.00  0.00    -0.356 OA
HETATM   29  C11 UNL     1      19.237   3.252  47.195  1.00  0.00     0.210 C 
ENDBRANCH  12  28
TORSDOF 3
ENDMDL
MODEL 3
REMARK VINA RESULT:      -7.2      2.180      4.414
REMARK  3 active torsions:
REMARK  status: ('A' for Active; 'I' for Inactive)
REMARK    1  A    between atoms: C2_2  and  C3_4 
REMARK    2  A    between atoms: C10_15  and  O2_16 
REMARK    3  A    between atoms: C18_25  and  N4_26 
ROOT
HETATM    1  C3  UNL     1      26.689   1.052  52.812  1.00  0.00     0.182 C 
HETATM    2  F1  UNL     1      25.827   0.182  53.453  1.00  0.00    -0.200 F 
HETATM    3  C4  UNL     1      25.665   1.460  52.084  1.00  0.00     0.164 C 
HETATM    4  N1  UNL     1      24.320   1.422  51.719  1.00  0.00    -0.247 N 
HETATM    5  C5  UNL     1      23.363   1.079  52.444  1.00  0.00     0.200 A 
HETATM    6  N2  UNL     1      22.998   1.461  51.134  1.00  0.00    -0.139 NA
HETATM    7  C6  UNL     1      22.147   2.442  50.843  1.00  0.00     0.219 C 
HETATM    8  O1  UNL     1      22.091   2.467  49.457  1.00  0.00    -0.356 OA
HETATM    9  C7  UNL     1      23.177   2.759  48.520  1.00  0.00     0.184 C 
HETATM   10  C8  UNL     1      23.745   3.969  48.937  1.00  0.00     0.069 C 
HETATM   11  C9  UNL     1      24.231   5.273  48.786  1.00  0.00     0.022 C 
HETATM   12  C10 UNL     1      23.403   5.979  49.658  1.00  0.00     0.071 C 
HETATM   13  C12 UNL     1      23.725   5.248  50.939  1.00  0.00    -0.024 C 
HETATM   14  C13 UNL     1      24.595   4.223  51.171  1.00  0.00     0.019 C 
HETATM   15  C14 UNL     1      24.797   3.431  49.968  1.00  0.00    -0.032 C 
HETATM   16  C15 UNL     1      25.812   2.605  50.188  1.00  0.00     0.097 C 
HETATM   17  N3  UNL     1      26.568   2.389  51.397  1.00  0.00    -0.348 N 
HETATM   18  C16 UNL     1      22.922   5.385  52.182  1.00  0.00     0.044 C 
HETATM   19  C17 UNL     1      22.448   4.095  52.735  1.00  0.00     0.045 C 
HETATM   20  C18 UNL     1      21.602   3.107  52.062  1.00  0.00     0.276 C 
HETATM   21  H13 UNL     1      27.250   3.025  50.994  1.00  0.00     0.167 HD
ENDROOT
BRANCH   1  22
HETATM   22  C2  UNL     1      28.107   1.063  53.228  1.00  0.00     0.067 C 
HETATM   23  C1  UNL     1      28.700  -0.117  53.187  1.00  0.00     0.040 C 
HETATM   24 CL1  UNL     1      28.789   2.625  53.708  1.00  0.00    -0.082 Cl
ENDBRANCH   1  22
BRANCH  20  25
HETATM   25  N4  UNL     1      20.264   3.671  51.759  1.00  0.00     0.088 N 
HETATM   26  C19 UNL     1      19.265   2.612  51.790  1.00  0.00     0.307 C 
HETATM   27  H19 UNL     1      20.224   4.055  50.793  1.00  0.00     0.316 HD
ENDBRANCH  20  25
BRANCH  12  28
HETATM   28  O2  UNL     1      22.496   6.972  49.825  1.00  0.00    -0.356 OA
HETATM   29  C11 UNL     1      22.779   8.356  49.626  1.00  0.00     0.210 C 
ENDBRANCH  12  28
TORSDOF 3
ENDMDL
MODEL 4
REMARK VINA RESULT:      -7.0      2.708      4.193
REMARK  3 active torsions:
REMARK  status: ('A' for Active; 'I' for Inactive)
REMARK    1  A    between atoms: C2_2  and  C3_4 
REMARK    2  A    between atoms: C10_15  and  O2_16 
REMARK    3  A    between atoms: C18_25  and  N4_26 
ROOT
HETATM    1  C3  UNL     1      22.629  -0.008  52.838  1.00  0.00     0.182 C 
HETATM    2  F1  UNL     1      22.042  -0.806  51.874  1.00  0.00    -0.200 F 
HETATM    3  C4  UNL     1      22.756   0.933  51.919  1.00  0.00     0.164 C 
HETATM    4  N1  UNL     1      22.596   1.417  50.622  1.00  0.00    -0.247 N 
HETATM    5  C5  UNL     1      21.727   1.062  49.798  1.00  0.00     0.200 A 
HETATM    6  N2  UNL     1      22.610   2.058  49.325  1.00  0.00    -0.139 NA
HETATM    7  C6  UNL     1      22.232   3.255  48.885  1.00  0.00     0.219 C 
HETATM    8  O1  UNL     1      23.410   3.895  48.530  1.00  0.00    -0.356 OA
HETATM    9  C7  UNL     1      24.528   4.264  49.401  1.00  0.00     0.184 C 
HETATM   10  C8  UNL     1      23.975   4.972  50.476  1.00  0.00     0.069 C 
HETATM   11  C9  UNL     1      23.856   6.029  51.385  1.00  0.00     0.022 C 
HETATM   12  C10 UNL     1      22.562   6.477  51.120  1.00  0.00     0.071 C 
HETATM   13  C12 UNL     1      21.803   5.205  51.412  1.00  0.00    -0.024 C 
HETATM   14  C13 UNL     1      22.256   3.991  51.839  1.00  0.00     0.019 C 
HETATM   15  C14 UNL     1      23.638   3.780  51.437  1.00  0.00    -0.032 C 
HETATM   16  C15 UNL     1      24.086   2.703  52.068  1.00  0.00     0.097 C 
HETATM   17  N3  UNL     1      23.380   1.789  52.932  1.00  0.00    -0.348 N 
HETATM   18  C16 UNL     1      20.383   4.996  51.030  1.00  0.00     0.044 C 
HETATM   19  C17 UNL     1      20.150   3.773  50.228  1.00  0.00     0.045 C 
HETATM   20  C18 UNL     1      20.752   3.442  48.935  1.00  0.00     0.276 C 
HETATM   21  H13 UNL     1      23.772   2.330  53.698  1.00  0.00     0.167 HD
ENDROOT
BRANCH   1  22
HETATM   22  C2  UNL     1      22.781  -0.558  54.201  1.00  0.00     0.067 C 
HETATM   23  C1  UNL     1      21.647  -0.711  54.861  1.00  0.00     0.040 C 
HETATM   24 CL1  UNL     1      24.428  -0.924  54.739  1.00  0.00    -0.082 Cl
ENDBRANCH   1  22
BRANCH  20  25
HETATM   25  N4  UNL     1      20.342   4.415  47.893  1.00  0.00     0.088 N 
HETATM   26  C19 UNL     1      20.382   3.780  46.583  1.00  0.00     0.307 C 
HETATM   27  H19 UNL     1      21.013   5.209  47.832  1.00  0.00     0.316 HD
ENDBRANCH  20  25
BRANCH  12  28
HETATM   28  O2  UNL     1      21.761   7.501  50.738  1.00  0.00    -0.356 OA
HETATM   29  C11 UNL     1      21.886   8.197  49.499  1.00  0.00     0.210 C 
ENDBRANCH  12  28
TORSDOF 3
ENDMDL
MODEL 5
REMARK VINA RESULT:      -6.9     10.148     12.975
REMARK  3 active torsions:
REMARK  status: ('A' for Active; 'I' for Inactive)
REMARK    1  A    between atoms: C2_2  and  C3_4 
REMARK    2  A    between atoms: C10_15  and  O2_16 
REMARK    3  A    between atoms: C18_25  and  N4_26 
ROOT
HETATM    1  C3  UNL     1      28.893   7.013  48.223  1.00  0.00     0.182 C 
HETATM    2  F1  UNL     1      28.831   5.633  48.283  1.00  0.00    -0.200 F 
HETATM    3  C4  UNL     1      30.202   6.904  48.074  1.00  0.00     0.164 C 
HETATM    4  N1  UNL     1      31.371   6.153  47.968  1.00  0.00    -0.247 N 
HETATM    5  C5  UNL     1      31.464   4.979  47.551  1.00  0.00     0.200 A 
HETATM    6  N2  UNL     1      32.691   5.563  47.938  1.00  0.00    -0.139 NA
HETATM    7  C6  UNL     1      33.746   5.704  47.139  1.00  0.00     0.219 C 
HETATM    8  O1  UNL     1      34.710   6.319  47.925  1.00  0.00    -0.356 OA
HETATM    9  C7  UNL     1      34.653   7.646  48.540  1.00  0.00     0.184 C 
HETATM   10  C8  UNL     1      34.312   8.541  47.519  1.00  0.00     0.069 C 
HETATM   11  C9  UNL     1      34.430   9.699  46.740  1.00  0.00     0.022 C 
HETATM   12  C10 UNL     1      34.623   9.158  45.469  1.00  0.00     0.071 C 
HETATM   13  C12 UNL     1      33.350   8.355  45.354  1.00  0.00    -0.024 C 
HETATM   14  C13 UNL     1      32.309   8.228  46.227  1.00  0.00     0.019 C 
HETATM   15  C14 UNL     1      32.748   8.454  47.595  1.00  0.00    -0.032 C 
HETATM   16  C15 UNL     1      31.668   8.545  48.361  1.00  0.00     0.097 C 
HETATM   17  N3  UNL     1      30.281   8.367  48.009  1.00  0.00    -0.348 N 
HETATM   18  C16 UNL     1      33.125   7.327  44.305  1.00  0.00     0.044 C 
HETATM   19  C17 UNL     1      32.736   6.001  44.838  1.00  0.00     0.045 C 
HETATM   20  C18 UNL     1      33.501   5.169  45.768  1.00  0.00     0.276 C 
HETATM   21  H13 UNL     1      30.247   9.379  47.940  1.00  0.00     0.167 HD
ENDROOT
BRANCH   1  22
HETATM   22  C2  UNL     1      27.632   7.774  48.340  1.00  0.00     0.067 C 
HETATM   23  C1  UNL     1      26.882   7.764  47.252  1.00  0.00     0.040 C 
HETATM   24 CL1  UNL     1      27.318   8.571  49.889  1.00  0.00    -0.082 Cl
ENDBRANCH   1  22
BRANCH  20  25
HETATM   25  N4  UNL     1      34.789   4.745  45.167  1.00  0.00     0.088 N 
HETATM   26  C19 UNL     1      35.201   3.469  45.735  1.00  0.00     0.307 C 
HETATM   27  H19 UNL     1      35.555   5.409  45.405  1.00  0.00     0.316 HD
ENDBRANCH  20  25
BRANCH  12  28
HETATM   28  O2  UNL     1      35.418   9.058  44.376  1.00  0.00    -0.356 OA
HETATM   29  C11 UNL     1      36.472   9.967  44.067  1.00  0.00     0.210 C 
ENDBRANCH  12  28
TORSDOF 3
ENDMDL
MODEL 6
REMARK VINA RESULT:      -6.8      3.201      4.344
REMARK  3 active torsions:
REMARK  status: ('A' for Active; 'I' for Inactive)
REMARK    1  A    between atoms: C2_2  and  C3_4 
REMARK    2  A    between atoms: C10_15  and  O2_16 
REMARK    3  A    between atoms: C18_25  and  N4_26 
ROOT
HETATM    1  C3  UNL     1      26.288   6.606  48.496  1.00  0.00     0.182 C 
HETATM    2  F1  UNL     1      25.576   7.358  47.578  1.00  0.00    -0.200 F 
HETATM    3  C4  UNL     1      25.133   6.198  48.990  1.00  0.00     0.164 C 
HETATM    4  N1  UNL     1      23.739   6.180  49.012  1.00  0.00    -0.247 N 
HETATM    5  C5  UNL     1      22.978   6.393  48.044  1.00  0.00     0.200 A 
HETATM    6  N2  UNL     1      22.316   6.106  49.259  1.00  0.00    -0.139 NA
HETATM    7  C6  UNL     1      21.462   5.100  49.433  1.00  0.00     0.219 C 
HETATM    8  O1  UNL     1      21.064   5.195  50.758  1.00  0.00    -0.356 OA
HETATM    9  C7  UNL     1      21.894   5.060  51.957  1.00  0.00     0.184 C 
HETATM   10  C8  UNL     1      22.599   3.858  51.816  1.00  0.00     0.069 C 
HETATM   11  C9  UNL     1      23.087   2.607  52.213  1.00  0.00     0.022 C 
HETATM   12  C10 UNL     1      22.531   1.773  51.243  1.00  0.00     0.071 C 
HETATM   13  C12 UNL     1      23.131   2.407  50.011  1.00  0.00    -0.024 C 
HETATM   14  C13 UNL     1      23.987   3.463  49.894  1.00  0.00     0.019 C 
HETATM   15  C14 UNL     1      23.850   4.370  51.023  1.00  0.00    -0.032 C 
HETATM   16  C15 UNL     1      24.852   5.239  50.972  1.00  0.00     0.097 C 
HETATM   17  N3  UNL     1      25.875   5.396  49.968  1.00  0.00    -0.348 N 
HETATM   18  C16 UNL     1      22.668   2.108  48.631  1.00  0.00     0.044 C 
HETATM   19  C17 UNL     1      22.292   3.309  47.850  1.00  0.00     0.045 C 
HETATM   20  C18 UNL     1      21.265   4.295  48.193  1.00  0.00     0.276 C 
HETATM   21  H13 UNL     1      26.461   4.845  50.588  1.00  0.00     0.167 HD
ENDROOT
BRANCH   1  22
HETATM   22  C2  UNL     1      27.763   6.652  48.441  1.00  0.00     0.067 C 
HETATM   23  C1  UNL     1      28.281   7.861  48.576  1.00  0.00     0.040 C 
HETATM   24 CL1  UNL     1      28.605   5.112  48.208  1.00  0.00    -0.082 Cl
ENDBRANCH   1  22
BRANCH  20  25
HETATM   25  N4  UNL     1      19.919   3.673  48.217  1.00  0.00     0.088 N 
HETATM   26  C19 UNL     1      19.524   3.301  46.865  1.00  0.00     0.307 C 
HETATM   27  H19 UNL     1      19.195   4.349  48.536  1.00  0.00     0.316 HD
ENDBRANCH  20  25
BRANCH  12  28
HETATM   28  O2  UNL     1      21.737   0.711  50.964  1.00  0.00    -0.356 OA
HETATM   29  C11 UNL     1      20.370   0.608  51.359  1.00  0.00     0.210 C 
ENDBRANCH  12  28
TORSDOF 3
ENDMDL
MODEL 7
REMARK VINA RESULT:      -6.7      9.127     10.665
REMARK  3 active torsions:
REMARK  status: ('A' for Active; 'I' for Inactive)
REMARK    1  A    between atoms: C2_2  and  C3_4 
REMARK    2  A    between atoms: C10_15  and  O2_16 
REMARK    3  A    between atoms: C18_25  and  N4_26 
ROOT
HETATM    1  C3  UNL     1      33.329   5.071  47.157  1.00  0.00     0.182 C 
HETATM    2  F1  UNL     1      34.313   5.795  46.511  1.00  0.00    -0.200 F 
HETATM    3  C4  UNL     1      32.686   6.207  47.360  1.00  0.00     0.164 C 
HETATM    4  N1  UNL     1      32.563   7.590  47.242  1.00  0.00    -0.247 N 
HETATM    5  C5  UNL     1      33.064   8.307  46.350  1.00  0.00     0.200 A 
HETATM    6  N2  UNL     1      32.303   9.012  47.310  1.00  0.00    -0.139 NA
HETATM    7  C6  UNL     1      31.247   9.770  47.029  1.00  0.00     0.219 C 
HETATM    8  O1  UNL     1      30.819  10.257  48.255  1.00  0.00    -0.356 OA
HETATM    9  C7  UNL     1      30.311   9.493  49.396  1.00  0.00     0.184 C 
HETATM   10  C8  UNL     1      29.298   8.664  48.898  1.00  0.00     0.069 C 
HETATM   11  C9  UNL     1      28.027   8.079  48.861  1.00  0.00     0.022 C 
HETATM   12  C10 UNL     1      27.572   8.487  47.607  1.00  0.00     0.071 C 
HETATM   13  C12 UNL     1      28.655   7.879  46.750  1.00  0.00    -0.024 C 
HETATM   14  C13 UNL     1      29.737   7.127  47.103  1.00  0.00     0.019 C 
HETATM   15  C14 UNL     1      30.153   7.423  48.465  1.00  0.00    -0.032 C 
HETATM   16  C15 UNL     1      31.048   6.512  48.826  1.00  0.00     0.097 C 
HETATM   17  N3  UNL     1      31.636   5.450  48.047  1.00  0.00    -0.348 N 
HETATM   18  C16 UNL     1      28.853   8.223  45.318  1.00  0.00     0.044 C 
HETATM   19  C17 UNL     1      30.227   8.668  44.991  1.00  0.00     0.045 C 
HETATM   20  C18 UNL     1      30.943   9.808  45.569  1.00  0.00     0.276 C 
HETATM   21  H13 UNL     1      30.938   4.851  48.479  1.00  0.00     0.167 HD
ENDROOT
BRANCH   1  22
HETATM   22  C2  UNL     1      33.495   3.606  47.262  1.00  0.00     0.067 C 
HETATM   23  C1  UNL     1      34.597   3.222  47.883  1.00  0.00     0.040 C 
HETATM   24 CL1  UNL     1      32.220   2.602  46.555  1.00  0.00    -0.082 Cl
ENDBRANCH   1  22
BRANCH  20  25
HETATM   25  N4  UNL     1      30.262  11.084  45.240  1.00  0.00     0.088 N 
HETATM   26  C19 UNL     1      31.225  12.177  45.268  1.00  0.00     0.307 C 
HETATM   27  H19 UNL     1      29.551  11.330  45.958  1.00  0.00     0.316 HD
ENDBRANCH  20  25
BRANCH  12  28
HETATM   28  O2  UNL     1      26.634   9.152  46.890  1.00  0.00    -0.356 OA
HETATM   29  C11 UNL     1      26.110  10.430  47.247  1.00  0.00     0.210 C 
ENDBRANCH  12  28
TORSDOF 3
ENDMDL
MODEL 8
REMARK VINA RESULT:      -6.7      4.086      5.540
REMARK  3 active torsions:
REMARK  status: ('A' for Active; 'I' for Inactive)
REMARK    1  A    between atoms: C2_2  and  C3_4 
REMARK    2  A    between atoms: C10_15  and  O2_16 
REMARK    3  A    between atoms: C18_25  and  N4_26 
ROOT
HETATM    1  C3  UNL     1      27.726   7.159  48.561  1.00  0.00     0.182 C 
HETATM    2  F1  UNL     1      27.589   8.404  49.146  1.00  0.00    -0.200 F 
HETATM    3  C4  UNL     1      26.647   6.778  49.222  1.00  0.00     0.164 C 
HETATM    4  N1  UNL     1      25.595   7.017  50.103  1.00  0.00    -0.247 N 
HETATM    5  C5  UNL     1      25.062   8.121  50.343  1.00  0.00     0.200 A 
HETATM    6  N2  UNL     1      24.507   7.036  51.057  1.00  0.00    -0.139 NA
HETATM    7  C6  UNL     1      23.229   6.672  51.004  1.00  0.00     0.219 C 
HETATM    8  O1  UNL     1      23.134   5.574  51.847  1.00  0.00    -0.356 OA
HETATM    9  C7  UNL     1      23.794   4.275  51.706  1.00  0.00     0.184 C 
HETATM   10  C8  UNL     1      23.519   3.830  50.407  1.00  0.00     0.069 C 
HETATM   11  C9  UNL     1      23.108   2.919  49.427  1.00  0.00     0.022 C 
HETATM   12  C10 UNL     1      22.043   3.604  48.842  1.00  0.00     0.071 C 
HETATM   13  C12 UNL     1      22.776   4.844  48.391  1.00  0.00    -0.024 C 
HETATM   14  C13 UNL     1      24.095   5.174  48.499  1.00  0.00     0.019 C 
HETATM   15  C14 UNL     1      24.707   4.502  49.635  1.00  0.00    -0.032 C 
HETATM   16  C15 UNL     1      26.020   4.676  49.553  1.00  0.00     0.097 C 
HETATM   17  N3  UNL     1      26.782   5.454  48.608  1.00  0.00    -0.348 N 
HETATM   18  C16 UNL     1      22.087   6.080  47.938  1.00  0.00     0.044 C 
HETATM   19  C17 UNL     1      22.509   7.302  48.661  1.00  0.00     0.045 C 
HETATM   20  C18 UNL     1      22.422   7.545  50.102  1.00  0.00     0.276 C 
HETATM   21  H13 UNL     1      26.926   4.576  48.117  1.00  0.00     0.167 HD
ENDROOT
BRANCH   1  22
HETATM   22  C2  UNL     1      28.855   6.945  47.632  1.00  0.00     0.067 C 
HETATM   23  C1  UNL     1      28.829   7.707  46.552  1.00  0.00     0.040 C 
HETATM   24 CL1  UNL     1      30.053   5.726  48.092  1.00  0.00    -0.082 Cl
ENDBRANCH   1  22
BRANCH  20  25
HETATM   25  N4  UNL     1      21.010   7.552  50.556  1.00  0.00     0.088 N 
HETATM   26  C19 UNL     1      20.296   8.654  49.926  1.00  0.00     0.307 C 
HETATM   27  H19 UNL     1      20.941   7.732  51.578  1.00  0.00     0.316 HD
ENDBRANCH  20  25
BRANCH  12  28
HETATM   28  O2  UNL     1      20.724   3.622  48.533  1.00  0.00    -0.356 OA
HETATM   29  C11 UNL     1      20.158   2.963  47.402  1.00  0.00     0.210 C 
ENDBRANCH  12  28
TORSDOF 3
ENDMDL
MODEL 9
REMARK VINA RESULT:      -6.6      3.309      5.511
REMARK  3 active torsions:
REMARK  status: ('A' for Active; 'I' for Inactive)
REMARK    1  A    between atoms: C2_2  and  C3_4 
REMARK    2  A    between atoms: C10_15  and  O2_16 
REMARK    3  A    between atoms: C18_25  and  N4_26 
ROOT
HETATM    1  C3  UNL     1      19.933   0.921  52.535  1.00  0.00     0.182 C 
HETATM    2  F1  UNL     1      18.718   1.556  52.350  1.00  0.00    -0.200 F 
HETATM    3  C4  UNL     1      20.435   1.705  51.597  1.00  0.00     0.164 C 
HETATM    4  N1  UNL     1      20.321   2.721  50.650  1.00  0.00    -0.247 N 
HETATM    5  C5  UNL     1      19.503   3.665  50.667  1.00  0.00     0.200 A 
HETATM    6  N2  UNL     1      20.382   3.671  49.560  1.00  0.00    -0.139 NA
HETATM    7  C6  UNL     1      21.204   4.671  49.254  1.00  0.00     0.219 C 
HETATM    8  O1  UNL     1      21.868   4.251  48.111  1.00  0.00    -0.356 OA
HETATM    9  C7  UNL     1      22.766   3.103  47.965  1.00  0.00     0.184 C 
HETATM   10  C8  UNL     1      23.719   3.214  48.985  1.00  0.00     0.069 C 
HETATM   11  C9  UNL     1      25.005   3.234  49.537  1.00  0.00     0.022 C 
HETATM   12  C10 UNL     1      25.047   4.513  50.092  1.00  0.00     0.071 C 
HETATM   13  C12 UNL     1      23.874   4.403  51.036  1.00  0.00    -0.024 C 
HETATM   14  C13 UNL     1      23.045   3.349  51.288  1.00  0.00     0.019 C 
HETATM   15  C14 UNL     1      22.967   2.462  50.138  1.00  0.00    -0.032 C 
HETATM   16  C15 UNL     1      22.342   1.355  50.517  1.00  0.00     0.097 C 
HETATM   17  N3  UNL     1      21.728   1.040  51.784  1.00  0.00    -0.348 N 
HETATM   18  C16 UNL     1      23.255   5.573  51.710  1.00  0.00     0.044 C 
HETATM   19  C17 UNL     1      21.794   5.687  51.496  1.00  0.00     0.045 C 
HETATM   20  C18 UNL     1      21.101   5.810  50.212  1.00  0.00     0.276 C 
HETATM   21  H13 UNL     1      22.595   0.554  51.996  1.00  0.00     0.167 HD
ENDROOT
BRANCH   1  22
HETATM   22  C2  UNL     1      20.013  -0.150  53.549  1.00  0.00     0.067 C 
HETATM   23  C1  UNL     1      19.185  -1.160  53.348  1.00  0.00     0.040 C 
HETATM   24 CL1  UNL     1      21.185   0.071  54.858  1.00  0.00    -0.082 Cl
ENDBRANCH   1  22
BRANCH  20  25
HETATM   25  N4  UNL     1      21.478   7.069  49.523  1.00  0.00     0.088 N 
HETATM   26  C19 UNL     1      20.656   8.165  50.017  1.00  0.00     0.307 C 
HETATM   27  H19 UNL     1      21.279   7.017  48.503  1.00  0.00     0.316 HD
ENDBRANCH  20  25
BRANCH  12  28
HETATM   28  O2  UNL     1      25.654   5.724  50.135  1.00  0.00    -0.356 OA
HETATM   29  C11 UNL     1      25.728   6.622  49.030  1.00  0.00     0.210 C 
ENDBRANCH  12  28
TORSDOF 3
ENDMDL
