MODEL 1
REMARK VINA RESULT:      -8.1      0.000      0.000
REMARK  9 active torsions:
REMARK  status: ('A' for Active; 'I' for Inactive)
REMARK    1  A    between atoms: C2_2  and  C3_3 
REMARK    2  A    between atoms: C3_3  and  N1_4 
REMARK       I    between atoms: N1_4  and  C4_5 
REMARK    3  A    between atoms: C4_5  and  C5_7 
REMARK    4  A    between atoms: C6_8  and  C7_9 
REMARK    5  A    between atoms: C7_9  and  N2_10 
REMARK    6  A    between atoms: N2_10  and  C8_11 
REMARK    7  A    between atoms: N2_10  and  C11_14 
REMARK    8  A    between atoms: C17_22  and  N5_23 
REMARK    9  A    between atoms: N5_23  and  C18_24 
ROOT
HETATM    1  C3  UNL     1      23.387   2.137  50.344  1.00  0.00     0.024 C 
HETATM    2  C14 UNL     1      22.876   1.372  51.258  1.00  0.00     0.030 A 
HETATM    3  C15 UNL     1      21.596   0.663  51.099  1.00  0.00     0.194 A 
HETATM    4  N3  UNL     1      21.178  -0.038  52.255  1.00  0.00    -0.278 NA
HETATM    5  C16 UNL     1      21.777  -0.210  53.339  1.00  0.00     0.229 A 
HETATM    6  N4  UNL     1      23.079   0.357  53.546  1.00  0.00    -0.224 NA
HETATM    7  C17 UNL     1      23.515   1.062  52.530  1.00  0.00     0.139 A 
ENDROOT
BRANCH   1   8
HETATM    8  C2  UNL     1      22.480   2.140  49.134  1.00  0.00     0.053 C 
HETATM    9  C1  UNL     1      22.213   3.564  48.666  1.00  0.00     0.011 C 
ENDBRANCH   1   8
BRANCH   1  10
HETATM   10  N1  UNL     1      24.246   3.157  49.911  1.00  0.00    -0.319 N 
HETATM   11  C4  UNL     1      25.647   3.338  49.868  1.00  0.00     0.300 C 
HETATM   12  O1  UNL     1      26.494   2.526  50.297  1.00  0.00    -0.258 OA
HETATM   13  H6  UNL     1      23.903   4.060  49.462  1.00  0.00     0.169 HD
BRANCH  11  14
HETATM   14  C5  UNL     1      26.334   4.469  49.334  1.00  0.00    -0.004 C 
HETATM   15  C6  UNL     1      26.912   5.406  48.868  1.00  0.00    -0.066 C 
BRANCH  15  16
HETATM   16  C7  UNL     1      27.601   6.564  48.315  1.00  0.00     0.367 C 
BRANCH  16  17
HETATM   17  N2  UNL     1      26.614   7.659  48.380  1.00  0.00     0.107 N 
BRANCH  17  18
HETATM   18  C8  UNL     1      26.536   8.199  49.681  1.00  0.00     0.216 C 
HETATM   19  C9  UNL     1      27.460   9.275  50.096  1.00  0.00     0.042 C 
HETATM   20  C10 UNL     1      25.077   8.541  49.996  1.00  0.00     0.042 C 
ENDBRANCH  17  18
BRANCH  17  21
HETATM   21  C11 UNL     1      26.892   8.572  47.297  1.00  0.00     0.216 C 
HETATM   22  C12 UNL     1      28.205   8.060  46.666  1.00  0.00     0.042 C 
HETATM   23  C13 UNL     1      25.901   8.537  46.191  1.00  0.00     0.042 C 
ENDBRANCH  17  21
ENDBRANCH  16  17
ENDBRANCH  15  16
ENDBRANCH  11  14
ENDBRANCH   1  10
BRANCH   7  24
HETATM   24  N5  UNL     1      24.860   1.439  52.790  1.00  0.00    -0.340 N 
HETATM   25  H26 UNL     1      25.011   2.507  52.863  1.00  0.00     0.167 HD
BRANCH  24  26
HETATM   26  C18 UNL     1      26.061   0.715  52.959  1.00  0.00     0.035 A 
HETATM   27  C19 UNL     1      26.403  -0.582  52.644  1.00  0.00     0.032 A 
HETATM   28  C20 UNL     1      27.649  -1.087  52.945  1.00  0.00     0.046 A 
HETATM   29  C21 UNL     1      28.601  -0.317  53.571  1.00  0.00     0.138 A 
HETATM   30  F1  UNL     1      29.827  -0.802  53.874  1.00  0.00    -0.204 F 
HETATM   31  C22 UNL     1      28.289   0.969  53.894  1.00  0.00     0.074 A 
HETATM   32 CL1  UNL     1      29.515   1.947  54.704  1.00  0.00    -0.081 Cl
HETATM   33  C23 UNL     1      27.047   1.484  53.599  1.00  0.00     0.056 A 
ENDBRANCH  24  26
ENDBRANCH   7  24
TORSDOF 9
ENDMDL
MODEL 2
REMARK VINA RESULT:      -8.1      1.675      2.496
REMARK  9 active torsions:
REMARK  status: ('A' for Active; 'I' for Inactive)
REMARK    1  A    between atoms: C2_2  and  C3_3 
REMARK    2  A    between atoms: C3_3  and  N1_4 
REMARK       I    between atoms: N1_4  and  C4_5 
REMARK    3  A    between atoms: C4_5  and  C5_7 
REMARK    4  A    between atoms: C6_8  and  C7_9 
REMARK    5  A    between atoms: C7_9  and  N2_10 
REMARK    6  A    between atoms: N2_10  and  C8_11 
REMARK    7  A    between atoms: N2_10  and  C11_14 
REMARK    8  A    between atoms: C17_22  and  N5_23 
REMARK    9  A    between atoms: N5_23  and  C18_24 
ROOT
HETATM    1  C3  UNL     1      22.353   0.737  52.102  1.00  0.00     0.024 C 
HETATM    2  C14 UNL     1      22.555  -0.036  53.123  1.00  0.00     0.030 A 
HETATM    3  C15 UNL     1      21.504  -0.870  53.730  1.00  0.00     0.194 A 
HETATM    4  N3  UNL     1      21.917  -1.561  54.894  1.00  0.00    -0.278 NA
HETATM    5  C16 UNL     1      23.051  -1.632  55.415  1.00  0.00     0.229 A 
HETATM    6  N4  UNL     1      24.162  -0.936  54.831  1.00  0.00    -0.224 NA
HETATM    7  C17 UNL     1      23.845  -0.233  53.770  1.00  0.00     0.139 A 
ENDROOT
BRANCH   1   8
HETATM    8  C2  UNL     1      20.914   0.605  51.656  1.00  0.00     0.053 C 
HETATM    9  C1  UNL     1      20.804   0.759  50.145  1.00  0.00     0.011 C 
ENDBRANCH   1   8
BRANCH   1  10
HETATM   10  N1  UNL     1      22.687   1.816  51.271  1.00  0.00    -0.319 N 
HETATM   11  C4  UNL     1      23.617   2.877  51.332  1.00  0.00     0.300 C 
HETATM   12  O1  UNL     1      24.399   3.100  52.280  1.00  0.00    -0.258 OA
HETATM   13  H6  UNL     1      22.230   1.989  50.325  1.00  0.00     0.169 HD
BRANCH  11  14
HETATM   14  C5  UNL     1      23.826   3.872  50.329  1.00  0.00    -0.004 C 
HETATM   15  C6  UNL     1      23.990   4.694  49.478  1.00  0.00    -0.066 C 
BRANCH  15  16
HETATM   16  C7  UNL     1      24.189   5.714  48.457  1.00  0.00     0.367 C 
BRANCH  16  17
HETATM   17  N2  UNL     1      24.637   6.909  49.198  1.00  0.00     0.107 N 
BRANCH  17  18
HETATM   18  C8  UNL     1      26.019   6.846  49.480  1.00  0.00     0.216 C 
HETATM   19  C9  UNL     1      26.962   6.334  48.464  1.00  0.00     0.042 C 
HETATM   20  C10 UNL     1      26.473   8.187  50.063  1.00  0.00     0.042 C 
ENDBRANCH  17  18
BRANCH  17  21
HETATM   21  C11 UNL     1      24.155   8.074  48.495  1.00  0.00     0.216 C 
HETATM   22  C12 UNL     1      23.778   7.567  47.087  1.00  0.00     0.042 C 
HETATM   23  C13 UNL     1      22.898   8.646  49.041  1.00  0.00     0.042 C 
ENDBRANCH  17  21
ENDBRANCH  16  17
ENDBRANCH  15  16
ENDBRANCH  11  14
ENDBRANCH   1  10
BRANCH   7  24
HETATM   24  N5  UNL     1      25.041   0.279  53.199  1.00  0.00    -0.340 N 
HETATM   25  H26 UNL     1      24.894   1.157  52.586  1.00  0.00     0.167 HD
BRANCH  24  26
HETATM   26  C18 UNL     1      26.395  -0.123  53.244  1.00  0.00     0.035 A 
HETATM   27  C19 UNL     1      27.013  -1.306  52.901  1.00  0.00     0.032 A 
HETATM   28  C20 UNL     1      28.369  -1.480  53.071  1.00  0.00     0.046 A 
HETATM   29  C21 UNL     1      29.159  -0.482  53.588  1.00  0.00     0.138 A 
HETATM   30  F1  UNL     1      30.492  -0.642  53.762  1.00  0.00    -0.204 F 
HETATM   31  C22 UNL     1      28.573   0.698  53.935  1.00  0.00     0.074 A 
HETATM   32 CL1  UNL     1      29.596   1.972  54.606  1.00  0.00    -0.081 Cl
HETATM   33  C23 UNL     1      27.220   0.884  53.771  1.00  0.00     0.056 A 
ENDBRANCH  24  26
ENDBRANCH   7  24
TORSDOF 9
ENDMDL
MODEL 3
REMARK VINA RESULT:      -8.0      1.792      2.579
REMARK  9 active torsions:
REMARK  status: ('A' for Active; 'I' for Inactive)
REMARK    1  A    between atoms: C2_2  and  C3_3 
REMARK    2  A    between atoms: C3_3  and  N1_4 
REMARK       I    between atoms: N1_4  and  C4_5 
REMARK    3  A    between atoms: C4_5  and  C5_7 
REMARK    4  A    between atoms: C6_8  and  C7_9 
REMARK    5  A    between atoms: C7_9  and  N2_10 
REMARK    6  A    between atoms: N2_10  and  C8_11 
REMARK    7  A    between atoms: N2_10  and  C11_14 
REMARK    8  A    between atoms: C17_22  and  N5_23 
REMARK    9  A    between atoms: N5_23  and  C18_24 
ROOT
HETATM    1  C3  UNL     1      24.053   3.386  49.722  1.00  0.00     0.024 C 
HETATM    2  C14 UNL     1      23.460   2.705  50.653  1.00  0.00     0.030 A 
HETATM    3  C15 UNL     1      22.056   2.271  50.570  1.00  0.00     0.194 A 
HETATM    4  N3  UNL     1      21.582   1.626  51.737  1.00  0.00    -0.278 NA
HETATM    5  C16 UNL     1      22.203   1.299  52.772  1.00  0.00     0.229 A 
HETATM    6  N4  UNL     1      23.604   1.588  52.898  1.00  0.00    -0.224 NA
HETATM    7  C17 UNL     1      24.105   2.229  51.869  1.00  0.00     0.139 A 
ENDROOT
BRANCH   1   8
HETATM    8  C2  UNL     1      23.088   3.613  48.581  1.00  0.00     0.053 C 
HETATM    9  C1  UNL     1      23.056   5.083  48.188  1.00  0.00     0.011 C 
ENDBRANCH   1   8
BRANCH   1  10
HETATM   10  N1  UNL     1      25.069   4.230  49.252  1.00  0.00    -0.319 N 
HETATM   11  C4  UNL     1      26.481   4.227  49.308  1.00  0.00     0.300 C 
HETATM   12  O1  UNL     1      27.179   3.374  49.894  1.00  0.00    -0.258 OA
HETATM   13  H6  UNL     1      24.882   5.107  48.678  1.00  0.00     0.169 HD
BRANCH  11  14
HETATM   14  C5  UNL     1      27.350   5.189  48.710  1.00  0.00    -0.004 C 
HETATM   15  C6  UNL     1      28.078   5.982  48.193  1.00  0.00    -0.066 C 
BRANCH  15  16
HETATM   16  C7  UNL     1      28.954   6.968  47.574  1.00  0.00     0.367 C 
BRANCH  16  17
HETATM   17  N2  UNL     1      29.744   7.527  48.688  1.00  0.00     0.107 N 
BRANCH  17  18
HETATM   18  C8  UNL     1      31.081   7.077  48.640  1.00  0.00     0.216 C 
HETATM   19  C9  UNL     1      31.545   6.022  49.565  1.00  0.00     0.042 C 
HETATM   20  C10 UNL     1      31.456   6.773  47.187  1.00  0.00     0.042 C 
ENDBRANCH  17  18
BRANCH  17  21
HETATM   21  C11 UNL     1      29.523   8.953  48.718  1.00  0.00     0.216 C 
HETATM   22  C12 UNL     1      28.306   9.152  49.647  1.00  0.00     0.042 C 
HETATM   23  C13 UNL     1      30.617   9.732  49.353  1.00  0.00     0.042 C 
ENDBRANCH  17  21
ENDBRANCH  16  17
ENDBRANCH  15  16
ENDBRANCH  11  14
ENDBRANCH   1  10
BRANCH   7  24
HETATM   24  N5  UNL     1      25.512   2.320  52.041  1.00  0.00    -0.340 N 
HETATM   25  H26 UNL     1      25.926   3.282  51.771  1.00  0.00     0.167 HD
BRANCH  24  26
HETATM   26  C18 UNL     1      26.504   1.413  52.476  1.00  0.00     0.035 A 
HETATM   27  C19 UNL     1      26.629   0.049  52.327  1.00  0.00     0.032 A 
HETATM   28  C20 UNL     1      27.686  -0.637  52.883  1.00  0.00     0.046 A 
HETATM   29  C21 UNL     1      28.658   0.010  53.608  1.00  0.00     0.138 A 
HETATM   30  F1  UNL     1      29.700  -0.654  54.161  1.00  0.00    -0.204 F 
HETATM   31  C22 UNL     1      28.558   1.359  53.771  1.00  0.00     0.074 A 
HETATM   32 CL1  UNL     1      29.807   2.180  54.710  1.00  0.00    -0.081 Cl
HETATM   33  C23 UNL     1      27.506   2.056  53.221  1.00  0.00     0.056 A 
ENDBRANCH  24  26
ENDBRANCH   7  24
TORSDOF 9
ENDMDL
MODEL 4
REMARK VINA RESULT:      -8.0      1.336      1.775
REMARK  9 active torsions:
REMARK  status: ('A' for Active; 'I' for Inactive)
REMARK    1  A    between atoms: C2_2  and  C3_3 
REMARK    2  A    between atoms: C3_3  and  N1_4 
REMARK       I    between atoms: N1_4  and  C4_5 
REMARK    3  A    between atoms: C4_5  and  C5_7 
REMARK    4  A    between atoms: C6_8  and  C7_9 
REMARK    5  A    between atoms: C7_9  and  N2_10 
REMARK    6  A    between atoms: N2_10  and  C8_11 
REMARK    7  A    between atoms: N2_10  and  C11_14 
REMARK    8  A    between atoms: C17_22  and  N5_23 
REMARK    9  A    between atoms: N5_23  and  C18_24 
ROOT
HETATM    1  C3  UNL     1      24.094   2.793  50.102  1.00  0.00     0.024 C 
HETATM    2  C14 UNL     1      23.668   2.040  51.067  1.00  0.00     0.030 A 
HETATM    3  C15 UNL     1      22.353   1.377  51.057  1.00  0.00     0.194 A 
HETATM    4  N3  UNL     1      22.050   0.682  52.252  1.00  0.00    -0.278 NA
HETATM    5  C16 UNL     1      22.765   0.481  53.257  1.00  0.00     0.229 A 
HETATM    6  N4  UNL     1      24.101   1.001  53.312  1.00  0.00    -0.224 NA
HETATM    7  C17 UNL     1      24.439   1.698  52.254  1.00  0.00     0.139 A 
ENDROOT
BRANCH   1   8
HETATM    8  C2  UNL     1      23.053   2.836  49.007  1.00  0.00     0.053 C 
HETATM    9  C1  UNL     1      22.944   4.239  48.423  1.00  0.00     0.011 C 
ENDBRANCH   1   8
BRANCH   1  10
HETATM   10  N1  UNL     1      24.932   3.786  49.574  1.00  0.00    -0.319 N 
HETATM   11  C4  UNL     1      26.326   4.018  49.559  1.00  0.00     0.300 C 
HETATM   12  O1  UNL     1      27.184   3.302  50.116  1.00  0.00    -0.258 OA
HETATM   13  H6  UNL     1      24.574   4.610  49.003  1.00  0.00     0.169 HD
BRANCH  11  14
HETATM   14  C5  UNL     1      26.992   5.102  48.910  1.00  0.00    -0.004 C 
HETATM   15  C6  UNL     1      27.566   5.995  48.363  1.00  0.00    -0.066 C 
BRANCH  15  16
HETATM   16  C7  UNL     1      28.242   7.095  47.688  1.00  0.00     0.367 C 
BRANCH  16  17
HETATM   17  N2  UNL     1      27.399   8.277  47.951  1.00  0.00     0.107 N 
BRANCH  17  18
HETATM   18  C8  UNL     1      27.967   9.096  48.951  1.00  0.00     0.216 C 
HETATM   19  C9  UNL     1      27.324   9.204  50.277  1.00  0.00     0.042 C 
HETATM   20  C10 UNL     1      29.463   8.788  49.061  1.00  0.00     0.042 C 
ENDBRANCH  17  18
BRANCH  17  21
HETATM   21  C11 UNL     1      27.092   8.894  46.683  1.00  0.00     0.216 C 
HETATM   22  C12 UNL     1      28.207   8.422  45.725  1.00  0.00     0.042 C 
HETATM   23  C13 UNL     1      25.830   8.421  46.058  1.00  0.00     0.042 C 
ENDBRANCH  17  21
ENDBRANCH  16  17
ENDBRANCH  15  16
ENDBRANCH  11  14
ENDBRANCH   1  10
BRANCH   7  24
HETATM   24  N5  UNL     1      25.818   2.026  52.355  1.00  0.00    -0.340 N 
HETATM   25  H26 UNL     1      26.078   2.976  51.910  1.00  0.00     0.167 HD
BRANCH  24  26
HETATM   26  C18 UNL     1      26.941   1.365  52.902  1.00  0.00     0.035 A 
HETATM   27  C19 UNL     1      28.036   1.835  53.594  1.00  0.00     0.032 A 
HETATM   28  C20 UNL     1      29.042   0.988  54.002  1.00  0.00     0.046 A 
HETATM   29  C21 UNL     1      28.995  -0.360  53.736  1.00  0.00     0.138 A 
HETATM   30  F1  UNL     1      29.979  -1.202  54.130  1.00  0.00    -0.204 F 
HETATM   31  C22 UNL     1      27.924  -0.851  53.053  1.00  0.00     0.074 A 
HETATM   32 CL1  UNL     1      27.876  -2.582  52.709  1.00  0.00    -0.081 Cl
HETATM   33  C23 UNL     1      26.912  -0.014  52.640  1.00  0.00     0.056 A 
ENDBRANCH  24  26
ENDBRANCH   7  24
TORSDOF 9
ENDMDL
MODEL 5
REMARK VINA RESULT:      -7.7      2.976      4.719
REMARK  9 active torsions:
REMARK  status: ('A' for Active; 'I' for Inactive)
REMARK    1  A    between atoms: C2_2  and  C3_3 
REMARK    2  A    between atoms: C3_3  and  N1_4 
REMARK       I    between atoms: N1_4  and  C4_5 
REMARK    3  A    between atoms: C4_5  and  C5_7 
REMARK    4  A    between atoms: C6_8  and  C7_9 
REMARK    5  A    between atoms: C7_9  and  N2_10 
REMARK    6  A    between atoms: N2_10  and  C8_11 
REMARK    7  A    between atoms: N2_10  and  C11_14 
REMARK    8  A    between atoms: C17_22  and  N5_23 
REMARK    9  A    between atoms: N5_23  and  C18_24 
ROOT
HETATM    1  C3  UNL     1      26.058   2.047  52.352  1.00  0.00     0.024 C 
HETATM    2  C14 UNL     1      25.178   1.242  52.862  1.00  0.00     0.030 A 
HETATM    3  C15 UNL     1      25.530  -0.008  53.556  1.00  0.00     0.194 A 
HETATM    4  N3  UNL     1      24.413  -0.784  53.948  1.00  0.00    -0.278 NA
HETATM    5  C16 UNL     1      23.195  -0.517  53.869  1.00  0.00     0.229 A 
HETATM    6  N4  UNL     1      22.760   0.727  53.301  1.00  0.00    -0.224 NA
HETATM    7  C17 UNL     1      23.742   1.483  52.872  1.00  0.00     0.139 A 
ENDROOT
BRANCH   1   8
HETATM    8  C2  UNL     1      27.443   1.504  52.618  1.00  0.00     0.053 C 
HETATM    9  C1  UNL     1      28.272   2.507  53.408  1.00  0.00     0.011 C 
ENDBRANCH   1   8
BRANCH   1  10
HETATM   10  N1  UNL     1      26.447   3.080  51.488  1.00  0.00    -0.319 N 
HETATM   11  C4  UNL     1      26.578   3.221  50.088  1.00  0.00     0.300 C 
HETATM   12  O1  UNL     1      26.374   2.318  49.249  1.00  0.00    -0.258 OA
HETATM   13  H6  UNL     1      26.711   4.055  51.824  1.00  0.00     0.169 HD
BRANCH  11  14
HETATM   14  C5  UNL     1      26.962   4.407  49.392  1.00  0.00    -0.004 C 
HETATM   15  C6  UNL     1      27.297   5.403  48.825  1.00  0.00    -0.066 C 
BRANCH  15  16
HETATM   16  C7  UNL     1      27.702   6.607  48.111  1.00  0.00     0.367 C 
BRANCH  16  17
HETATM   17  N2  UNL     1      26.588   7.556  48.306  1.00  0.00     0.107 N 
BRANCH  17  18
HETATM   18  C8  UNL     1      26.592   8.084  49.615  1.00  0.00     0.216 C 
HETATM   19  C9  UNL     1      27.559   9.138  49.988  1.00  0.00     0.042 C 
HETATM   20  C10 UNL     1      25.160   8.452  50.011  1.00  0.00     0.042 C 
ENDBRANCH  17  18
BRANCH  17  21
HETATM   21  C11 UNL     1      26.609   8.495  47.210  1.00  0.00     0.216 C 
HETATM   22  C12 UNL     1      27.906   8.180  46.434  1.00  0.00     0.042 C 
HETATM   23  C13 UNL     1      25.518   8.307  46.219  1.00  0.00     0.042 C 
ENDBRANCH  17  21
ENDBRANCH  16  17
ENDBRANCH  15  16
ENDBRANCH  11  14
ENDBRANCH   1  10
BRANCH   7  24
HETATM   24  N5  UNL     1      23.203   2.737  52.478  1.00  0.00    -0.340 N 
HETATM   25  H26 UNL     1      22.681   3.258  53.269  1.00  0.00     0.167 HD
BRANCH  24  26
HETATM   26  C18 UNL     1      23.183   3.452  51.260  1.00  0.00     0.035 A 
HETATM   27  C19 UNL     1      23.307   4.796  50.983  1.00  0.00     0.032 A 
HETATM   28  C20 UNL     1      23.216   5.272  49.693  1.00  0.00     0.046 A 
HETATM   29  C21 UNL     1      23.000   4.426  48.632  1.00  0.00     0.138 A 
HETATM   30  F1  UNL     1      22.907   4.881  47.361  1.00  0.00    -0.204 F 
HETATM   31  C22 UNL     1      22.875   3.091  48.878  1.00  0.00     0.074 A 
HETATM   32 CL1  UNL     1      22.590   2.014  47.509  1.00  0.00    -0.081 Cl
HETATM   33  C23 UNL     1      22.963   2.604  50.162  1.00  0.00     0.056 A 
ENDBRANCH  24  26
ENDBRANCH   7  24
TORSDOF 9
ENDMDL
MODEL 6
REMARK VINA RESULT:      -7.5      3.133      5.016
REMARK  9 active torsions:
REMARK  status: ('A' for Active; 'I' for Inactive)
REMARK    1  A    between atoms: C2_2  and  C3_3 
REMARK    2  A    between atoms: C3_3  and  N1_4 
REMARK       I    between atoms: N1_4  and  C4_5 
REMARK    3  A    between atoms: C4_5  and  C5_7 
REMARK    4  A    between atoms: C6_8  and  C7_9 
REMARK    5  A    between atoms: C7_9  and  N2_10 
REMARK    6  A    between atoms: N2_10  and  C8_11 
REMARK    7  A    between atoms: N2_10  and  C11_14 
REMARK    8  A    between atoms: C17_22  and  N5_23 
REMARK    9  A    between atoms: N5_23  and  C18_24 
ROOT
HETATM    1  C3  UNL     1      26.199   2.251  52.216  1.00  0.00     0.024 C 
HETATM    2  C14 UNL     1      25.306   1.465  52.732  1.00  0.00     0.030 A 
HETATM    3  C15 UNL     1      25.637   0.219  53.442  1.00  0.00     0.194 A 
HETATM    4  N3  UNL     1      24.507  -0.536  53.839  1.00  0.00    -0.278 NA
HETATM    5  C16 UNL     1      23.293  -0.253  53.752  1.00  0.00     0.229 A 
HETATM    6  N4  UNL     1      22.879   0.991  53.168  1.00  0.00    -0.224 NA
HETATM    7  C17 UNL     1      23.874   1.727  52.734  1.00  0.00     0.139 A 
ENDROOT
BRANCH   1   8
HETATM    8  C2  UNL     1      27.575   1.691  52.494  1.00  0.00     0.053 C 
HETATM    9  C1  UNL     1      28.323   2.569  53.488  1.00  0.00     0.011 C 
ENDBRANCH   1   8
BRANCH   1  10
HETATM   10  N1  UNL     1      26.607   3.269  51.342  1.00  0.00    -0.319 N 
HETATM   11  C4  UNL     1      26.662   3.422  49.938  1.00  0.00     0.300 C 
HETATM   12  O1  UNL     1      26.345   2.549  49.103  1.00  0.00    -0.258 OA
HETATM   13  H6  UNL     1      26.959   4.217  51.672  1.00  0.00     0.169 HD
BRANCH  11  14
HETATM   14  C5  UNL     1      27.086   4.589  49.234  1.00  0.00    -0.004 C 
HETATM   15  C6  UNL     1      27.435   5.557  48.627  1.00  0.00    -0.066 C 
BRANCH  15  16
HETATM   16  C7  UNL     1      27.853   6.752  47.907  1.00  0.00     0.367 C 
BRANCH  16  17
HETATM   17  N2  UNL     1      28.754   7.460  48.837  1.00  0.00     0.107 N 
BRANCH  17  18
HETATM   18  C8  UNL     1      30.107   7.261  48.486  1.00  0.00     0.216 C 
HETATM   19  C9  UNL     1      30.485   7.050  47.073  1.00  0.00     0.042 C 
HETATM   20  C10 UNL     1      30.962   8.341  49.154  1.00  0.00     0.042 C 
ENDBRANCH  17  18
BRANCH  17  21
HETATM   21  C11 UNL     1      28.291   8.822  48.953  1.00  0.00     0.216 C 
HETATM   22  C12 UNL     1      27.449   9.071  47.683  1.00  0.00     0.042 C 
HETATM   23  C13 UNL     1      27.354   9.060  50.081  1.00  0.00     0.042 C 
ENDBRANCH  17  21
ENDBRANCH  16  17
ENDBRANCH  15  16
ENDBRANCH  11  14
ENDBRANCH   1  10
BRANCH   7  24
HETATM   24  N5  UNL     1      23.354   2.985  52.323  1.00  0.00    -0.340 N 
HETATM   25  H26 UNL     1      22.914   3.561  53.125  1.00  0.00     0.167 HD
BRANCH  24  26
HETATM   26  C18 UNL     1      23.270   3.647  51.078  1.00  0.00     0.035 A 
HETATM   27  C19 UNL     1      22.973   3.189  49.814  1.00  0.00     0.032 A 
HETATM   28  C20 UNL     1      22.989   4.033  48.725  1.00  0.00     0.046 A 
HETATM   29  C21 UNL     1      23.303   5.365  48.856  1.00  0.00     0.138 A 
HETATM   30  F1  UNL     1      23.325   6.203  47.794  1.00  0.00    -0.204 F 
HETATM   31  C22 UNL     1      23.602   5.843  50.096  1.00  0.00     0.074 A 
HETATM   32 CL1  UNL     1      24.011   7.553  50.254  1.00  0.00    -0.081 Cl
HETATM   33  C23 UNL     1      23.589   5.010  51.192  1.00  0.00     0.056 A 
ENDBRANCH  24  26
ENDBRANCH   7  24
TORSDOF 9
ENDMDL
MODEL 7
REMARK VINA RESULT:      -7.3      3.471      5.416
REMARK  9 active torsions:
REMARK  status: ('A' for Active; 'I' for Inactive)
REMARK    1  A    between atoms: C2_2  and  C3_3 
REMARK    2  A    between atoms: C3_3  and  N1_4 
REMARK       I    between atoms: N1_4  and  C4_5 
REMARK    3  A    between atoms: C4_5  and  C5_7 
REMARK    4  A    between atoms: C6_8  and  C7_9 
REMARK    5  A    between atoms: C7_9  and  N2_10 
REMARK    6  A    between atoms: N2_10  and  C8_11 
REMARK    7  A    between atoms: N2_10  and  C11_14 
REMARK    8  A    between atoms: C17_22  and  N5_23 
REMARK    9  A    between atoms: N5_23  and  C18_24 
ROOT
HETATM    1  C3  UNL     1      24.425   0.789  53.056  1.00  0.00     0.024 C 
HETATM    2  C14 UNL     1      23.426   0.115  53.534  1.00  0.00     0.030 A 
HETATM    3  C15 UNL     1      23.575  -0.949  54.542  1.00  0.00     0.194 A 
HETATM    4  N3  UNL     1      22.369  -1.621  54.852  1.00  0.00    -0.278 NA
HETATM    5  C16 UNL     1      21.205  -1.383  54.466  1.00  0.00     0.229 A 
HETATM    6  N4  UNL     1      20.949  -0.296  53.563  1.00  0.00    -0.224 NA
HETATM    7  C17 UNL     1      22.030   0.348  53.194  1.00  0.00     0.139 A 
ENDROOT
BRANCH   1   8
HETATM    8  C2  UNL     1      25.702   0.323  53.716  1.00  0.00     0.053 C 
HETATM    9  C1  UNL     1      26.714  -0.127  52.670  1.00  0.00     0.011 C 
ENDBRANCH   1   8
BRANCH   1  10
HETATM   10  N1  UNL     1      25.026   1.606  52.088  1.00  0.00    -0.319 N 
HETATM   11  C4  UNL     1      24.825   2.926  51.624  1.00  0.00     0.300 C 
HETATM   12  O1  UNL     1      23.933   3.704  52.023  1.00  0.00    -0.258 OA
HETATM   13  H6  UNL     1      25.861   1.301  51.502  1.00  0.00     0.169 HD
BRANCH  11  14
HETATM   14  C5  UNL     1      25.599   3.596  50.629  1.00  0.00    -0.004 C 
HETATM   15  C6  UNL     1      26.235   4.148  49.782  1.00  0.00    -0.066 C 
BRANCH  15  16
HETATM   16  C7  UNL     1      27.013   4.841  48.764  1.00  0.00     0.367 C 
BRANCH  16  17
HETATM   17  N2  UNL     1      26.768   6.275  49.011  1.00  0.00     0.107 N 
BRANCH  17  18
HETATM   18  C8  UNL     1      27.754   7.075  48.394  1.00  0.00     0.216 C 
HETATM   19  C9  UNL     1      28.210   8.323  49.040  1.00  0.00     0.042 C 
HETATM   20  C10 UNL     1      28.926   6.186  47.968  1.00  0.00     0.042 C 
ENDBRANCH  17  18
BRANCH  17  21
HETATM   21  C11 UNL     1      25.389   6.552  48.686  1.00  0.00     0.216 C 
HETATM   22  C12 UNL     1      24.860   7.401  49.863  1.00  0.00     0.042 C 
HETATM   23  C13 UNL     1      25.199   7.407  47.486  1.00  0.00     0.042 C 
ENDBRANCH  17  21
ENDBRANCH  16  17
ENDBRANCH  15  16
ENDBRANCH  11  14
ENDBRANCH   1  10
BRANCH   7  24
HETATM   24  N5  UNL     1      21.637   1.482  52.433  1.00  0.00    -0.340 N 
HETATM   25  H26 UNL     1      21.537   2.388  53.015  1.00  0.00     0.167 HD
BRANCH  24  26
HETATM   26  C18 UNL     1      21.326   1.683  51.069  1.00  0.00     0.035 A 
HETATM   27  C19 UNL     1      21.663   0.975  49.937  1.00  0.00     0.032 A 
HETATM   28  C20 UNL     1      21.267   1.394  48.686  1.00  0.00     0.046 A 
HETATM   29  C21 UNL     1      20.519   2.534  48.517  1.00  0.00     0.138 A 
HETATM   30  F1  UNL     1      20.125   2.958  47.293  1.00  0.00    -0.204 F 
HETATM   31  C22 UNL     1      20.172   3.254  49.621  1.00  0.00     0.074 A 
HETATM   32 CL1  UNL     1      19.218   4.722  49.393  1.00  0.00    -0.081 Cl
HETATM   33  C23 UNL     1      20.563   2.846  50.876  1.00  0.00     0.056 A 
ENDBRANCH  24  26
ENDBRANCH   7  24
TORSDOF 9
ENDMDL
MODEL 8
REMARK VINA RESULT:      -7.2      4.124      8.226
REMARK  9 active torsions:
REMARK  status: ('A' for Active; 'I' for Inactive)
REMARK    1  A    between atoms: C2_2  and  C3_3 
REMARK    2  A    between atoms: C3_3  and  N1_4 
REMARK       I    between atoms: N1_4  and  C4_5 
REMARK    3  A    between atoms: C4_5  and  C5_7 
REMARK    4  A    between atoms: C6_8  and  C7_9 
REMARK    5  A    between atoms: C7_9  and  N2_10 
REMARK    6  A    between atoms: N2_10  and  C8_11 
REMARK    7  A    between atoms: N2_10  and  C11_14 
REMARK    8  A    between atoms: C17_22  and  N5_23 
REMARK    9  A    between atoms: N5_23  and  C18_24 
ROOT
HETATM    1  C3  UNL     1      23.295   0.179  53.243  1.00  0.00     0.024 C 
HETATM    2  C14 UNL     1      24.588   0.146  53.322  1.00  0.00     0.030 A 
HETATM    3  C15 UNL     1      25.323  -0.800  54.179  1.00  0.00     0.194 A 
HETATM    4  N3  UNL     1      26.724  -0.598  54.189  1.00  0.00    -0.278 NA
HETATM    5  C16 UNL     1      27.418   0.195  53.515  1.00  0.00     0.229 A 
HETATM    6  N4  UNL     1      26.795   1.084  52.576  1.00  0.00    -0.224 NA
HETATM    7  C17 UNL     1      25.488   0.985  52.543  1.00  0.00     0.139 A 
ENDROOT
BRANCH   1   8
HETATM    8  C2  UNL     1      22.714  -0.901  54.127  1.00  0.00     0.053 C 
HETATM    9  C1  UNL     1      21.476  -0.392  54.854  1.00  0.00     0.011 C 
ENDBRANCH   1   8
BRANCH   1  10
HETATM   10  N1  UNL     1      22.081   0.810  52.933  1.00  0.00    -0.319 N 
HETATM   11  C4  UNL     1      21.454   1.248  51.745  1.00  0.00     0.300 C 
HETATM   12  O1  UNL     1      21.944   1.173  50.598  1.00  0.00    -0.258 OA
HETATM   13  H6  UNL     1      21.347   1.057  53.663  1.00  0.00     0.169 HD
BRANCH  11  14
HETATM   14  C5  UNL     1      20.162   1.848  51.646  1.00  0.00    -0.004 C 
HETATM   15  C6  UNL     1      19.080   2.344  51.544  1.00  0.00    -0.066 C 
BRANCH  15  16
HETATM   16  C7  UNL     1      17.756   2.942  51.443  1.00  0.00     0.367 C 
BRANCH  16  17
HETATM   17  N2  UNL     1      16.838   1.801  51.253  1.00  0.00     0.107 N 
BRANCH  17  18
HETATM   18  C8  UNL     1      15.552   2.092  51.754  1.00  0.00     0.216 C 
HETATM   19  C9  UNL     1      14.881   1.148  52.672  1.00  0.00     0.042 C 
HETATM   20  C10 UNL     1      15.536   3.525  52.293  1.00  0.00     0.042 C 
ENDBRANCH  17  18
BRANCH  17  21
HETATM   21  C11 UNL     1      16.935   1.380  49.875  1.00  0.00     0.216 C 
HETATM   22  C12 UNL     1      16.980  -0.163  49.928  1.00  0.00     0.042 C 
HETATM   23  C13 UNL     1      15.741   1.696  49.050  1.00  0.00     0.042 C 
ENDBRANCH  17  21
ENDBRANCH  16  17
ENDBRANCH  15  16
ENDBRANCH  11  14
ENDBRANCH   1  10
BRANCH   7  24
HETATM   24  N5  UNL     1      25.005   1.794  51.479  1.00  0.00    -0.340 N 
HETATM   25  H26 UNL     1      24.818   1.249  50.564  1.00  0.00     0.167 HD
BRANCH  24  26
HETATM   26  C18 UNL     1      24.728   3.173  51.349  1.00  0.00     0.035 A 
HETATM   27  C19 UNL     1      23.837   3.996  52.002  1.00  0.00     0.032 A 
HETATM   28  C20 UNL     1      23.718   5.328  51.670  1.00  0.00     0.046 A 
HETATM   29  C21 UNL     1      24.483   5.889  50.675  1.00  0.00     0.138 A 
HETATM   30  F1  UNL     1      24.372   7.195  50.338  1.00  0.00    -0.204 F 
HETATM   31  C22 UNL     1      25.371   5.097  50.013  1.00  0.00     0.074 A 
HETATM   32 CL1  UNL     1      26.343   5.824  48.731  1.00  0.00    -0.081 Cl
HETATM   33  C23 UNL     1      25.499   3.765  50.335  1.00  0.00     0.056 A 
ENDBRANCH  24  26
ENDBRANCH   7  24
TORSDOF 9
ENDMDL
MODEL 9
REMARK VINA RESULT:      -6.9      3.701      5.702
REMARK  9 active torsions:
REMARK  status: ('A' for Active; 'I' for Inactive)
REMARK    1  A    between atoms: C2_2  and  C3_3 
REMARK    2  A    between atoms: C3_3  and  N1_4 
REMARK       I    between atoms: N1_4  and  C4_5 
REMARK    3  A    between atoms: C4_5  and  C5_7 
REMARK    4  A    between atoms: C6_8  and  C7_9 
REMARK    5  A    between atoms: C7_9  and  N2_10 
REMARK    6  A    between atoms: N2_10  and  C8_11 
REMARK    7  A    between atoms: N2_10  and  C11_14 
REMARK    8  A    between atoms: C17_22  and  N5_23 
REMARK    9  A    between atoms: N5_23  and  C18_24 
ROOT
HETATM    1  C3  UNL     1      26.527   2.070  52.200  1.00  0.00     0.024 C 
HETATM    2  C14 UNL     1      25.609   1.310  52.711  1.00  0.00     0.030 A 
HETATM    3  C15 UNL     1      25.902   0.135  53.547  1.00  0.00     0.194 A 
HETATM    4  N3  UNL     1      24.756  -0.608  53.918  1.00  0.00    -0.278 NA
HETATM    5  C16 UNL     1      23.548  -0.359  53.715  1.00  0.00     0.229 A 
HETATM    6  N4  UNL     1      23.162   0.823  52.998  1.00  0.00    -0.224 NA
HETATM    7  C17 UNL     1      24.176   1.541  52.581  1.00  0.00     0.139 A 
ENDROOT
BRANCH   1   8
HETATM    8  C2  UNL     1      27.886   1.564  52.629  1.00  0.00     0.053 C 
HETATM    9  C1  UNL     1      28.565   2.565  53.554  1.00  0.00     0.011 C 
ENDBRANCH   1   8
BRANCH   1  10
HETATM   10  N1  UNL     1      26.987   3.019  51.276  1.00  0.00    -0.319 N 
HETATM   11  C4  UNL     1      26.526   3.517  50.037  1.00  0.00     0.300 C 
HETATM   12  O1  UNL     1      25.501   3.128  49.437  1.00  0.00    -0.258 OA
HETATM   13  H6  UNL     1      27.867   3.600  51.423  1.00  0.00     0.169 HD
BRANCH  11  14
HETATM   14  C5  UNL     1      27.143   4.543  49.259  1.00  0.00    -0.004 C 
HETATM   15  C6  UNL     1      27.644   5.413  48.611  1.00  0.00    -0.066 C 
BRANCH  15  16
HETATM   16  C7  UNL     1      28.277   6.467  47.830  1.00  0.00     0.367 C 
BRANCH  16  17
HETATM   17  N2  UNL     1      29.515   6.791  48.565  1.00  0.00     0.107 N 
BRANCH  17  18
HETATM   18  C8  UNL     1      30.570   5.930  48.192  1.00  0.00     0.216 C 
HETATM   19  C9  UNL     1      31.357   6.203  46.972  1.00  0.00     0.042 C 
HETATM   20  C10 UNL     1      31.465   5.678  49.409  1.00  0.00     0.042 C 
ENDBRANCH  17  18
BRANCH  17  21
HETATM   21  C11 UNL     1      29.743   8.211  48.445  1.00  0.00     0.216 C 
HETATM   22  C12 UNL     1      28.403   8.869  48.840  1.00  0.00     0.042 C 
HETATM   23  C13 UNL     1      30.733   8.759  49.408  1.00  0.00     0.042 C 
ENDBRANCH  17  21
ENDBRANCH  16  17
ENDBRANCH  15  16
ENDBRANCH  11  14
ENDBRANCH   1  10
BRANCH   7  24
HETATM   24  N5  UNL     1      23.672   2.748  52.026  1.00  0.00    -0.340 N 
HETATM   25  H26 UNL     1      24.403   3.542  51.965  1.00  0.00     0.167 HD
BRANCH  24  26
HETATM   26  C18 UNL     1      22.404   3.149  51.549  1.00  0.00     0.035 A 
HETATM   27  C19 UNL     1      21.392   3.877  52.133  1.00  0.00     0.032 A 
HETATM   28  C20 UNL     1      20.207   4.114  51.472  1.00  0.00     0.046 A 
HETATM   29  C21 UNL     1      19.987   3.633  50.203  1.00  0.00     0.138 A 
HETATM   30  F1  UNL     1      18.826   3.856  49.544  1.00  0.00    -0.204 F 
HETATM   31  C22 UNL     1      20.972   2.909  49.602  1.00  0.00     0.074 A 
HETATM   32 CL1  UNL     1      20.677   2.289  47.976  1.00  0.00    -0.081 Cl
HETATM   33  C23 UNL     1      22.160   2.665  50.253  1.00  0.00     0.056 A 
ENDBRANCH  24  26
ENDBRANCH   7  24
TORSDOF 9
ENDMDL
