MODEL 1
REMARK VINA RESULT:      -8.2      0.000      0.000
REMARK  1 active torsions:
REMARK  status: ('A' for Active; 'I' for Inactive)
REMARK    1  A    between atoms: C9_11  and  C10_12 
ROOT
HETATM    1  F1  UNL     1      29.648  -0.618  53.414  1.00  0.00    -0.210 F 
HETATM    2  C1  UNL     1      28.458  -0.144  53.727  1.00  0.00     0.105 A 
HETATM    3  C2  UNL     1      27.316   0.583  54.418  1.00  0.00     0.030 A 
HETATM    4  C3  UNL     1      26.097   0.192  53.567  1.00  0.00     0.047 A 
HETATM    5  C4  UNL     1      25.104  -0.568  53.462  1.00  0.00     0.018 A 
HETATM    6  C5  UNL     1      26.339  -1.486  52.719  1.00  0.00     0.018 A 
HETATM    7  C6  UNL     1      27.352  -0.544  52.904  1.00  0.00     0.057 A 
HETATM    8  C7  UNL     1      26.626   0.664  52.177  1.00  0.00     0.050 A 
HETATM    9  C8  UNL     1      27.397   1.875  52.179  1.00  0.00     0.178 C 
HETATM   10  O1  UNL     1      26.682   2.945  51.721  1.00  0.00    -0.360 OA
HETATM   11  C9  UNL     1      26.197   2.880  50.442  1.00  0.00     0.285 C 
HETATM   12  N2  UNL     1      24.771   3.161  50.484  1.00  0.00    -0.264 NA
HETATM   13  C11 UNL     1      23.967   2.323  50.982  1.00  0.00     0.127 C 
HETATM   14  C12 UNL     1      22.540   2.429  51.108  1.00  0.00     0.235 C 
HETATM   15  N3  UNL     1      21.452   1.872  51.509  1.00  0.00    -0.277 NA
HETATM   16  C13 UNL     1      21.650   0.567  52.112  1.00  0.00     0.168 C 
HETATM   17  N4  UNL     1      22.420   0.665  53.140  1.00  0.00    -0.272 NA
HETATM   18  C14 UNL     1      22.748  -0.500  53.886  1.00  0.00     0.270 C 
HETATM   19  N5  UNL     1      23.893  -1.227  53.464  1.00  0.00    -0.374 N 
HETATM   20  H13 UNL     1      23.728  -2.214  53.195  1.00  0.00     0.161 HD
ENDROOT
BRANCH  11  21
HETATM   21  C10 UNL     1      26.814   3.965  49.585  1.00  0.00     0.151 C 
HETATM   22  N1  UNL     1      26.165   5.092  49.595  1.00  0.00    -0.227 NA
HETATM   23  I1  UNL     1      26.765   6.737  48.531  1.00  0.00     0.083 I 
ENDBRANCH  11  21
TORSDOF 1
ENDMDL
MODEL 2
REMARK VINA RESULT:      -8.0      3.314      5.202
REMARK  1 active torsions:
REMARK  status: ('A' for Active; 'I' for Inactive)
REMARK    1  A    between atoms: C9_11  and  C10_12 
ROOT
HETATM    1  F1  UNL     1      26.444  -0.520  55.497  1.00  0.00    -0.210 F 
HETATM    2  C1  UNL     1      26.279  -0.238  54.219  1.00  0.00     0.105 A 
HETATM    3  C2  UNL     1      26.191  -0.339  52.706  1.00  0.00     0.030 A 
HETATM    4  C3  UNL     1      25.855   1.101  52.285  1.00  0.00     0.047 A 
HETATM    5  C4  UNL     1      26.306   2.188  51.850  1.00  0.00     0.018 A 
HETATM    6  C5  UNL     1      26.500   2.369  53.538  1.00  0.00     0.018 A 
HETATM    7  C6  UNL     1      25.973   1.123  53.880  1.00  0.00     0.057 A 
HETATM    8  C7  UNL     1      24.574   1.301  53.154  1.00  0.00     0.050 A 
HETATM    9  C8  UNL     1      23.718   0.155  53.278  1.00  0.00     0.178 C 
HETATM   10  O1  UNL     1      22.605   0.252  52.493  1.00  0.00    -0.360 OA
HETATM   11  C9  UNL     1      21.760   1.305  52.721  1.00  0.00     0.285 C 
HETATM   12  N2  UNL     1      21.542   1.992  51.458  1.00  0.00    -0.264 NA
HETATM   13  C11 UNL     1      22.469   2.667  50.928  1.00  0.00     0.127 C 
HETATM   14  C12 UNL     1      22.436   3.405  49.695  1.00  0.00     0.235 C 
HETATM   15  N3  UNL     1      23.085   4.151  48.872  1.00  0.00    -0.277 NA
HETATM   16  C13 UNL     1      24.452   4.417  49.275  1.00  0.00     0.168 C 
HETATM   17  N4  UNL     1      25.109   3.314  49.375  1.00  0.00    -0.272 NA
HETATM   18  C14 UNL     1      26.478   3.344  49.760  1.00  0.00     0.270 C 
HETATM   19  N5  UNL     1      26.751   3.291  51.153  1.00  0.00    -0.374 N 
HETATM   20  H13 UNL     1      27.279   4.094  51.541  1.00  0.00     0.161 HD
ENDROOT
BRANCH  11  21
HETATM   21  C10 UNL     1      20.402   0.808  53.169  1.00  0.00     0.151 C 
HETATM   22  N1  UNL     1      19.807   0.029  52.314  1.00  0.00    -0.227 NA
HETATM   23  I1  UNL     1      17.959  -0.793  52.650  1.00  0.00     0.083 I 
ENDBRANCH  11  21
TORSDOF 1
ENDMDL
MODEL 3
REMARK VINA RESULT:      -7.8      3.445      5.461
REMARK  1 active torsions:
REMARK  status: ('A' for Active; 'I' for Inactive)
REMARK    1  A    between atoms: C9_11  and  C10_12 
ROOT
HETATM    1  F1  UNL     1      20.552  -2.378  54.207  1.00  0.00    -0.210 F 
HETATM    2  C1  UNL     1      20.873  -1.098  54.192  1.00  0.00     0.105 A 
HETATM    3  C2  UNL     1      21.198   0.325  54.610  1.00  0.00     0.030 A 
HETATM    4  C3  UNL     1      21.424   1.035  53.265  1.00  0.00     0.047 A 
HETATM    5  C4  UNL     1      20.920   1.766  52.379  1.00  0.00     0.018 A 
HETATM    6  C5  UNL     1      20.456   0.206  51.861  1.00  0.00     0.018 A 
HETATM    7  C6  UNL     1      21.067  -0.483  52.910  1.00  0.00     0.057 A 
HETATM    8  C7  UNL     1      22.528   0.092  52.692  1.00  0.00     0.050 A 
HETATM    9  C8  UNL     1      23.483  -0.403  53.643  1.00  0.00     0.178 C 
HETATM   10  O1  UNL     1      24.683   0.244  53.559  1.00  0.00    -0.360 OA
HETATM   11  C9  UNL     1      25.356   0.176  52.369  1.00  0.00     0.285 C 
HETATM   12  N2  UNL     1      25.680   1.531  51.952  1.00  0.00    -0.264 NA
HETATM   13  C11 UNL     1      24.770   2.313  51.555  1.00  0.00     0.127 C 
HETATM   14  C12 UNL     1      24.902   3.673  51.110  1.00  0.00     0.235 C 
HETATM   15  N3  UNL     1      24.303   4.722  50.669  1.00  0.00    -0.277 NA
HETATM   16  C13 UNL     1      22.868   4.560  50.524  1.00  0.00     0.168 C 
HETATM   17  N4  UNL     1      22.336   4.278  51.663  1.00  0.00    -0.272 NA
HETATM   18  C14 UNL     1      20.931   4.077  51.751  1.00  0.00     0.270 C 
HETATM   19  N5  UNL     1      20.461   2.755  51.535  1.00  0.00    -0.374 N 
HETATM   20  H13 UNL     1      19.791   2.635  50.753  1.00  0.00     0.161 HD
ENDROOT
BRANCH  11  21
HETATM   21  C10 UNL     1      26.680  -0.536  52.549  1.00  0.00     0.151 C 
HETATM   22  N1  UNL     1      27.550   0.120  53.258  1.00  0.00    -0.227 NA
HETATM   23  I1  UNL     1      29.426  -0.596  53.668  1.00  0.00     0.083 I 
ENDBRANCH  11  21
TORSDOF 1
ENDMDL
MODEL 4
REMARK VINA RESULT:      -7.6      3.632      5.393
REMARK  1 active torsions:
REMARK  status: ('A' for Active; 'I' for Inactive)
REMARK    1  A    between atoms: C9_11  and  C10_12 
ROOT
HETATM    1  F1  UNL     1      24.255   5.181  49.693  1.00  0.00    -0.210 F 
HETATM    2  C1  UNL     1      23.700   4.002  49.902  1.00  0.00     0.105 A 
HETATM    3  C2  UNL     1      23.175   2.589  49.721  1.00  0.00     0.030 A 
HETATM    4  C3  UNL     1      22.548   2.277  51.089  1.00  0.00     0.047 A 
HETATM    5  C4  UNL     1      21.488   2.226  51.759  1.00  0.00     0.018 A 
HETATM    6  C5  UNL     1      21.968   3.852  51.972  1.00  0.00     0.018 A 
HETATM    7  C6  UNL     1      23.124   3.766  51.195  1.00  0.00     0.057 A 
HETATM    8  C7  UNL     1      23.795   2.565  51.983  1.00  0.00     0.050 A 
HETATM    9  C8  UNL     1      25.061   2.162  51.438  1.00  0.00     0.178 C 
HETATM   10  O1  UNL     1      25.530   1.013  52.008  1.00  0.00    -0.360 OA
HETATM   11  C9  UNL     1      25.754   1.023  53.358  1.00  0.00     0.285 C 
HETATM   12  N2  UNL     1      25.049  -0.106  53.944  1.00  0.00    -0.264 NA
HETATM   13  C11 UNL     1      23.787  -0.107  54.011  1.00  0.00     0.127 C 
HETATM   14  C12 UNL     1      22.929  -1.126  54.550  1.00  0.00     0.235 C 
HETATM   15  N3  UNL     1      21.721  -1.496  54.791  1.00  0.00    -0.277 NA
HETATM   16  C13 UNL     1      20.719  -0.535  54.371  1.00  0.00     0.168 C 
HETATM   17  N4  UNL     1      20.801  -0.333  53.102  1.00  0.00    -0.272 NA
HETATM   18  C14 UNL     1      19.906   0.578  52.477  1.00  0.00     0.270 C 
HETATM   19  N5  UNL     1      20.314   1.937  52.421  1.00  0.00    -0.374 N 
HETATM   20  H13 UNL     1      19.683   2.618  52.883  1.00  0.00     0.161 HD
ENDROOT
BRANCH  11  21
HETATM   21  C10 UNL     1      27.223   0.800  53.653  1.00  0.00     0.151 C 
HETATM   22  N1  UNL     1      27.667  -0.373  53.308  1.00  0.00    -0.227 NA
HETATM   23  I1  UNL     1      29.612  -0.956  53.585  1.00  0.00     0.083 I 
ENDBRANCH  11  21
TORSDOF 1
ENDMDL
MODEL 5
REMARK VINA RESULT:      -7.5      4.023      6.530
REMARK  1 active torsions:
REMARK  status: ('A' for Active; 'I' for Inactive)
REMARK    1  A    between atoms: C9_11  and  C10_12 
ROOT
HETATM    1  F1  UNL     1      21.856   4.972  49.722  1.00  0.00    -0.210 F 
HETATM    2  C1  UNL     1      22.680   4.613  50.687  1.00  0.00     0.105 A 
HETATM    3  C2  UNL     1      23.463   4.560  51.988  1.00  0.00     0.030 A 
HETATM    4  C3  UNL     1      24.358   3.324  51.800  1.00  0.00     0.047 A 
HETATM    5  C4  UNL     1      25.498   2.905  51.488  1.00  0.00     0.018 A 
HETATM    6  C5  UNL     1      24.719   2.989  49.969  1.00  0.00     0.018 A 
HETATM    7  C6  UNL     1      23.498   3.455  50.458  1.00  0.00     0.057 A 
HETATM    8  C7  UNL     1      23.242   2.278  51.489  1.00  0.00     0.050 A 
HETATM    9  C8  UNL     1      22.021   2.426  52.232  1.00  0.00     0.178 C 
HETATM   10  O1  UNL     1      21.914   1.512  53.241  1.00  0.00    -0.360 OA
HETATM   11  C9  UNL     1      21.916   0.187  52.896  1.00  0.00     0.285 C 
HETATM   12  N2  UNL     1      22.936  -0.485  53.685  1.00  0.00    -0.264 NA
HETATM   13  C11 UNL     1      24.161  -0.277  53.458  1.00  0.00     0.127 C 
HETATM   14  C12 UNL     1      25.297  -0.846  54.130  1.00  0.00     0.235 C 
HETATM   15  N3  UNL     1      26.579  -0.903  54.213  1.00  0.00    -0.277 NA
HETATM   16  C13 UNL     1      27.266  -0.061  53.252  1.00  0.00     0.168 C 
HETATM   17  N4  UNL     1      26.936   1.172  53.425  1.00  0.00    -0.272 NA
HETATM   18  C14 UNL     1      27.497   2.173  52.586  1.00  0.00     0.270 C 
HETATM   19  N5  UNL     1      26.799   2.462  51.383  1.00  0.00    -0.374 N 
HETATM   20  H13 UNL     1      27.334   2.323  50.506  1.00  0.00     0.161 HD
ENDROOT
BRANCH  11  21
HETATM   21  C10 UNL     1      20.600  -0.461  53.271  1.00  0.00     0.151 C 
HETATM   22  N1  UNL     1      19.617  -0.183  52.467  1.00  0.00    -0.227 NA
HETATM   23  I1  UNL     1      17.721  -0.918  52.724  1.00  0.00     0.083 I 
ENDBRANCH  11  21
TORSDOF 1
ENDMDL
MODEL 6
REMARK VINA RESULT:      -7.4      2.848      4.937
REMARK  1 active torsions:
REMARK  status: ('A' for Active; 'I' for Inactive)
REMARK    1  A    between atoms: C9_11  and  C10_12 
ROOT
HETATM    1  F1  UNL     1      20.285   3.648  49.244  1.00  0.00    -0.210 F 
HETATM    2  C1  UNL     1      21.120   2.689  49.594  1.00  0.00     0.105 A 
HETATM    3  C2  UNL     1      21.940   1.410  49.618  1.00  0.00     0.030 A 
HETATM    4  C3  UNL     1      22.698   1.513  50.951  1.00  0.00     0.047 A 
HETATM    5  C4  UNL     1      22.734   1.162  52.155  1.00  0.00     0.018 A 
HETATM    6  C5  UNL     1      21.752   2.558  52.219  1.00  0.00     0.018 A 
HETATM    7  C6  UNL     1      21.798   2.831  50.851  1.00  0.00     0.057 A 
HETATM    8  C7  UNL     1      23.376   2.900  50.722  1.00  0.00     0.050 A 
HETATM    9  C8  UNL     1      23.828   3.162  49.384  1.00  0.00     0.178 C 
HETATM   10  O1  UNL     1      25.181   3.029  49.258  1.00  0.00    -0.360 OA
HETATM   11  C9  UNL     1      25.970   3.844  50.024  1.00  0.00     0.285 C 
HETATM   12  N2  UNL     1      26.917   3.009  50.746  1.00  0.00    -0.264 NA
HETATM   13  C11 UNL     1      26.525   2.265  51.690  1.00  0.00     0.127 C 
HETATM   14  C12 UNL     1      27.309   1.380  52.507  1.00  0.00     0.235 C 
HETATM   15  N3  UNL     1      27.313   0.530  53.472  1.00  0.00    -0.277 NA
HETATM   16  C13 UNL     1      26.005   0.294  54.050  1.00  0.00     0.168 C 
HETATM   17  N4  UNL     1      25.199  -0.162  53.155  1.00  0.00    -0.272 NA
HETATM   18  C14 UNL     1      23.855  -0.465  53.509  1.00  0.00     0.270 C 
HETATM   19  N5  UNL     1      22.912   0.591  53.397  1.00  0.00    -0.374 N 
HETATM   20  H13 UNL     1      22.417   0.849  54.270  1.00  0.00     0.161 HD
ENDROOT
BRANCH  11  21
HETATM   21  C10 UNL     1      26.800   4.757  49.146  1.00  0.00     0.151 C 
HETATM   22  N1  UNL     1      26.415   5.999  49.148  1.00  0.00    -0.227 NA
HETATM   23  I1  UNL     1      27.350   7.460  48.056  1.00  0.00     0.083 I 
ENDBRANCH  11  21
TORSDOF 1
ENDMDL
MODEL 7
REMARK VINA RESULT:      -7.2      3.823      6.064
REMARK  1 active torsions:
REMARK  status: ('A' for Active; 'I' for Inactive)
REMARK    1  A    between atoms: C9_11  and  C10_12 
ROOT
HETATM    1  F1  UNL     1      24.094   5.397  48.268  1.00  0.00    -0.210 F 
HETATM    2  C1  UNL     1      24.286   5.005  49.513  1.00  0.00     0.105 A 
HETATM    3  C2  UNL     1      24.340   4.951  51.030  1.00  0.00     0.030 A 
HETATM    4  C3  UNL     1      24.981   3.581  51.302  1.00  0.00     0.047 A 
HETATM    5  C4  UNL     1      26.039   2.965  51.578  1.00  0.00     0.018 A 
HETATM    6  C5  UNL     1      26.095   3.028  49.871  1.00  0.00     0.018 A 
HETATM    7  C6  UNL     1      24.894   3.719  49.711  1.00  0.00     0.057 A 
HETATM    8  C7  UNL     1      23.977   2.694  50.500  1.00  0.00     0.050 A 
HETATM    9  C8  UNL     1      22.599   3.095  50.565  1.00  0.00     0.178 C 
HETATM   10  O1  UNL     1      21.868   2.304  51.404  1.00  0.00    -0.360 OA
HETATM   11  C9  UNL     1      21.796   0.969  51.111  1.00  0.00     0.285 C 
HETATM   12  N2  UNL     1      22.185   0.223  52.297  1.00  0.00    -0.264 NA
HETATM   13  C11 UNL     1      23.388   0.218  52.685  1.00  0.00     0.127 C 
HETATM   14  C12 UNL     1      23.950  -0.455  53.823  1.00  0.00     0.235 C 
HETATM   15  N3  UNL     1      25.009  -0.700  54.511  1.00  0.00    -0.277 NA
HETATM   16  C13 UNL     1      26.205  -0.065  53.993  1.00  0.00     0.168 C 
HETATM   17  N4  UNL     1      26.058   1.215  53.978  1.00  0.00    -0.272 NA
HETATM   18  C14 UNL     1      27.116   2.038  53.505  1.00  0.00     0.270 C 
HETATM   19  N5  UNL     1      27.133   2.320  52.113  1.00  0.00    -0.374 N 
HETATM   20  H13 UNL     1      27.983   2.021  51.601  1.00  0.00     0.161 HD
ENDROOT
BRANCH  11  21
HETATM   21  C10 UNL     1      20.367   0.567  50.812  1.00  0.00     0.151 C 
HETATM   22  N1  UNL     1      19.646   0.325  51.867  1.00  0.00    -0.227 NA
HETATM   23  I1  UNL     1      17.678  -0.238  51.769  1.00  0.00     0.083 I 
ENDBRANCH  11  21
TORSDOF 1
ENDMDL
MODEL 8
REMARK VINA RESULT:      -6.6      9.612     10.939
REMARK  1 active torsions:
REMARK  status: ('A' for Active; 'I' for Inactive)
REMARK    1  A    between atoms: C9_11  and  C10_12 
ROOT
HETATM    1  F1  UNL     1      35.320   4.288  48.764  1.00  0.00    -0.210 F 
HETATM    2  C1  UNL     1      34.849   5.515  48.653  1.00  0.00     0.105 A 
HETATM    3  C2  UNL     1      34.734   7.027  48.554  1.00  0.00     0.030 A 
HETATM    4  C3  UNL     1      33.216   7.251  48.463  1.00  0.00     0.047 A 
HETATM    5  C4  UNL     1      32.171   7.549  49.090  1.00  0.00     0.018 A 
HETATM    6  C5  UNL     1      32.248   5.856  49.306  1.00  0.00     0.018 A 
HETATM    7  C6  UNL     1      33.423   5.670  48.578  1.00  0.00     0.057 A 
HETATM    8  C7  UNL     1      32.923   6.339  47.231  1.00  0.00     0.050 A 
HETATM    9  C8  UNL     1      33.918   6.348  46.195  1.00  0.00     0.178 C 
HETATM   10  O1  UNL     1      33.536   7.093  45.116  1.00  0.00    -0.360 OA
HETATM   11  C9  UNL     1      32.396   6.715  44.458  1.00  0.00     0.285 C 
HETATM   12  N2  UNL     1      31.523   7.873  44.361  1.00  0.00    -0.264 NA
HETATM   13  C11 UNL     1      30.947   8.329  45.390  1.00  0.00     0.127 C 
HETATM   14  C12 UNL     1      30.059   9.454  45.484  1.00  0.00     0.235 C 
HETATM   15  N3  UNL     1      29.330  10.186  46.250  1.00  0.00    -0.277 NA
HETATM   16  C13 UNL     1      29.348   9.779  47.641  1.00  0.00     0.168 C 
HETATM   17  N4  UNL     1      30.548   9.834  48.105  1.00  0.00    -0.272 NA
HETATM   18  C14 UNL     1      30.796   9.475  49.458  1.00  0.00     0.270 C 
HETATM   19  N5  UNL     1      31.076   8.107  49.714  1.00  0.00    -0.374 N 
HETATM   20  H13 UNL     1      30.429   7.627  50.368  1.00  0.00     0.161 HD
ENDROOT
BRANCH  11  21
HETATM   21  C10 UNL     1      32.716   6.309  43.035  1.00  0.00     0.151 C 
HETATM   22  N1  UNL     1      33.073   5.066  42.898  1.00  0.00    -0.227 NA
HETATM   23  I1  UNL     1      33.564   4.237  41.089  1.00  0.00     0.083 I 
ENDBRANCH  11  21
TORSDOF 1
ENDMDL
MODEL 9
REMARK VINA RESULT:      -6.6      9.995     12.077
REMARK  1 active torsions:
REMARK  status: ('A' for Active; 'I' for Inactive)
REMARK    1  A    between atoms: C9_11  and  C10_12 
ROOT
HETATM    1  F1  UNL     1      32.791   1.427  47.489  1.00  0.00    -0.210 F 
HETATM    2  C1  UNL     1      33.536   2.515  47.534  1.00  0.00     0.105 A 
HETATM    3  C2  UNL     1      34.709   3.471  47.668  1.00  0.00     0.030 A 
HETATM    4  C3  UNL     1      34.052   4.848  47.483  1.00  0.00     0.047 A 
HETATM    5  C4  UNL     1      33.590   5.865  48.056  1.00  0.00     0.018 A 
HETATM    6  C5  UNL     1      32.229   4.834  48.005  1.00  0.00     0.018 A 
HETATM    7  C6  UNL     1      32.872   3.776  47.361  1.00  0.00     0.057 A 
HETATM    8  C7  UNL     1      33.373   4.595  46.100  1.00  0.00     0.050 A 
HETATM    9  C8  UNL     1      34.128   3.803  45.170  1.00  0.00     0.178 C 
HETATM   10  O1  UNL     1      34.709   4.562  44.194  1.00  0.00    -0.360 OA
HETATM   11  C9  UNL     1      33.881   5.296  43.388  1.00  0.00     0.285 C 
HETATM   12  N2  UNL     1      34.342   6.675  43.401  1.00  0.00    -0.264 NA
HETATM   13  C11 UNL     1      34.199   7.388  44.435  1.00  0.00     0.127 C 
HETATM   14  C12 UNL     1      34.589   8.757  44.630  1.00  0.00     0.235 C 
HETATM   15  N3  UNL     1      34.631   9.758  45.437  1.00  0.00    -0.277 NA
HETATM   16  C13 UNL     1      34.061   9.483  46.742  1.00  0.00     0.168 C 
HETATM   17  N4  UNL     1      34.698   8.519  47.311  1.00  0.00    -0.272 NA
HETATM   18  C14 UNL     1      34.303   8.084  48.606  1.00  0.00     0.270 C 
HETATM   19  N5  UNL     1      33.310   7.070  48.664  1.00  0.00    -0.374 N 
HETATM   20  H13 UNL     1      32.442   7.316  49.174  1.00  0.00     0.161 HD
ENDROOT
BRANCH  11  21
HETATM   21  C10 UNL     1      33.991   4.831  41.951  1.00  0.00     0.151 C 
HETATM   22  N1  UNL     1      33.068   3.990  41.587  1.00  0.00    -0.227 NA
HETATM   23  I1  UNL     1      32.965   3.192  39.702  1.00  0.00     0.083 I 
ENDBRANCH  11  21
TORSDOF 1
ENDMDL
