MODEL 1
REMARK VINA RESULT:      -9.2      0.000      0.000
REMARK  1 active torsions:
REMARK  status: ('A' for Active; 'I' for Inactive)
REMARK    1  A    between atoms: C15_20  and  O3_21 
ROOT
HETATM    1  C1  UNL     1      18.835   1.988  51.538  1.00  0.00     0.185 C 
HETATM    2  N1  UNL     1      19.589   2.407  50.387  1.00  0.00    -0.216 N 
HETATM    3  N2  UNL     1      20.108   1.427  49.468  1.00  0.00    -0.063 NA
HETATM    4  N3  UNL     1      21.115   0.808  49.794  1.00  0.00    -0.132 NA
HETATM    5  C2  UNL     1      21.892   0.871  50.950  1.00  0.00     0.088 A 
HETATM    6  C3  UNL     1      21.118  -0.129  51.594  1.00  0.00     0.036 A 
HETATM    7  C4  UNL     1      21.298  -0.726  52.864  1.00  0.00     0.034 A 
HETATM    8  C5  UNL     1      22.417  -0.241  53.565  1.00  0.00     0.065 A 
HETATM    9  C6  UNL     1      23.198   0.759  52.924  1.00  0.00    -0.018 A 
HETATM   10  C7  UNL     1      23.012   1.357  51.671  1.00  0.00    -0.011 A 
HETATM   11  C8  UNL     1      23.997   2.376  51.436  1.00  0.00     0.064 C 
HETATM   12  C9  UNL     1      23.852   2.965  50.037  1.00  0.00     0.008 C 
HETATM   13  C10 UNL     1      23.021   3.894  50.363  1.00  0.00     0.013 A 
HETATM   14  C11 UNL     1      22.028   4.952  50.591  1.00  0.00     0.000 A 
HETATM   15  C12 UNL     1      21.066   5.792  50.773  1.00  0.00    -0.018 A 
HETATM   16  O1  UNL     1      20.547   4.646  50.562  1.00  0.00     0.000 OA
HETATM   17  C13 UNL     1      20.266   3.617  49.843  1.00  0.00     0.334 C 
HETATM   18  O2  UNL     1      20.614   3.666  48.630  1.00  0.00    -0.260 OA
HETATM   19  C14 UNL     1      22.992   4.354  51.602  1.00  0.00     0.043 A 
HETATM   20  C15 UNL     1      23.923   3.662  52.250  1.00  0.00     0.103 C 
HETATM   21  C16 UNL     1      24.501   1.112  53.512  1.00  0.00     0.065 C 
HETATM   22  C17 UNL     1      25.394  -0.154  53.367  1.00  0.00     0.178 C 
HETATM   23  N4  UNL     1      25.630  -0.803  54.609  1.00  0.00    -0.192 NA
HETATM   24  N5  UNL     1      24.857  -1.318  55.550  1.00  0.00    -0.148 NA
HETATM   25  C18 UNL     1      23.410  -1.354  55.542  1.00  0.00     0.257 C 
HETATM   26  N6  UNL     1      22.401  -0.956  54.802  1.00  0.00    -0.240 NA
ENDROOT
BRANCH  20  27
HETATM   27  O3  UNL     1      24.478   4.338  53.395  1.00  0.00    -0.386 OA
HETATM   28  H11 UNL     1      24.281   3.970  54.319  1.00  0.00     0.210 HD
ENDBRANCH  20  27
TORSDOF 1
ENDMDL
MODEL 2
REMARK VINA RESULT:      -8.9      1.567      1.855
REMARK  1 active torsions:
REMARK  status: ('A' for Active; 'I' for Inactive)
REMARK    1  A    between atoms: C15_20  and  O3_21 
ROOT
HETATM    1  C1  UNL     1      19.476   3.466  49.235  1.00  0.00     0.185 C 
HETATM    2  N1  UNL     1      20.711   3.633  48.517  1.00  0.00    -0.216 N 
HETATM    3  N2  UNL     1      21.284   2.524  47.800  1.00  0.00    -0.063 NA
HETATM    4  N3  UNL     1      21.877   1.665  48.445  1.00  0.00    -0.132 NA
HETATM    5  C2  UNL     1      22.108   1.549  49.816  1.00  0.00     0.088 A 
HETATM    6  C3  UNL     1      20.910   0.814  50.013  1.00  0.00     0.036 A 
HETATM    7  C4  UNL     1      20.401   0.227  51.195  1.00  0.00     0.034 A 
HETATM    8  C5  UNL     1      21.225   0.412  52.320  1.00  0.00     0.065 A 
HETATM    9  C6  UNL     1      22.428   1.146  52.128  1.00  0.00    -0.018 A 
HETATM   10  C7  UNL     1      22.925   1.736  50.959  1.00  0.00    -0.011 A 
HETATM   11  C8  UNL     1      24.147   2.443  51.220  1.00  0.00     0.064 C 
HETATM   12  C9  UNL     1      24.737   3.010  49.933  1.00  0.00     0.008 C 
HETATM   13  C10 UNL     1      24.117   4.137  49.980  1.00  0.00     0.013 A 
HETATM   14  C11 UNL     1      23.426   5.430  49.884  1.00  0.00     0.000 A 
HETATM   15  C12 UNL     1      22.724   6.503  49.740  1.00  0.00    -0.018 A 
HETATM   16  O1  UNL     1      22.058   5.534  49.245  1.00  0.00     0.000 OA
HETATM   17  C13 UNL     1      21.837   4.600  48.389  1.00  0.00     0.334 C 
HETATM   18  O2  UNL     1      22.645   4.518  47.423  1.00  0.00    -0.260 OA
HETATM   19  C14 UNL     1      23.708   4.623  51.140  1.00  0.00     0.043 A 
HETATM   20  C15 UNL     1      24.085   3.725  52.043  1.00  0.00     0.103 C 
HETATM   21  C16 UNL     1      23.425   1.150  53.211  1.00  0.00     0.065 C 
HETATM   22  C17 UNL     1      23.940  -0.313  53.326  1.00  0.00     0.178 C 
HETATM   23  N4  UNL     1      23.477  -0.967  54.501  1.00  0.00    -0.192 NA
HETATM   24  N5  UNL     1      22.286  -1.227  55.012  1.00  0.00    -0.148 NA
HETATM   25  C18 UNL     1      21.010  -0.871  54.428  1.00  0.00     0.257 C 
HETATM   26  N6  UNL     1      20.527  -0.237  53.385  1.00  0.00    -0.240 NA
ENDROOT
BRANCH  20  27
HETATM   27  O3  UNL     1      24.284   4.258  53.367  1.00  0.00    -0.386 OA
HETATM   28  H11 UNL     1      23.611   4.923  53.729  1.00  0.00     0.210 HD
ENDBRANCH  20  27
TORSDOF 1
ENDMDL
MODEL 3
REMARK VINA RESULT:      -8.7      2.350      4.187
REMARK  1 active torsions:
REMARK  status: ('A' for Active; 'I' for Inactive)
REMARK    1  A    between atoms: C15_20  and  O3_21 
ROOT
HETATM    1  C1  UNL     1      21.722   2.492  49.409  1.00  0.00     0.185 C 
HETATM    2  N1  UNL     1      20.832   2.768  50.504  1.00  0.00    -0.216 N 
HETATM    3  N2  UNL     1      21.157   3.797  51.457  1.00  0.00    -0.063 NA
HETATM    4  N3  UNL     1      21.994   3.542  52.317  1.00  0.00    -0.132 NA
HETATM    5  C2  UNL     1      22.735   2.385  52.556  1.00  0.00     0.088 A 
HETATM    6  C3  UNL     1      23.791   2.820  51.714  1.00  0.00     0.036 A 
HETATM    7  C4  UNL     1      25.035   2.203  51.442  1.00  0.00     0.034 A 
HETATM    8  C5  UNL     1      25.225   0.987  52.123  1.00  0.00     0.065 A 
HETATM    9  C6  UNL     1      24.172   0.548  52.971  1.00  0.00    -0.018 A 
HETATM   10  C7  UNL     1      22.936   1.154  53.230  1.00  0.00    -0.011 A 
HETATM   11  C8  UNL     1      22.135   0.339  54.099  1.00  0.00     0.064 C 
HETATM   12  C9  UNL     1      20.827   1.038  54.454  1.00  0.00     0.008 C 
HETATM   13  C10 UNL     1      20.150   0.579  53.460  1.00  0.00     0.013 A 
HETATM   14  C11 UNL     1      19.288   0.178  52.341  1.00  0.00     0.000 A 
HETATM   15  C12 UNL     1      18.578  -0.075  51.293  1.00  0.00    -0.018 A 
HETATM   16  O1  UNL     1      19.291   0.952  51.041  1.00  0.00     0.000 OA
HETATM   17  C13 UNL     1      19.650   2.178  51.193  1.00  0.00     0.334 C 
HETATM   18  O2  UNL     1      18.958   2.873  51.987  1.00  0.00    -0.260 OA
HETATM   19  C14 UNL     1      20.500  -0.558  52.885  1.00  0.00     0.043 A 
HETATM   20  C15 UNL     1      21.571  -0.969  53.556  1.00  0.00     0.103 C 
HETATM   21  C16 UNL     1      24.430  -0.581  53.880  1.00  0.00     0.065 C 
HETATM   22  C17 UNL     1      25.491  -0.076  54.900  1.00  0.00     0.178 C 
HETATM   23  N4  UNL     1      26.770  -0.664  54.697  1.00  0.00    -0.192 NA
HETATM   24  N5  UNL     1      27.612  -0.728  53.680  1.00  0.00    -0.148 NA
HETATM   25  C18 UNL     1      27.417  -0.141  52.371  1.00  0.00     0.257 C 
HETATM   26  N6  UNL     1      26.515   0.539  51.701  1.00  0.00    -0.240 NA
ENDROOT
BRANCH  20  27
HETATM   27  O3  UNL     1      21.783  -2.394  53.525  1.00  0.00    -0.386 OA
HETATM   28  H11 UNL     1      21.057  -3.001  53.887  1.00  0.00     0.210 HD
ENDBRANCH  20  27
TORSDOF 1
ENDMDL
MODEL 4
REMARK VINA RESULT:      -8.2      2.710      6.551
REMARK  1 active torsions:
REMARK  status: ('A' for Active; 'I' for Inactive)
REMARK    1  A    between atoms: C15_20  and  O3_21 
ROOT
HETATM    1  C1  UNL     1      26.765   2.139  54.128  1.00  0.00     0.185 C 
HETATM    2  N1  UNL     1      26.582   0.763  53.753  1.00  0.00    -0.216 N 
HETATM    3  N2  UNL     1      26.695   0.370  52.372  1.00  0.00    -0.063 NA
HETATM    4  N3  UNL     1      25.750   0.608  51.627  1.00  0.00    -0.132 NA
HETATM    5  C2  UNL     1      24.524   1.226  51.874  1.00  0.00     0.088 A 
HETATM    6  C3  UNL     1      25.043   2.509  51.560  1.00  0.00     0.036 A 
HETATM    7  C4  UNL     1      24.379   3.757  51.506  1.00  0.00     0.034 A 
HETATM    8  C5  UNL     1      23.006   3.683  51.806  1.00  0.00     0.065 A 
HETATM    9  C6  UNL     1      22.480   2.399  52.118  1.00  0.00    -0.018 A 
HETATM   10  C7  UNL     1      23.142   1.166  52.183  1.00  0.00    -0.011 A 
HETATM   11  C8  UNL     1      22.247   0.124  52.602  1.00  0.00     0.064 C 
HETATM   12  C9  UNL     1      22.941  -1.233  52.587  1.00  0.00     0.008 C 
HETATM   13  C10 UNL     1      23.384  -1.177  53.795  1.00  0.00     0.013 A 
HETATM   14  C11 UNL     1      23.997  -1.210  55.129  1.00  0.00     0.000 A 
HETATM   15  C12 UNL     1      24.635  -1.176  56.250  1.00  0.00    -0.018 A 
HETATM   16  O1  UNL     1      25.348  -0.576  55.379  1.00  0.00     0.000 OA
HETATM   17  C13 UNL     1      26.074  -0.518  54.318  1.00  0.00     0.334 C 
HETATM   18  O2  UNL     1      26.326  -1.615  53.747  1.00  0.00    -0.260 OA
HETATM   19  C14 UNL     1      22.769  -0.428  54.694  1.00  0.00     0.043 A 
HETATM   20  C15 UNL     1      21.751   0.126  54.044  1.00  0.00     0.103 C 
HETATM   21  C16 UNL     1      21.019   2.242  52.196  1.00  0.00     0.065 C 
HETATM   22  C17 UNL     1      20.484   2.481  50.754  1.00  0.00     0.178 C 
HETATM   23  N4  UNL     1      19.791   3.716  50.624  1.00  0.00    -0.192 NA
HETATM   24  N5  UNL     1      20.102   4.982  50.840  1.00  0.00    -0.148 NA
HETATM   25  C18 UNL     1      21.376   5.481  51.315  1.00  0.00     0.257 C 
HETATM   26  N6  UNL     1      22.545   5.031  51.706  1.00  0.00    -0.240 NA
ENDROOT
BRANCH  20  27
HETATM   27  O3  UNL     1      20.638   0.493  54.882  1.00  0.00    -0.386 OA
HETATM   28  H11 UNL     1      19.830   0.929  54.452  1.00  0.00     0.210 HD
ENDBRANCH  20  27
TORSDOF 1
ENDMDL
MODEL 5
REMARK VINA RESULT:      -8.1      2.501      4.112
REMARK  1 active torsions:
REMARK  status: ('A' for Active; 'I' for Inactive)
REMARK    1  A    between atoms: C15_20  and  O3_21 
ROOT
HETATM    1  C1  UNL     1      25.588   4.004  50.034  1.00  0.00     0.185 C 
HETATM    2  N1  UNL     1      24.518   4.963  50.001  1.00  0.00    -0.216 N 
HETATM    3  N2  UNL     1      24.167   5.694  51.191  1.00  0.00    -0.063 NA
HETATM    4  N3  UNL     1      23.506   5.116  52.048  1.00  0.00    -0.132 NA
HETATM    5  C2  UNL     1      23.008   3.814  52.094  1.00  0.00     0.088 A 
HETATM    6  C3  UNL     1      24.181   3.328  52.728  1.00  0.00     0.036 A 
HETATM    7  C4  UNL     1      24.472   2.027  53.202  1.00  0.00     0.034 A 
HETATM    8  C5  UNL     1      23.427   1.105  53.006  1.00  0.00     0.065 A 
HETATM    9  C6  UNL     1      22.249   1.588  52.374  1.00  0.00    -0.018 A 
HETATM   10  C7  UNL     1      21.966   2.874  51.896  1.00  0.00    -0.011 A 
HETATM   11  C8  UNL     1      20.678   2.915  51.262  1.00  0.00     0.064 C 
HETATM   12  C9  UNL     1      20.331   4.333  50.821  1.00  0.00     0.008 C 
HETATM   13  C10 UNL     1      20.863   4.249  49.651  1.00  0.00     0.013 A 
HETATM   14  C11 UNL     1      21.483   4.304  48.321  1.00  0.00     0.000 A 
HETATM   15  C12 UNL     1      22.136   4.386  47.211  1.00  0.00    -0.018 A 
HETATM   16  O1  UNL     1      22.944   4.664  48.159  1.00  0.00     0.000 OA
HETATM   17  C13 UNL     1      23.388   5.386  49.127  1.00  0.00     0.334 C 
HETATM   18  O2  UNL     1      22.799   6.484  49.327  1.00  0.00    -0.260 OA
HETATM   19  C14 UNL     1      20.998   3.072  49.066  1.00  0.00     0.043 A 
HETATM   20  C15 UNL     1      20.497   2.196  49.931  1.00  0.00     0.103 C 
HETATM   21  C16 UNL     1      21.054   0.728  52.373  1.00  0.00     0.065 C 
HETATM   22  C17 UNL     1      20.611   0.607  53.860  1.00  0.00     0.178 C 
HETATM   23  N4  UNL     1      20.861  -0.682  54.404  1.00  0.00    -0.192 NA
HETATM   24  N5  UNL     1      21.937  -1.437  54.545  1.00  0.00    -0.148 NA
HETATM   25  C18 UNL     1      23.283  -1.094  54.136  1.00  0.00     0.257 C 
HETATM   26  N6  UNL     1      23.930  -0.123  53.535  1.00  0.00    -0.240 NA
ENDROOT
BRANCH  20  27
HETATM   27  O3  UNL     1      20.003   0.983  49.332  1.00  0.00    -0.386 OA
HETATM   28  H11 UNL     1      19.919   0.154  49.911  1.00  0.00     0.210 HD
ENDBRANCH  20  27
TORSDOF 1
ENDMDL
MODEL 6
REMARK VINA RESULT:      -7.6     10.944     12.631
REMARK  1 active torsions:
REMARK  status: ('A' for Active; 'I' for Inactive)
REMARK    1  A    between atoms: C15_20  and  O3_21 
ROOT
HETATM    1  C1  UNL     1      30.764   9.291  44.178  1.00  0.00     0.185 C 
HETATM    2  N1  UNL     1      30.719  10.058  45.393  1.00  0.00    -0.216 N 
HETATM    3  N2  UNL     1      31.907  10.709  45.881  1.00  0.00    -0.063 NA
HETATM    4  N3  UNL     1      32.749  10.020  46.449  1.00  0.00    -0.132 NA
HETATM    5  C2  UNL     1      32.779   8.653  46.722  1.00  0.00     0.088 A 
HETATM    6  C3  UNL     1      33.430   8.365  45.495  1.00  0.00     0.036 A 
HETATM    7  C4  UNL     1      33.900   7.127  44.997  1.00  0.00     0.034 A 
HETATM    8  C5  UNL     1      33.681   6.045  45.869  1.00  0.00     0.065 A 
HETATM    9  C6  UNL     1      33.031   6.328  47.101  1.00  0.00    -0.018 A 
HETATM   10  C7  UNL     1      32.556   7.553  47.588  1.00  0.00    -0.011 A 
HETATM   11  C8  UNL     1      31.901   7.383  48.854  1.00  0.00     0.064 C 
HETATM   12  C9  UNL     1      31.462   8.726  49.428  1.00  0.00     0.008 C 
HETATM   13  C10 UNL     1      30.301   8.743  48.870  1.00  0.00     0.013 A 
HETATM   14  C11 UNL     1      28.982   8.913  48.247  1.00  0.00     0.000 A 
HETATM   15  C12 UNL     1      27.885   9.114  47.599  1.00  0.00    -0.018 A 
HETATM   16  O1  UNL     1      28.848   9.515  46.865  1.00  0.00     0.000 OA
HETATM   17  C13 UNL     1      29.828  10.292  46.564  1.00  0.00     0.334 C 
HETATM   18  O2  UNL     1      30.024  11.275  47.332  1.00  0.00    -0.260 OA
HETATM   19  C14 UNL     1      29.711   7.611  48.530  1.00  0.00     0.043 A 
HETATM   20  C15 UNL     1      30.562   6.655  48.890  1.00  0.00     0.103 C 
HETATM   21  C16 UNL     1      33.004   5.280  48.135  1.00  0.00     0.065 C 
HETATM   22  C17 UNL     1      34.482   5.073  48.575  1.00  0.00     0.178 C 
HETATM   23  N4  UNL     1      35.023   3.840  48.120  1.00  0.00    -0.192 NA
HETATM   24  N5  UNL     1      35.178   3.274  46.936  1.00  0.00    -0.148 NA
HETATM   25  C18 UNL     1      34.795   3.843  45.660  1.00  0.00     0.257 C 
HETATM   26  N6  UNL     1      34.211   4.914  45.175  1.00  0.00    -0.240 NA
ENDROOT
BRANCH  20  27
HETATM   27  O3  UNL     1      29.947   5.381  49.164  1.00  0.00    -0.386 OA
HETATM   28  H11 UNL     1      29.579   4.843  48.388  1.00  0.00     0.210 HD
ENDBRANCH  20  27
TORSDOF 1
ENDMDL
MODEL 7
REMARK VINA RESULT:      -7.5      3.452      7.000
REMARK  1 active torsions:
REMARK  status: ('A' for Active; 'I' for Inactive)
REMARK    1  A    between atoms: C15_20  and  O3_21 
ROOT
HETATM    1  C1  UNL     1      23.220   4.667  52.291  1.00  0.00     0.185 C 
HETATM    2  N1  UNL     1      23.268   3.233  52.197  1.00  0.00    -0.216 N 
HETATM    3  N2  UNL     1      24.368   2.589  51.528  1.00  0.00    -0.063 NA
HETATM    4  N3  UNL     1      24.373   2.582  50.301  1.00  0.00    -0.132 NA
HETATM    5  C2  UNL     1      23.469   3.113  49.381  1.00  0.00     0.088 A 
HETATM    6  C3  UNL     1      24.156   4.354  49.337  1.00  0.00     0.036 A 
HETATM    7  C4  UNL     1      23.897   5.496  48.543  1.00  0.00     0.034 A 
HETATM    8  C5  UNL     1      22.796   5.349  47.680  1.00  0.00     0.065 A 
HETATM    9  C6  UNL     1      22.106   4.107  47.718  1.00  0.00    -0.018 A 
HETATM   10  C7  UNL     1      22.357   2.980  48.513  1.00  0.00    -0.011 A 
HETATM   11  C8  UNL     1      21.374   1.960  48.282  1.00  0.00     0.064 C 
HETATM   12  C9  UNL     1      21.696   0.700  49.079  1.00  0.00     0.008 C 
HETATM   13  C10 UNL     1      21.046   1.036  50.139  1.00  0.00     0.013 A 
HETATM   14  C11 UNL     1      20.398   1.326  51.424  1.00  0.00     0.000 A 
HETATM   15  C12 UNL     1      19.935   1.642  52.587  1.00  0.00    -0.018 A 
HETATM   16  O1  UNL     1      21.112   2.126  52.492  1.00  0.00     0.000 OA
HETATM   17  C13 UNL     1      22.392   2.045  52.401  1.00  0.00     0.334 C 
HETATM   18  O2  UNL     1      22.890   0.886  52.469  1.00  0.00    -0.260 OA
HETATM   19  C14 UNL     1      20.035   1.883  50.058  1.00  0.00     0.043 A 
HETATM   20  C15 UNL     1      19.949   2.197  48.770  1.00  0.00     0.103 C 
HETATM   21  C16 UNL     1      21.113   3.826  46.667  1.00  0.00     0.065 C 
HETATM   22  C17 UNL     1      21.913   3.723  45.337  1.00  0.00     0.178 C 
HETATM   23  N4  UNL     1      21.694   4.835  44.478  1.00  0.00    -0.192 NA
HETATM   24  N5  UNL     1      21.839   6.143  44.596  1.00  0.00    -0.148 NA
HETATM   25  C18 UNL     1      22.319   6.847  45.766  1.00  0.00     0.257 C 
HETATM   26  N6  UNL     1      22.709   6.600  46.995  1.00  0.00    -0.240 NA
ENDROOT
BRANCH  20  27
HETATM   27  O3  UNL     1      18.637   2.611  48.343  1.00  0.00    -0.386 OA
HETATM   28  H11 UNL     1      18.505   2.890  47.377  1.00  0.00     0.210 HD
ENDBRANCH  20  27
TORSDOF 1
ENDMDL
MODEL 8
REMARK VINA RESULT:      -7.4      3.005      5.964
REMARK  1 active torsions:
REMARK  status: ('A' for Active; 'I' for Inactive)
REMARK    1  A    between atoms: C15_20  and  O3_21 
ROOT
HETATM    1  C1  UNL     1      19.935   0.978  50.646  1.00  0.00     0.185 C 
HETATM    2  N1  UNL     1      20.414   1.218  51.981  1.00  0.00    -0.216 N 
HETATM    3  N2  UNL     1      19.961   2.372  52.713  1.00  0.00    -0.063 NA
HETATM    4  N3  UNL     1      20.453   3.461  52.434  1.00  0.00    -0.132 NA
HETATM    5  C2  UNL     1      21.415   3.813  51.488  1.00  0.00     0.088 A 
HETATM    6  C3  UNL     1      20.431   4.048  50.492  1.00  0.00     0.036 A 
HETATM    7  C4  UNL     1      20.589   4.525  49.170  1.00  0.00     0.034 A 
HETATM    8  C5  UNL     1      21.923   4.802  48.822  1.00  0.00     0.065 A 
HETATM    9  C6  UNL     1      22.913   4.571  49.816  1.00  0.00    -0.018 A 
HETATM   10  C7  UNL     1      22.757   4.088  51.122  1.00  0.00    -0.011 A 
HETATM   11  C8  UNL     1      24.029   3.941  51.771  1.00  0.00     0.064 C 
HETATM   12  C9  UNL     1      23.856   3.501  53.221  1.00  0.00     0.008 C 
HETATM   13  C10 UNL     1      23.871   2.235  52.985  1.00  0.00     0.013 A 
HETATM   14  C11 UNL     1      23.809   0.775  52.845  1.00  0.00     0.000 A 
HETATM   15  C12 UNL     1      23.629  -0.495  52.700  1.00  0.00    -0.018 A 
HETATM   16  O1  UNL     1      22.502   0.079  52.530  1.00  0.00     0.000 OA
HETATM   17  C13 UNL     1      21.476   0.751  52.916  1.00  0.00     0.334 C 
HETATM   18  O2  UNL     1      21.412   1.027  54.146  1.00  0.00    -0.260 OA
HETATM   19  C14 UNL     1      24.480   1.766  51.910  1.00  0.00     0.043 A 
HETATM   20  C15 UNL     1      24.967   2.838  51.294  1.00  0.00     0.103 C 
HETATM   21  C16 UNL     1      24.275   5.075  49.577  1.00  0.00     0.065 C 
HETATM   22  C17 UNL     1      24.163   6.627  49.570  1.00  0.00     0.178 C 
HETATM   23  N4  UNL     1      24.324   7.182  48.271  1.00  0.00    -0.192 NA
HETATM   24  N5  UNL     1      23.713   7.020  47.110  1.00  0.00    -0.148 NA
HETATM   25  C18 UNL     1      22.597   6.136  46.847  1.00  0.00     0.257 C 
HETATM   26  N6  UNL     1      21.854   5.249  47.467  1.00  0.00    -0.240 NA
ENDROOT
BRANCH  20  27
HETATM   27  O3  UNL     1      26.118   2.579  50.466  1.00  0.00    -0.386 OA
HETATM   28  H11 UNL     1      25.984   2.096  49.585  1.00  0.00     0.210 HD
ENDBRANCH  20  27
TORSDOF 1
ENDMDL
MODEL 9
REMARK VINA RESULT:      -7.4      3.034      5.915
REMARK  1 active torsions:
REMARK  status: ('A' for Active; 'I' for Inactive)
REMARK    1  A    between atoms: C15_20  and  O3_21 
ROOT
HETATM    1  C1  UNL     1      21.853   5.502  51.563  1.00  0.00     0.185 C 
HETATM    2  N1  UNL     1      22.521   4.438  50.864  1.00  0.00    -0.216 N 
HETATM    3  N2  UNL     1      22.161   4.130  49.505  1.00  0.00    -0.063 NA
HETATM    4  N3  UNL     1      21.130   3.492  49.312  1.00  0.00    -0.132 NA
HETATM    5  C2  UNL     1      20.188   2.987  50.207  1.00  0.00     0.088 A 
HETATM    6  C3  UNL     1      19.415   4.176  50.152  1.00  0.00     0.036 A 
HETATM    7  C4  UNL     1      18.178   4.473  50.772  1.00  0.00     0.034 A 
HETATM    8  C5  UNL     1      17.664   3.416  51.546  1.00  0.00     0.065 A 
HETATM    9  C6  UNL     1      18.432   2.221  51.603  1.00  0.00    -0.018 A 
HETATM   10  C7  UNL     1      19.662   1.933  50.996  1.00  0.00    -0.011 A 
HETATM   11  C8  UNL     1      20.125   0.626  51.370  1.00  0.00     0.064 C 
HETATM   12  C9  UNL     1      21.418   0.275  50.641  1.00  0.00     0.008 C 
HETATM   13  C10 UNL     1      22.214   0.769  51.524  1.00  0.00     0.013 A 
HETATM   14  C11 UNL     1      23.224   1.348  52.420  1.00  0.00     0.000 A 
HETATM   15  C12 UNL     1      24.094   1.966  53.145  1.00  0.00    -0.018 A 
HETATM   16  O1  UNL     1      23.616   2.805  52.311  1.00  0.00     0.000 OA
HETATM   17  C13 UNL     1      23.424   3.284  51.133  1.00  0.00     0.334 C 
HETATM   18  O2  UNL     1      24.029   2.709  50.185  1.00  0.00    -0.260 OA
HETATM   19  C14 UNL     1      21.825   0.878  52.783  1.00  0.00     0.043 A 
HETATM   20  C15 UNL     1      20.586   0.399  52.805  1.00  0.00     0.103 C 
HETATM   21  C16 UNL     1      17.817   1.021  52.192  1.00  0.00     0.065 C 
HETATM   22  C17 UNL     1      16.652   0.624  51.241  1.00  0.00     0.178 C 
HETATM   23  N4  UNL     1      15.372   0.883  51.803  1.00  0.00    -0.192 NA
HETATM   24  N5  UNL     1      14.767   1.957  52.279  1.00  0.00    -0.148 NA
HETATM   25  C18 UNL     1      15.324   3.292  52.349  1.00  0.00     0.257 C 
HETATM   26  N6  UNL     1      16.441   3.927  52.081  1.00  0.00    -0.240 NA
ENDROOT
BRANCH  20  27
HETATM   27  O3  UNL     1      20.171  -0.123  54.082  1.00  0.00    -0.386 OA
HETATM   28  H11 UNL     1      19.196  -0.037  54.348  1.00  0.00     0.210 HD
ENDBRANCH  20  27
TORSDOF 1
ENDMDL
