MODEL 1
REMARK VINA RESULT:      -7.8      0.000      0.000
REMARK  3 active torsions:
REMARK  status: ('A' for Active; 'I' for Inactive)
REMARK    1  A    between atoms: C3_3  and  C4_4 
REMARK    2  A    between atoms: N1_5  and  C5_6 
REMARK    3  A    between atoms: C15_18  and  C16_19 
ROOT
HETATM    1  C5  UNL     1      25.356   1.456  52.421  1.00  0.00     0.103 A 
HETATM    2  C6  UNL     1      25.680   2.500  53.460  1.00  0.00     0.011 C 
HETATM    3  C7  UNL     1      26.663   1.866  54.089  1.00  0.00    -0.004 C 
HETATM    4  C8  UNL     1      27.091   1.342  52.783  1.00  0.00     0.075 A 
HETATM    5  C9  UNL     1      26.570   1.605  51.585  1.00  0.00     0.010 A 
HETATM    6  C10 UNL     1      27.978   0.114  53.067  1.00  0.00     0.067 A 
HETATM    7  N2  UNL     1      29.237   0.292  53.460  1.00  0.00    -0.244 NA
HETATM    8  C11 UNL     1      29.813  -0.972  53.641  1.00  0.00     0.232 A 
HETATM    9  N3  UNL     1      29.224  -2.164  53.458  1.00  0.00    -0.253 NA
HETATM   10  C12 UNL     1      27.964  -2.395  53.067  1.00  0.00     0.131 A 
HETATM   11  C13 UNL     1      27.323  -1.211  52.870  1.00  0.00     0.008 A 
HETATM   12  C14 UNL     1      25.819  -1.091  52.637  1.00  0.00     0.028 C 
HETATM   13  C15 UNL     1      25.061   0.077  52.757  1.00  0.00     0.016 C 
ENDROOT
BRANCH   1  14
HETATM   14  N1  UNL     1      24.178   2.032  51.732  1.00  0.00    -0.280 NA
HETATM   15  C4  UNL     1      24.304   2.767  50.700  1.00  0.00     0.112 C 
BRANCH  15  16
HETATM   16  C3  UNL     1      25.467   3.224  49.955  1.00  0.00     0.014 C 
HETATM   17  C2  UNL     1      25.606   4.518  49.715  1.00  0.00    -0.029 C 
HETATM   18  C1  UNL     1      26.788   4.993  48.957  1.00  0.00     0.036 C 
ENDBRANCH  15  16
ENDBRANCH   1  14
BRANCH  13  19
HETATM   19  C16 UNL     1      23.731  -0.297  53.299  1.00  0.00     0.268 C 
HETATM   20  O1  UNL     1      23.546  -0.892  54.370  1.00  0.00    -0.302 OA
ENDBRANCH  13  19
TORSDOF 3
ENDMDL
MODEL 2
REMARK VINA RESULT:      -7.1      2.469      3.012
REMARK  3 active torsions:
REMARK  status: ('A' for Active; 'I' for Inactive)
REMARK    1  A    between atoms: C3_3  and  C4_4 
REMARK    2  A    between atoms: N1_5  and  C5_6 
REMARK    3  A    between atoms: C15_18  and  C16_19 
ROOT
HETATM    1  C5  UNL     1      23.409   2.824  51.561  1.00  0.00     0.103 A 
HETATM    2  C6  UNL     1      23.711   4.112  52.286  1.00  0.00     0.011 C 
HETATM    3  C7  UNL     1      24.251   3.605  53.388  1.00  0.00    -0.004 C 
HETATM    4  C8  UNL     1      24.863   2.564  52.548  1.00  0.00     0.075 A 
HETATM    5  C9  UNL     1      24.800   2.441  51.222  1.00  0.00     0.010 A 
HETATM    6  C10 UNL     1      25.243   1.402  53.486  1.00  0.00     0.067 A 
HETATM    7  N2  UNL     1      26.336   1.500  54.240  1.00  0.00    -0.244 NA
HETATM    8  C11 UNL     1      26.449   0.319  54.986  1.00  0.00     0.232 A 
HETATM    9  N3  UNL     1      25.621  -0.736  54.963  1.00  0.00    -0.253 NA
HETATM   10  C12 UNL     1      24.513  -0.881  54.226  1.00  0.00     0.131 A 
HETATM   11  C13 UNL     1      24.320   0.232  53.466  1.00  0.00     0.008 A 
HETATM   12  C14 UNL     1      23.043   0.507  52.676  1.00  0.00     0.028 C 
HETATM   13  C15 UNL     1      22.650   1.744  52.158  1.00  0.00     0.016 C 
ENDROOT
BRANCH   1  14
HETATM   14  N1  UNL     1      22.691   3.289  50.352  1.00  0.00    -0.280 NA
HETATM   15  C4  UNL     1      23.304   3.851  49.388  1.00  0.00     0.112 C 
BRANCH  15  16
HETATM   16  C3  UNL     1      24.704   4.181  49.173  1.00  0.00     0.014 C 
HETATM   17  C2  UNL     1      25.045   5.448  49.001  1.00  0.00    -0.029 C 
HETATM   18  C1  UNL     1      26.469   5.794  48.782  1.00  0.00     0.036 C 
ENDBRANCH  15  16
ENDBRANCH   1  14
BRANCH  13  19
HETATM   19  C16 UNL     1      21.171   1.831  52.262  1.00  0.00     0.268 C 
HETATM   20  O1  UNL     1      20.560   2.603  53.013  1.00  0.00    -0.302 OA
ENDBRANCH  13  19
TORSDOF 3
ENDMDL
MODEL 3
REMARK VINA RESULT:      -7.1      2.563      5.809
REMARK  3 active torsions:
REMARK  status: ('A' for Active; 'I' for Inactive)
REMARK    1  A    between atoms: C3_3  and  C4_4 
REMARK    2  A    between atoms: N1_5  and  C5_6 
REMARK    3  A    between atoms: C15_18  and  C16_19 
ROOT
HETATM    1  C5  UNL     1      24.975   1.545  52.468  1.00  0.00     0.103 A 
HETATM    2  C6  UNL     1      24.134   2.301  53.466  1.00  0.00     0.011 C 
HETATM    3  C7  UNL     1      24.185   3.505  52.908  1.00  0.00    -0.004 C 
HETATM    4  C8  UNL     1      24.132   2.842  51.595  1.00  0.00     0.075 A 
HETATM    5  C9  UNL     1      24.013   1.539  51.341  1.00  0.00     0.010 A 
HETATM    6  C10 UNL     1      24.654   3.860  50.562  1.00  0.00     0.067 A 
HETATM    7  N2  UNL     1      23.856   4.842  50.149  1.00  0.00    -0.244 NA
HETATM    8  C11 UNL     1      24.568   5.611  49.220  1.00  0.00     0.232 A 
HETATM    9  N3  UNL     1      25.827   5.415  48.801  1.00  0.00    -0.253 NA
HETATM   10  C12 UNL     1      26.668   4.446  49.186  1.00  0.00     0.131 A 
HETATM   11  C13 UNL     1      26.055   3.646  50.102  1.00  0.00     0.008 A 
HETATM   12  C14 UNL     1      26.783   2.581  50.918  1.00  0.00     0.028 C 
HETATM   13  C15 UNL     1      26.305   1.969  52.080  1.00  0.00     0.016 C 
ENDROOT
BRANCH   1  14
HETATM   14  N1  UNL     1      25.072   0.198  53.074  1.00  0.00    -0.280 NA
HETATM   15  C4  UNL     1      24.036  -0.514  53.285  1.00  0.00     0.112 C 
BRANCH  15  16
HETATM   16  C3  UNL     1      22.621  -0.284  53.042  1.00  0.00     0.014 C 
HETATM   17  C2  UNL     1      21.768  -0.421  54.045  1.00  0.00    -0.029 C 
HETATM   18  C1  UNL     1      20.324  -0.189  53.807  1.00  0.00     0.036 C 
ENDBRANCH  15  16
ENDBRANCH   1  14
BRANCH  13  19
HETATM   19  C16 UNL     1      27.464   1.731  52.977  1.00  0.00     0.268 C 
HETATM   20  O1  UNL     1      27.759   2.436  53.951  1.00  0.00    -0.302 OA
ENDBRANCH  13  19
TORSDOF 3
ENDMDL
MODEL 4
REMARK VINA RESULT:      -6.7      3.030      4.920
REMARK  3 active torsions:
REMARK  status: ('A' for Active; 'I' for Inactive)
REMARK    1  A    between atoms: C3_3  and  C4_4 
REMARK    2  A    between atoms: N1_5  and  C5_6 
REMARK    3  A    between atoms: C15_18  and  C16_19 
ROOT
HETATM    1  C5  UNL     1      23.976   2.173  51.768  1.00  0.00     0.103 A 
HETATM    2  C6  UNL     1      23.199   2.037  50.483  1.00  0.00     0.011 C 
HETATM    3  C7  UNL     1      22.426   1.010  50.817  1.00  0.00    -0.004 C 
HETATM    4  C8  UNL     1      22.355   1.572  52.175  1.00  0.00     0.075 A 
HETATM    5  C9  UNL     1      22.889   2.711  52.618  1.00  0.00     0.010 A 
HETATM    6  C10 UNL     1      21.914   0.428  53.107  1.00  0.00     0.067 A 
HETATM    7  N2  UNL     1      20.633   0.066  53.140  1.00  0.00    -0.244 NA
HETATM    8  C11 UNL     1      20.507  -0.981  54.062  1.00  0.00     0.232 A 
HETATM    9  N3  UNL     1      21.483  -1.537  54.795  1.00  0.00    -0.253 NA
HETATM   10  C12 UNL     1      22.782  -1.211  54.796  1.00  0.00     0.131 A 
HETATM   11  C13 UNL     1      22.999  -0.195  53.917  1.00  0.00     0.008 A 
HETATM   12  C14 UNL     1      24.388   0.279  53.497  1.00  0.00     0.028 C 
HETATM   13  C15 UNL     1      24.683   1.066  52.381  1.00  0.00     0.016 C 
ENDROOT
BRANCH   1  14
HETATM   14  N1  UNL     1      24.957   3.235  51.448  1.00  0.00    -0.280 NA
HETATM   15  C4  UNL     1      24.590   4.366  50.993  1.00  0.00     0.112 C 
BRANCH  15  16
HETATM   16  C3  UNL     1      23.282   4.920  50.679  1.00  0.00     0.014 C 
HETATM   17  C2  UNL     1      22.959   6.111  51.156  1.00  0.00    -0.029 C 
HETATM   18  C1  UNL     1      21.629   6.684  50.841  1.00  0.00     0.036 C 
ENDBRANCH  15  16
ENDBRANCH   1  14
BRANCH  13  19
HETATM   19  C16 UNL     1      25.990   0.615  51.839  1.00  0.00     0.268 C 
HETATM   20  O1  UNL     1      26.598  -0.397  52.212  1.00  0.00    -0.302 OA
ENDBRANCH  13  19
TORSDOF 3
ENDMDL
MODEL 5
REMARK VINA RESULT:      -6.7      3.211      6.907
REMARK  3 active torsions:
REMARK  status: ('A' for Active; 'I' for Inactive)
REMARK    1  A    between atoms: C3_3  and  C4_4 
REMARK    2  A    between atoms: N1_5  and  C5_6 
REMARK    3  A    between atoms: C15_18  and  C16_19 
ROOT
HETATM    1  C5  UNL     1      24.371   2.174  51.753  1.00  0.00     0.103 A 
HETATM    2  C6  UNL     1      24.265   2.859  53.092  1.00  0.00     0.011 C 
HETATM    3  C7  UNL     1      23.700   3.994  52.698  1.00  0.00    -0.004 C 
HETATM    4  C8  UNL     1      22.929   3.210  51.720  1.00  0.00     0.075 A 
HETATM    5  C9  UNL     1      22.932   1.888  51.547  1.00  0.00     0.010 A 
HETATM    6  C10 UNL     1      22.430   4.201  50.650  1.00  0.00     0.067 A 
HETATM    7  N2  UNL     1      21.385   4.981  50.916  1.00  0.00    -0.244 NA
HETATM    8  C11 UNL     1      21.142   5.772  49.786  1.00  0.00     0.232 A 
HETATM    9  N3  UNL     1      21.823   5.764  48.630  1.00  0.00    -0.253 NA
HETATM   10  C12 UNL     1      22.878   5.002  48.315  1.00  0.00     0.131 A 
HETATM   11  C13 UNL     1      23.190   4.197  49.368  1.00  0.00     0.008 A 
HETATM   12  C14 UNL     1      24.465   3.361  49.446  1.00  0.00     0.028 C 
HETATM   13  C15 UNL     1      25.001   2.788  50.602  1.00  0.00     0.016 C 
ENDROOT
BRANCH   1  14
HETATM   14  N1  UNL     1      25.104   0.929  52.079  1.00  0.00    -0.280 NA
HETATM   15  C4  UNL     1      24.654   0.093  52.928  1.00  0.00     0.112 C 
BRANCH  15  16
HETATM   16  C3  UNL     1      23.450   0.075  53.744  1.00  0.00     0.014 C 
HETATM   17  C2  UNL     1      22.699  -1.015  53.754  1.00  0.00    -0.029 C 
HETATM   18  C1  UNL     1      21.471  -1.043  54.583  1.00  0.00     0.036 C 
ENDBRANCH  15  16
ENDBRANCH   1  14
BRANCH  13  19
HETATM   19  C16 UNL     1      26.481   2.847  50.495  1.00  0.00     0.268 C 
HETATM   20  O1  UNL     1      27.110   3.711  49.871  1.00  0.00    -0.302 OA
ENDBRANCH  13  19
TORSDOF 3
ENDMDL
MODEL 6
REMARK VINA RESULT:      -6.7      2.855      6.297
REMARK  3 active torsions:
REMARK  status: ('A' for Active; 'I' for Inactive)
REMARK    1  A    between atoms: C3_3  and  C4_4 
REMARK    2  A    between atoms: N1_5  and  C5_6 
REMARK    3  A    between atoms: C15_18  and  C16_19 
ROOT
HETATM    1  C5  UNL     1      24.871   2.674  51.764  1.00  0.00     0.103 A 
HETATM    2  C6  UNL     1      24.156   3.325  52.923  1.00  0.00     0.011 C 
HETATM    3  C7  UNL     1      22.935   3.384  52.404  1.00  0.00    -0.004 C 
HETATM    4  C8  UNL     1      23.196   2.081  51.772  1.00  0.00     0.075 A 
HETATM    5  C9  UNL     1      24.284   1.319  51.887  1.00  0.00     0.010 A 
HETATM    6  C10 UNL     1      22.180   1.933  50.623  1.00  0.00     0.067 A 
HETATM    7  N2  UNL     1      20.922   1.597  50.901  1.00  0.00    -0.244 NA
HETATM    8  C11 UNL     1      20.219   1.528  49.691  1.00  0.00     0.232 A 
HETATM    9  N3  UNL     1      20.702   1.752  48.460  1.00  0.00    -0.253 NA
HETATM   10  C12 UNL     1      21.955   2.092  48.130  1.00  0.00     0.131 A 
HETATM   11  C13 UNL     1      22.714   2.188  49.256  1.00  0.00     0.008 A 
HETATM   12  C14 UNL     1      24.126   2.770  49.278  1.00  0.00     0.028 C 
HETATM   13  C15 UNL     1      24.818   3.197  50.414  1.00  0.00     0.016 C 
ENDROOT
BRANCH   1  14
HETATM   14  N1  UNL     1      26.283   2.670  52.210  1.00  0.00    -0.280 NA
HETATM   15  C4  UNL     1      26.966   1.595  52.246  1.00  0.00     0.112 C 
BRANCH  15  16
HETATM   16  C3  UNL     1      26.646   0.216  51.914  1.00  0.00     0.014 C 
HETATM   17  C2  UNL     1      27.145  -0.756  52.662  1.00  0.00    -0.029 C 
HETATM   18  C1  UNL     1      26.824  -2.164  52.332  1.00  0.00     0.036 C 
ENDBRANCH  15  16
ENDBRANCH   1  14
BRANCH  13  19
HETATM   19  C16 UNL     1      25.635   4.377  50.031  1.00  0.00     0.268 C 
HETATM   20  O1  UNL     1      25.414   5.538  50.399  1.00  0.00    -0.302 OA
ENDBRANCH  13  19
TORSDOF 3
ENDMDL
MODEL 7
REMARK VINA RESULT:      -6.6      2.280      5.686
REMARK  3 active torsions:
REMARK  status: ('A' for Active; 'I' for Inactive)
REMARK    1  A    between atoms: C3_3  and  C4_4 
REMARK    2  A    between atoms: N1_5  and  C5_6 
REMARK    3  A    between atoms: C15_18  and  C16_19 
ROOT
HETATM    1  C5  UNL     1      24.769   1.035  53.151  1.00  0.00     0.103 A 
HETATM    2  C6  UNL     1      25.790   0.846  52.056  1.00  0.00     0.011 C 
HETATM    3  C7  UNL     1      25.348   1.763  51.203  1.00  0.00    -0.004 C 
HETATM    4  C8  UNL     1      25.017   2.607  52.362  1.00  0.00     0.075 A 
HETATM    5  C9  UNL     1      25.236   2.349  53.651  1.00  0.00     0.010 A 
HETATM    6  C10 UNL     1      23.999   3.655  51.871  1.00  0.00     0.067 A 
HETATM    7  N2  UNL     1      24.424   4.704  51.171  1.00  0.00    -0.244 NA
HETATM    8  C11 UNL     1      23.309   5.491  50.858  1.00  0.00     0.232 A 
HETATM    9  N3  UNL     1      22.031   5.256  51.193  1.00  0.00    -0.253 NA
HETATM   10  C12 UNL     1      21.554   4.218  51.892  1.00  0.00     0.131 A 
HETATM   11  C13 UNL     1      22.578   3.390  52.237  1.00  0.00     0.008 A 
HETATM   12  C14 UNL     1      22.379   2.003  52.843  1.00  0.00     0.028 C 
HETATM   13  C15 UNL     1      23.341   0.992  52.910  1.00  0.00     0.016 C 
ENDROOT
BRANCH   1  14
HETATM   14  N1  UNL     1      25.115  -0.038  54.111  1.00  0.00    -0.280 NA
HETATM   15  C4  UNL     1      26.326  -0.320  54.387  1.00  0.00     0.112 C 
BRANCH  15  16
HETATM   16  C3  UNL     1      27.592   0.228  53.926  1.00  0.00     0.014 C 
HETATM   17  C2  UNL     1      28.674  -0.533  53.970  1.00  0.00    -0.029 C 
HETATM   18  C1  UNL     1      29.968   0.017  53.502  1.00  0.00     0.036 C 
ENDBRANCH  15  16
ENDBRANCH   1  14
BRANCH  13  19
HETATM   19  C16 UNL     1      22.648  -0.308  52.725  1.00  0.00     0.268 C 
HETATM   20  O1  UNL     1      21.802  -0.775  53.500  1.00  0.00    -0.302 OA
ENDBRANCH  13  19
TORSDOF 3
ENDMDL
MODEL 8
REMARK VINA RESULT:      -6.6      2.622      3.502
REMARK  3 active torsions:
REMARK  status: ('A' for Active; 'I' for Inactive)
REMARK    1  A    between atoms: C3_3  and  C4_4 
REMARK    2  A    between atoms: N1_5  and  C5_6 
REMARK    3  A    between atoms: C15_18  and  C16_19 
ROOT
HETATM    1  C5  UNL     1      22.539   0.877  52.268  1.00  0.00     0.103 A 
HETATM    2  C6  UNL     1      22.202   2.344  52.360  1.00  0.00     0.011 C 
HETATM    3  C7  UNL     1      23.262   2.754  53.047  1.00  0.00    -0.004 C 
HETATM    4  C8  UNL     1      24.066   1.783  52.289  1.00  0.00     0.075 A 
HETATM    5  C9  UNL     1      23.662   0.976  51.307  1.00  0.00     0.010 A 
HETATM    6  C10 UNL     1      25.359   1.551  53.095  1.00  0.00     0.067 A 
HETATM    7  N2  UNL     1      26.330   2.460  53.050  1.00  0.00    -0.244 NA
HETATM    8  C11 UNL     1      27.380   2.006  53.859  1.00  0.00     0.232 A 
HETATM    9  N3  UNL     1      27.425   0.864  54.562  1.00  0.00    -0.253 NA
HETATM   10  C12 UNL     1      26.476  -0.078  54.641  1.00  0.00     0.131 A 
HETATM   11  C13 UNL     1      25.406   0.286  53.882  1.00  0.00     0.008 A 
HETATM   12  C14 UNL     1      24.062  -0.435  53.912  1.00  0.00     0.028 C 
HETATM   13  C15 UNL     1      22.851   0.067  53.428  1.00  0.00     0.016 C 
ENDROOT
BRANCH   1  14
HETATM   14  N1  UNL     1      21.342   0.306  51.607  1.00  0.00    -0.280 NA
HETATM   15  C4  UNL     1      20.942   0.728  50.473  1.00  0.00     0.112 C 
BRANCH  15  16
HETATM   16  C3  UNL     1      21.445   1.756  49.575  1.00  0.00     0.014 C 
HETATM   17  C2  UNL     1      21.767   1.422  48.336  1.00  0.00    -0.029 C 
HETATM   18  C1  UNL     1      22.280   2.462  47.414  1.00  0.00     0.036 C 
ENDBRANCH  15  16
ENDBRANCH   1  14
BRANCH  13  19
HETATM   19  C16 UNL     1      21.768  -0.414  54.324  1.00  0.00     0.268 C 
HETATM   20  O1  UNL     1      21.014   0.319  54.977  1.00  0.00    -0.302 OA
ENDBRANCH  13  19
TORSDOF 3
ENDMDL
MODEL 9
REMARK VINA RESULT:      -6.6      3.522      6.380
REMARK  3 active torsions:
REMARK  status: ('A' for Active; 'I' for Inactive)
REMARK    1  A    between atoms: C3_3  and  C4_4 
REMARK    2  A    between atoms: N1_5  and  C5_6 
REMARK    3  A    between atoms: C15_18  and  C16_19 
ROOT
HETATM    1  C5  UNL     1      22.376   1.687  51.269  1.00  0.00     0.103 A 
HETATM    2  C6  UNL     1      21.965   1.362  49.855  1.00  0.00     0.011 C 
HETATM    3  C7  UNL     1      22.282   2.516  49.279  1.00  0.00    -0.004 C 
HETATM    4  C8  UNL     1      23.448   2.584  50.173  1.00  0.00     0.075 A 
HETATM    5  C9  UNL     1      23.844   1.681  51.071  1.00  0.00     0.010 A 
HETATM    6  C10 UNL     1      23.905   4.055  50.198  1.00  0.00     0.067 A 
HETATM    7  N2  UNL     1      24.604   4.542  49.175  1.00  0.00    -0.244 NA
HETATM    8  C11 UNL     1      24.891   5.885  49.452  1.00  0.00     0.232 A 
HETATM    9  N3  UNL     1      24.538   6.580  50.543  1.00  0.00    -0.253 NA
HETATM   10  C12 UNL     1      23.836   6.138  51.595  1.00  0.00     0.131 A 
HETATM   11  C13 UNL     1      23.508   4.830  51.408  1.00  0.00     0.008 A 
HETATM   12  C14 UNL     1      22.526   4.069  52.295  1.00  0.00     0.028 C 
HETATM   13  C15 UNL     1      21.902   2.859  51.976  1.00  0.00     0.016 C 
ENDROOT
BRANCH   1  14
HETATM   14  N1  UNL     1      21.950   0.484  52.020  1.00  0.00    -0.280 NA
HETATM   15  C4  UNL     1      22.660  -0.002  52.959  1.00  0.00     0.112 C 
BRANCH  15  16
HETATM   16  C3  UNL     1      23.937   0.395  53.530  1.00  0.00     0.014 C 
HETATM   17  C2  UNL     1      24.798  -0.544  53.891  1.00  0.00    -0.029 C 
HETATM   18  C1  UNL     1      26.102  -0.149  54.474  1.00  0.00     0.036 C 
ENDBRANCH  15  16
ENDBRANCH   1  14
BRANCH  13  19
HETATM   19  C16 UNL     1      20.532   2.890  52.550  1.00  0.00     0.268 C 
HETATM   20  O1  UNL     1      19.597   3.570  52.108  1.00  0.00    -0.302 OA
ENDBRANCH  13  19
TORSDOF 3
ENDMDL
