MODEL 1
REMARK VINA RESULT:      -9.3      0.000      0.000
REMARK  2 active torsions:
REMARK  status: ('A' for Active; 'I' for Inactive)
REMARK    1  A    between atoms: C9_9  and  N1_10 
REMARK    2  A    between atoms: N1_10  and  C10_11 
ROOT
HETATM    1  C10 UNL     1      25.671   2.547  52.289  1.00  0.00     0.025 C 
HETATM    2  P1  UNL     1      26.710   1.291  51.942  1.00  0.00     0.011 P 
HETATM    3  C11 UNL     1      26.521  -0.257  52.903  1.00  0.00     0.130 C 
HETATM    4  N2  UNL     1      26.044  -1.082  53.735  1.00  0.00    -0.274 NA
HETATM    5  C12 UNL     1      24.930  -0.904  54.592  1.00  0.00     0.323 C 
HETATM    6  O1  UNL     1      23.704  -0.713  53.987  1.00  0.00    -0.330 OA
HETATM    7  C13 UNL     1      23.247   0.236  53.123  1.00  0.00     0.077 A 
HETATM    8  C14 UNL     1      22.182  -0.371  52.439  1.00  0.00     0.037 A 
HETATM    9  C15 UNL     1      21.415   0.252  51.443  1.00  0.00     0.003 A 
HETATM   10  C16 UNL     1      21.745   1.553  51.130  1.00  0.00     0.001 A 
HETATM   11  C17 UNL     1      22.789   2.150  51.800  1.00  0.00     0.010 A 
HETATM   12  C18 UNL     1      23.540   1.537  52.775  1.00  0.00    -0.019 A 
HETATM   13  C19 UNL     1      24.621   2.345  53.357  1.00  0.00     0.099 C 
ENDROOT
BRANCH   1  14
HETATM   14  N1  UNL     1      26.001   3.615  51.435  1.00  0.00    -0.380 N 
HETATM   15  H8  UNL     1      26.583   4.189  52.118  1.00  0.00     0.160 HD
BRANCH  14  16
HETATM   16  C9  UNL     1      25.808   4.100  50.081  1.00  0.00     0.139 A 
HETATM   17  C8  UNL     1      25.160   5.427  50.117  1.00  0.00    -0.022 A 
HETATM   18  C3  UNL     1      25.350   6.662  49.540  1.00  0.00    -0.028 A 
HETATM   19  C7  UNL     1      24.093   5.251  51.008  1.00  0.00     0.010 A 
HETATM   20  C2  UNL     1      26.418   6.975  48.600  1.00  0.00     0.012 A 
HETATM   21  C4  UNL     1      24.521   7.736  49.810  1.00  0.00     0.012 A 
HETATM   22  C1  UNL     1      27.425   6.218  48.189  1.00  0.00     0.001 A 
HETATM   23  C21 UNL     1      27.811   4.852  48.520  1.00  0.00    -0.002 A 
HETATM   24  C20 UNL     1      27.064   4.084  49.306  1.00  0.00     0.003 A 
HETATM   25  C5  UNL     1      23.477   7.550  50.687  1.00  0.00     0.001 A 
HETATM   26  C6  UNL     1      23.246   6.325  51.292  1.00  0.00     0.001 A 
ENDBRANCH  14  16
ENDBRANCH   1  14
TORSDOF 2
ENDMDL
MODEL 2
REMARK VINA RESULT:      -9.0      3.310      7.305
REMARK  2 active torsions:
REMARK  status: ('A' for Active; 'I' for Inactive)
REMARK    1  A    between atoms: C9_9  and  N1_10 
REMARK    2  A    between atoms: N1_10  and  C10_11 
ROOT
HETATM    1  C10 UNL     1      23.303   3.956  51.337  1.00  0.00     0.025 C 
HETATM    2  P1  UNL     1      22.144   5.062  51.797  1.00  0.00     0.011 P 
HETATM    3  C11 UNL     1      22.035   6.623  50.845  1.00  0.00     0.130 C 
HETATM    4  N2  UNL     1      22.285   7.485  49.953  1.00  0.00    -0.274 NA
HETATM    5  C12 UNL     1      23.233   7.396  48.904  1.00  0.00     0.323 C 
HETATM    6  O1  UNL     1      23.036   6.400  47.970  1.00  0.00    -0.330 OA
HETATM    7  C13 UNL     1      22.964   5.043  48.079  1.00  0.00     0.077 A 
HETATM    8  C14 UNL     1      22.214   4.624  46.969  1.00  0.00     0.037 A 
HETATM    9  C15 UNL     1      21.892   3.289  46.683  1.00  0.00     0.003 A 
HETATM   10  C16 UNL     1      22.354   2.336  47.566  1.00  0.00     0.001 A 
HETATM   11  C17 UNL     1      23.090   2.747  48.655  1.00  0.00     0.010 A 
HETATM   12  C18 UNL     1      23.404   4.056  48.933  1.00  0.00    -0.019 A 
HETATM   13  C19 UNL     1      24.188   4.283  50.155  1.00  0.00     0.099 C 
ENDROOT
BRANCH   1  14
HETATM   14  N1  UNL     1      23.198   2.850  52.200  1.00  0.00    -0.380 N 
HETATM   15  H8  UNL     1      23.504   3.325  53.103  1.00  0.00     0.160 HD
BRANCH  14  16
HETATM   16  C9  UNL     1      22.842   1.444  52.220  1.00  0.00     0.139 A 
HETATM   17  C8  UNL     1      23.987   0.650  52.711  1.00  0.00    -0.022 A 
HETATM   18  C3  UNL     1      24.206  -0.348  53.634  1.00  0.00    -0.028 A 
HETATM   19  C7  UNL     1      25.071   1.137  51.968  1.00  0.00     0.010 A 
HETATM   20  C2  UNL     1      23.168  -0.939  54.467  1.00  0.00     0.012 A 
HETATM   21  C4  UNL     1      25.462  -0.885  53.852  1.00  0.00     0.012 A 
HETATM   22  C1  UNL     1      21.889  -0.610  54.578  1.00  0.00     0.001 A 
HETATM   23  C21 UNL     1      21.093   0.424  53.928  1.00  0.00    -0.002 A 
HETATM   24  C20 UNL     1      21.597   1.201  52.976  1.00  0.00     0.003 A 
HETATM   25  C5  UNL     1      26.518  -0.398  53.116  1.00  0.00     0.001 A 
HETATM   26  C6  UNL     1      26.346   0.604  52.175  1.00  0.00     0.001 A 
ENDBRANCH  14  16
ENDBRANCH   1  14
TORSDOF 2
ENDMDL
MODEL 3
REMARK VINA RESULT:      -8.8      2.361      4.128
REMARK  2 active torsions:
REMARK  status: ('A' for Active; 'I' for Inactive)
REMARK    1  A    between atoms: C9_9  and  N1_10 
REMARK    2  A    between atoms: N1_10  and  C10_11 
ROOT
HETATM    1  C10 UNL     1      22.269   3.355  50.442  1.00  0.00     0.025 C 
HETATM    2  P1  UNL     1      21.027   3.956  51.377  1.00  0.00     0.011 P 
HETATM    3  C11 UNL     1      19.760   2.771  51.968  1.00  0.00     0.130 C 
HETATM    4  N2  UNL     1      19.170   1.669  52.161  1.00  0.00    -0.274 NA
HETATM    5  C12 UNL     1      19.572   0.382  51.724  1.00  0.00     0.323 C 
HETATM    6  O1  UNL     1      20.764  -0.100  52.224  1.00  0.00    -0.330 OA
HETATM    7  C13 UNL     1      22.042   0.369  52.157  1.00  0.00     0.077 A 
HETATM    8  C14 UNL     1      22.695  -0.186  53.269  1.00  0.00     0.037 A 
HETATM    9  C15 UNL     1      24.042   0.036  53.594  1.00  0.00     0.003 A 
HETATM   10  C16 UNL     1      24.757   0.859  52.750  1.00  0.00     0.001 A 
HETATM   11  C17 UNL     1      24.116   1.404  51.660  1.00  0.00     0.010 A 
HETATM   12  C18 UNL     1      22.796   1.186  51.344  1.00  0.00    -0.019 A 
HETATM   13  C19 UNL     1      22.300   1.874  50.143  1.00  0.00     0.099 C 
ENDROOT
BRANCH   1  14
HETATM   14  N1  UNL     1      23.109   4.434  50.113  1.00  0.00    -0.380 N 
HETATM   15  H8  UNL     1      22.976   4.421  49.056  1.00  0.00     0.160 HD
BRANCH  14  16
HETATM   16  C9  UNL     1      23.985   5.427  50.708  1.00  0.00     0.139 A 
HETATM   17  C8  UNL     1      25.259   5.475  49.962  1.00  0.00    -0.022 A 
HETATM   18  C3  UNL     1      26.075   6.438  49.413  1.00  0.00    -0.028 A 
HETATM   19  C7  UNL     1      25.625   4.127  49.845  1.00  0.00     0.010 A 
HETATM   20  C2  UNL     1      25.808   7.869  49.466  1.00  0.00     0.012 A 
HETATM   21  C4  UNL     1      27.246   6.119  48.750  1.00  0.00     0.012 A 
HETATM   22  C1  UNL     1      24.751   8.511  49.943  1.00  0.00     0.001 A 
HETATM   23  C21 UNL     1      23.522   8.030  50.562  1.00  0.00    -0.002 A 
HETATM   24  C20 UNL     1      23.327   6.743  50.825  1.00  0.00     0.003 A 
HETATM   25  C5  UNL     1      27.594   4.792  48.641  1.00  0.00     0.001 A 
HETATM   26  C6  UNL     1      26.805   3.788  49.178  1.00  0.00     0.001 A 
ENDBRANCH  14  16
ENDBRANCH   1  14
TORSDOF 2
ENDMDL
MODEL 4
REMARK VINA RESULT:      -8.6      2.885      7.568
REMARK  2 active torsions:
REMARK  status: ('A' for Active; 'I' for Inactive)
REMARK    1  A    between atoms: C9_9  and  N1_10 
REMARK    2  A    between atoms: N1_10  and  C10_11 
ROOT
HETATM    1  C10 UNL     1      22.422   3.413  51.581  1.00  0.00     0.025 C 
HETATM    2  P1  UNL     1      21.470   3.236  50.225  1.00  0.00     0.011 P 
HETATM    3  C11 UNL     1      21.514   4.575  48.975  1.00  0.00     0.130 C 
HETATM    4  N2  UNL     1      21.856   5.653  48.409  1.00  0.00    -0.274 NA
HETATM    5  C12 UNL     1      22.809   6.602  48.853  1.00  0.00     0.323 C 
HETATM    6  O1  UNL     1      24.116   6.170  48.953  1.00  0.00    -0.330 OA
HETATM    7  C13 UNL     1      24.700   5.177  49.681  1.00  0.00     0.077 A 
HETATM    8  C14 UNL     1      25.870   4.847  48.980  1.00  0.00     0.037 A 
HETATM    9  C15 UNL     1      26.786   3.860  49.378  1.00  0.00     0.003 A 
HETATM   10  C16 UNL     1      26.497   3.179  50.541  1.00  0.00     0.001 A 
HETATM   11  C17 UNL     1      25.349   3.502  51.228  1.00  0.00     0.010 A 
HETATM   12  C18 UNL     1      24.454   4.469  50.837  1.00  0.00    -0.019 A 
HETATM   13  C19 UNL     1      23.282   4.650  51.706  1.00  0.00     0.099 C 
ENDROOT
BRANCH   1  14
HETATM   14  N1  UNL     1      22.227   2.275  52.385  1.00  0.00    -0.380 N 
HETATM   15  H8  UNL     1      22.177   2.759  53.333  1.00  0.00     0.160 HD
BRANCH  14  16
HETATM   16  C9  UNL     1      22.092   0.832  52.313  1.00  0.00     0.139 A 
HETATM   17  C8  UNL     1      23.082   0.197  53.206  1.00  0.00    -0.022 A 
HETATM   18  C3  UNL     1      23.093  -0.784  54.172  1.00  0.00    -0.028 A 
HETATM   19  C7  UNL     1      24.280   0.853  52.891  1.00  0.00     0.010 A 
HETATM   20  C2  UNL     1      21.919  -1.538  54.590  1.00  0.00     0.012 A 
HETATM   21  C4  UNL     1      24.248  -1.143  54.843  1.00  0.00     0.012 A 
HETATM   22  C1  UNL     1      20.653  -1.398  54.222  1.00  0.00     0.001 A 
HETATM   23  C21 UNL     1      20.008  -0.470  53.301  1.00  0.00    -0.002 A 
HETATM   24  C20 UNL     1      20.706   0.395  52.575  1.00  0.00     0.003 A 
HETATM   25  C5  UNL     1      25.417  -0.491  54.526  1.00  0.00     0.001 A 
HETATM   26  C6  UNL     1      25.456   0.501  53.559  1.00  0.00     0.001 A 
ENDBRANCH  14  16
ENDBRANCH   1  14
TORSDOF 2
ENDMDL
MODEL 5
REMARK VINA RESULT:      -8.5      3.155      7.799
REMARK  2 active torsions:
REMARK  status: ('A' for Active; 'I' for Inactive)
REMARK    1  A    between atoms: C9_9  and  N1_10 
REMARK    2  A    between atoms: N1_10  and  C10_11 
ROOT
HETATM    1  C10 UNL     1      21.714   3.105  50.952  1.00  0.00     0.025 C 
HETATM    2  P1  UNL     1      21.296   2.947  49.347  1.00  0.00     0.011 P 
HETATM    3  C11 UNL     1      22.010   4.149  48.161  1.00  0.00     0.130 C 
HETATM    4  N2  UNL     1      22.708   5.111  47.728  1.00  0.00    -0.274 NA
HETATM    5  C12 UNL     1      23.584   5.946  48.464  1.00  0.00     0.323 C 
HETATM    6  O1  UNL     1      24.675   5.340  49.051  1.00  0.00    -0.330 OA
HETATM    7  C13 UNL     1      24.783   4.342  49.972  1.00  0.00     0.077 A 
HETATM    8  C14 UNL     1      26.054   3.784  49.762  1.00  0.00     0.037 A 
HETATM    9  C15 UNL     1      26.586   2.714  50.498  1.00  0.00     0.003 A 
HETATM   10  C16 UNL     1      25.790   2.189  51.494  1.00  0.00     0.001 A 
HETATM   11  C17 UNL     1      24.544   2.736  51.700  1.00  0.00     0.010 A 
HETATM   12  C18 UNL     1      24.024   3.784  50.978  1.00  0.00    -0.019 A 
HETATM   13  C19 UNL     1      22.667   4.210  51.347  1.00  0.00     0.099 C 
ENDROOT
BRANCH   1  14
HETATM   14  N1  UNL     1      21.056   2.085  51.662  1.00  0.00    -0.380 N 
HETATM   15  H8  UNL     1      20.862   2.619  52.563  1.00  0.00     0.160 HD
BRANCH  14  16
HETATM   16  C9  UNL     1      20.621   0.706  51.544  1.00  0.00     0.139 A 
HETATM   17  C8  UNL     1      21.097  -0.065  52.710  1.00  0.00    -0.022 A 
HETATM   18  C3  UNL     1      20.570  -0.951  53.623  1.00  0.00    -0.028 A 
HETATM   19  C7  UNL     1      22.450   0.287  52.810  1.00  0.00     0.010 A 
HETATM   20  C2  UNL     1      19.183  -1.398  53.628  1.00  0.00     0.012 A 
HETATM   21  C4  UNL     1      21.333  -1.506  54.635  1.00  0.00     0.012 A 
HETATM   22  C1  UNL     1      18.172  -1.010  52.865  1.00  0.00     0.001 A 
HETATM   23  C21 UNL     1      18.089  -0.033  51.786  1.00  0.00    -0.002 A 
HETATM   24  C20 UNL     1      19.163   0.604  51.334  1.00  0.00     0.003 A 
HETATM   25  C5  UNL     1      22.659  -1.151  54.723  1.00  0.00     0.001 A 
HETATM   26  C6  UNL     1      23.235  -0.264  53.827  1.00  0.00     0.001 A 
ENDBRANCH  14  16
ENDBRANCH   1  14
TORSDOF 2
ENDMDL
MODEL 6
REMARK VINA RESULT:      -8.3      3.354      7.223
REMARK  2 active torsions:
REMARK  status: ('A' for Active; 'I' for Inactive)
REMARK    1  A    between atoms: C9_9  and  N1_10 
REMARK    2  A    between atoms: N1_10  and  C10_11 
ROOT
HETATM    1  C10 UNL     1      22.326   3.086  49.916  1.00  0.00     0.025 C 
HETATM    2  P1  UNL     1      22.332   2.241  48.480  1.00  0.00     0.011 P 
HETATM    3  C11 UNL     1      21.934   3.165  46.949  1.00  0.00     0.130 C 
HETATM    4  N2  UNL     1      21.648   4.141  46.198  1.00  0.00    -0.274 NA
HETATM    5  C12 UNL     1      21.469   5.497  46.568  1.00  0.00     0.323 C 
HETATM    6  O1  UNL     1      22.565   6.148  47.097  1.00  0.00    -0.330 OA
HETATM    7  C13 UNL     1      23.332   5.904  48.196  1.00  0.00     0.077 A 
HETATM    8  C14 UNL     1      24.571   6.505  47.920  1.00  0.00     0.037 A 
HETATM    9  C15 UNL     1      25.672   6.497  48.790  1.00  0.00     0.003 A 
HETATM   10  C16 UNL     1      25.506   5.848  49.994  1.00  0.00     0.001 A 
HETATM   11  C17 UNL     1      24.292   5.258  50.265  1.00  0.00     0.010 A 
HETATM   12  C18 UNL     1      23.215   5.267  49.412  1.00  0.00    -0.019 A 
HETATM   13  C19 UNL     1      22.013   4.565  49.885  1.00  0.00     0.099 C 
ENDROOT
BRANCH   1  14
HETATM   14  N1  UNL     1      22.658   2.181  50.940  1.00  0.00    -0.380 N 
HETATM   15  H8  UNL     1      21.979   1.401  50.688  1.00  0.00     0.160 HD
BRANCH  14  16
HETATM   16  C9  UNL     1      23.535   2.018  52.085  1.00  0.00     0.139 A 
HETATM   17  C8  UNL     1      23.019   0.943  52.956  1.00  0.00    -0.022 A 
HETATM   18  C3  UNL     1      23.517  -0.173  53.591  1.00  0.00    -0.028 A 
HETATM   19  C7  UNL     1      21.659   1.252  53.094  1.00  0.00     0.010 A 
HETATM   20  C2  UNL     1      24.907  -0.602  53.528  1.00  0.00     0.012 A 
HETATM   21  C4  UNL     1      22.717  -0.999  54.360  1.00  0.00     0.012 A 
HETATM   22  C1  UNL     1      25.912  -0.100  52.825  1.00  0.00     0.001 A 
HETATM   23  C21 UNL     1      25.981   1.021  51.896  1.00  0.00    -0.002 A 
HETATM   24  C20 UNL     1      24.940   1.816  51.678  1.00  0.00     0.003 A 
HETATM   25  C5  UNL     1      21.384  -0.685  54.487  1.00  0.00     0.001 A 
HETATM   26  C6  UNL     1      20.838   0.428  53.868  1.00  0.00     0.001 A 
ENDBRANCH  14  16
ENDBRANCH   1  14
TORSDOF 2
ENDMDL
MODEL 7
REMARK VINA RESULT:      -8.3      3.090      6.818
REMARK  2 active torsions:
REMARK  status: ('A' for Active; 'I' for Inactive)
REMARK    1  A    between atoms: C9_9  and  N1_10 
REMARK    2  A    between atoms: N1_10  and  C10_11 
ROOT
HETATM    1  C10 UNL     1      24.492   3.934  50.789  1.00  0.00     0.025 C 
HETATM    2  P1  UNL     1      23.699   5.067  51.719  1.00  0.00     0.011 P 
HETATM    3  C11 UNL     1      23.271   6.665  50.931  1.00  0.00     0.130 C 
HETATM    4  N2  UNL     1      23.160   7.547  50.032  1.00  0.00    -0.274 NA
HETATM    5  C12 UNL     1      23.561   7.460  48.676  1.00  0.00     0.323 C 
HETATM    6  O1  UNL     1      22.934   6.506  47.902  1.00  0.00    -0.330 OA
HETATM    7  C13 UNL     1      22.848   5.150  48.009  1.00  0.00     0.077 A 
HETATM    8  C14 UNL     1      21.675   4.801  47.322  1.00  0.00     0.037 A 
HETATM    9  C15 UNL     1      21.194   3.490  47.180  1.00  0.00     0.003 A 
HETATM   10  C16 UNL     1      21.941   2.489  47.764  1.00  0.00     0.001 A 
HETATM   11  C17 UNL     1      23.091   2.832  48.439  1.00  0.00     0.010 A 
HETATM   12  C18 UNL     1      23.560   4.116  48.576  1.00  0.00    -0.019 A 
HETATM   13  C19 UNL     1      24.802   4.269  49.348  1.00  0.00     0.099 C 
ENDROOT
BRANCH   1  14
HETATM   14  N1  UNL     1      24.711   2.804  51.596  1.00  0.00    -0.380 N 
HETATM   15  H8  UNL     1      25.051   2.134  50.841  1.00  0.00     0.160 HD
BRANCH  14  16
HETATM   16  C9  UNL     1      24.622   2.342  52.969  1.00  0.00     0.139 A 
HETATM   17  C8  UNL     1      23.767   1.140  53.033  1.00  0.00    -0.022 A 
HETATM   18  C3  UNL     1      23.825  -0.116  53.594  1.00  0.00    -0.028 A 
HETATM   19  C7  UNL     1      22.634   1.498  52.289  1.00  0.00     0.010 A 
HETATM   20  C2  UNL     1      24.943  -0.610  54.388  1.00  0.00     0.012 A 
HETATM   21  C4  UNL     1      22.803  -1.036  53.447  1.00  0.00     0.012 A 
HETATM   22  C1  UNL     1      26.106  -0.033  54.654  1.00  0.00     0.001 A 
HETATM   23  C21 UNL     1      26.663   1.255  54.259  1.00  0.00    -0.002 A 
HETATM   24  C20 UNL     1      25.954   2.143  53.571  1.00  0.00     0.003 A 
HETATM   25  C5  UNL     1      21.697  -0.673  52.714  1.00  0.00     0.001 A 
HETATM   26  C6  UNL     1      21.592   0.581  52.132  1.00  0.00     0.001 A 
ENDBRANCH  14  16
ENDBRANCH   1  14
TORSDOF 2
ENDMDL
MODEL 8
REMARK VINA RESULT:      -8.2      4.394      7.398
REMARK  2 active torsions:
REMARK  status: ('A' for Active; 'I' for Inactive)
REMARK    1  A    between atoms: C9_9  and  N1_10 
REMARK    2  A    between atoms: N1_10  and  C10_11 
ROOT
HETATM    1  C10 UNL     1      19.840   1.810  50.839  1.00  0.00     0.025 C 
HETATM    2  P1  UNL     1      19.507   3.305  51.498  1.00  0.00     0.011 P 
HETATM    3  C11 UNL     1      17.851   4.022  51.181  1.00  0.00     0.130 C 
HETATM    4  N2  UNL     1      16.663   4.112  50.757  1.00  0.00    -0.274 NA
HETATM    5  C12 UNL     1      15.930   3.151  50.020  1.00  0.00     0.323 C 
HETATM    6  O1  UNL     1      15.678   1.947  50.645  1.00  0.00    -0.330 OA
HETATM    7  C13 UNL     1      16.503   0.990  51.157  1.00  0.00     0.077 A 
HETATM    8  C14 UNL     1      15.736   0.322  52.124  1.00  0.00     0.037 A 
HETATM    9  C15 UNL     1      16.196  -0.747  52.908  1.00  0.00     0.003 A 
HETATM   10  C16 UNL     1      17.496  -1.156  52.697  1.00  0.00     0.001 A 
HETATM   11  C17 UNL     1      18.248  -0.501  51.748  1.00  0.00     0.010 A 
HETATM   12  C18 UNL     1      17.795   0.546  50.982  1.00  0.00    -0.019 A 
HETATM   13  C19 UNL     1      18.764   1.117  50.035  1.00  0.00     0.099 C 
ENDROOT
BRANCH   1  14
HETATM   14  N1  UNL     1      21.152   1.467  51.213  1.00  0.00    -0.380 N 
HETATM   15  H8  UNL     1      21.274   0.610  50.592  1.00  0.00     0.160 HD
BRANCH  14  16
HETATM   16  C9  UNL     1      22.241   1.881  52.078  1.00  0.00     0.139 A 
HETATM   17  C8  UNL     1      22.553   0.799  53.034  1.00  0.00    -0.022 A 
HETATM   18  C3  UNL     1      23.674   0.143  53.490  1.00  0.00    -0.028 A 
HETATM   19  C7  UNL     1      21.298   0.428  53.536  1.00  0.00     0.010 A 
HETATM   20  C2  UNL     1      25.032   0.432  53.050  1.00  0.00     0.012 A 
HETATM   21  C4  UNL     1      23.602  -0.871  54.428  1.00  0.00     0.012 A 
HETATM   22  C1  UNL     1      25.452   1.271  52.114  1.00  0.00     0.001 A 
HETATM   23  C21 UNL     1      24.731   2.171  51.222  1.00  0.00    -0.002 A 
HETATM   24  C20 UNL     1      23.415   2.334  51.307  1.00  0.00     0.003 A 
HETATM   25  C5  UNL     1      22.365  -1.226  54.913  1.00  0.00     0.001 A 
HETATM   26  C6  UNL     1      21.208  -0.593  54.485  1.00  0.00     0.001 A 
ENDBRANCH  14  16
ENDBRANCH   1  14
TORSDOF 2
ENDMDL
MODEL 9
REMARK VINA RESULT:      -8.2      1.247      2.793
REMARK  2 active torsions:
REMARK  status: ('A' for Active; 'I' for Inactive)
REMARK    1  A    between atoms: C9_9  and  N1_10 
REMARK    2  A    between atoms: N1_10  and  C10_11 
ROOT
HETATM    1  C10 UNL     1      25.079   3.183  51.949  1.00  0.00     0.025 C 
HETATM    2  P1  UNL     1      26.234   2.255  51.186  1.00  0.00     0.011 P 
HETATM    3  C11 UNL     1      26.789   0.727  52.031  1.00  0.00     0.130 C 
HETATM    4  N2  UNL     1      26.850  -0.187  52.904  1.00  0.00    -0.274 NA
HETATM    5  C12 UNL     1      26.079  -0.309  54.086  1.00  0.00     0.323 C 
HETATM    6  O1  UNL     1      24.718  -0.469  53.927  1.00  0.00    -0.330 OA
HETATM    7  C13 UNL     1      23.767   0.307  53.335  1.00  0.00     0.077 A 
HETATM    8  C14 UNL     1      22.735  -0.578  52.986  1.00  0.00     0.037 A 
HETATM    9  C15 UNL     1      21.545  -0.201  52.345  1.00  0.00     0.003 A 
HETATM   10  C16 UNL     1      21.398   1.137  52.045  1.00  0.00     0.001 A 
HETATM   11  C17 UNL     1      22.410   2.005  52.387  1.00  0.00     0.010 A 
HETATM   12  C18 UNL     1      23.575   1.634  53.015  1.00  0.00    -0.019 A 
HETATM   13  C19 UNL     1      24.536   2.714  53.280  1.00  0.00     0.099 C 
ENDROOT
BRANCH   1  14
HETATM   14  N1  UNL     1      24.813   4.289  51.122  1.00  0.00    -0.380 N 
HETATM   15  H8  UNL     1      25.237   3.916  50.218  1.00  0.00     0.160 HD
BRANCH  14  16
HETATM   16  C9  UNL     1      24.212   5.610  51.135  1.00  0.00     0.139 A 
HETATM   17  C8  UNL     1      24.499   6.297  49.860  1.00  0.00    -0.022 A 
HETATM   18  C3  UNL     1      23.797   7.005  48.910  1.00  0.00    -0.028 A 
HETATM   19  C7  UNL     1      25.875   6.103  49.680  1.00  0.00     0.010 A 
HETATM   20  C2  UNL     1      22.367   7.276  48.978  1.00  0.00     0.012 A 
HETATM   21  C4  UNL     1      24.405   7.530  47.784  1.00  0.00     0.012 A 
HETATM   22  C1  UNL     1      21.472   6.857  49.861  1.00  0.00     0.001 A 
HETATM   23  C21 UNL     1      21.595   6.004  51.037  1.00  0.00    -0.002 A 
HETATM   24  C20 UNL     1      22.773   5.557  51.458  1.00  0.00     0.003 A 
HETATM   25  C5  UNL     1      25.757   7.332  47.620  1.00  0.00     0.001 A 
HETATM   26  C6  UNL     1      26.506   6.628  48.549  1.00  0.00     0.001 A 
ENDBRANCH  14  16
ENDBRANCH   1  14
TORSDOF 2
ENDMDL
