MODEL 1
REMARK VINA RESULT:      -6.4      0.000      0.000
REMARK  5 active torsions:
REMARK  status: ('A' for Active; 'I' for Inactive)
REMARK    1  A    between atoms: O1_2  and  C2_3 
REMARK    2  A    between atoms: C2_3  and  C3_4 
REMARK    3  A    between atoms: C3_4  and  C4_5 
REMARK    4  A    between atoms: C4_5  and  N1_6 
REMARK    5  A    between atoms: C9_13  and  O2_14 
ROOT
HETATM    1  N1  UNL     1      24.742   1.509  53.295  1.00  0.00    -0.288 N 
HETATM    2  N2  UNL     1      25.696   2.358  53.911  1.00  0.00    -0.169 NA
HETATM    3  C5  UNL     1      26.963   2.389  53.697  1.00  0.00     0.255 C 
HETATM    4  N3  UNL     1      28.173   1.936  53.039  1.00  0.00    -0.237 NA
HETATM    5  C6  UNL     1      29.187   2.094  53.782  1.00  0.00     0.098 C 
HETATM    6  C7  UNL     1      29.135   1.283  54.816  1.00  0.00     0.006 C 
HETATM    7  C8  UNL     1      28.521   0.175  54.391  1.00  0.00     0.020 C 
HETATM    8  C9  UNL     1      28.183  -0.597  53.147  1.00  0.00     0.157 C 
HETATM    9  C10 UNL     1      26.740  -0.499  52.756  1.00  0.00     0.036 A 
HETATM   10  C11 UNL     1      26.773  -0.184  51.426  1.00  0.00    -0.029 A 
HETATM   11  C12 UNL     1      25.648   0.406  51.958  1.00  0.00     0.055 A 
HETATM   12  C13 UNL     1      25.426   0.207  53.276  1.00  0.00     0.067 A 
HETATM   13  C14 UNL     1      25.244  -0.023  54.608  1.00  0.00    -0.013 A 
HETATM   14  C15 UNL     1      26.356  -0.592  54.061  1.00  0.00     0.056 A 
ENDROOT
BRANCH   1  15
HETATM   15  C4  UNL     1      23.488   2.068  52.892  1.00  0.00     0.175 C 
BRANCH  15  16
HETATM   16  C3  UNL     1      22.469   1.065  52.566  1.00  0.00     0.018 C 
BRANCH  16  17
HETATM   17  C2  UNL     1      21.768   0.518  53.544  1.00  0.00     0.131 C 
BRANCH  17  18
HETATM   18  O1  UNL     1      21.307  -0.306  54.530  1.00  0.00    -0.368 OA
HETATM   19  C1  UNL     1      21.756  -1.640  54.719  1.00  0.00     0.208 C 
ENDBRANCH  17  18
ENDBRANCH  16  17
ENDBRANCH  15  16
ENDBRANCH   1  15
BRANCH   8  20
HETATM   20  O2  UNL     1      28.340  -1.909  53.548  1.00  0.00    -0.391 OA
HETATM   21  H11 UNL     1      28.792  -2.067  54.390  1.00  0.00     0.210 HD
ENDBRANCH   8  20
TORSDOF 5
ENDMDL
MODEL 2
REMARK VINA RESULT:      -6.4      2.341      3.442
REMARK  5 active torsions:
REMARK  status: ('A' for Active; 'I' for Inactive)
REMARK    1  A    between atoms: O1_2  and  C2_3 
REMARK    2  A    between atoms: C2_3  and  C3_4 
REMARK    3  A    between atoms: C3_4  and  C4_5 
REMARK    4  A    between atoms: C4_5  and  N1_6 
REMARK    5  A    between atoms: C9_13  and  O2_14 
ROOT
HETATM    1  N1  UNL     1      25.534   0.705  52.314  1.00  0.00    -0.288 N 
HETATM    2  N2  UNL     1      26.411  -0.249  51.741  1.00  0.00    -0.169 NA
HETATM    3  C5  UNL     1      27.234  -1.020  52.360  1.00  0.00     0.255 C 
HETATM    4  N3  UNL     1      27.869  -1.536  53.557  1.00  0.00    -0.237 NA
HETATM    5  C6  UNL     1      29.044  -1.942  53.316  1.00  0.00     0.098 C 
HETATM    6  C7  UNL     1      29.833  -0.933  53.019  1.00  0.00     0.006 C 
HETATM    7  C8  UNL     1      29.392   0.107  53.733  1.00  0.00     0.020 C 
HETATM    8  C9  UNL     1      28.582   0.460  54.948  1.00  0.00     0.157 C 
HETATM    9  C10 UNL     1      27.230   1.017  54.625  1.00  0.00     0.036 A 
HETATM   10  C11 UNL     1      26.374   0.300  55.415  1.00  0.00    -0.029 A 
HETATM   11  C12 UNL     1      25.693   0.622  54.261  1.00  0.00     0.055 A 
HETATM   12  C13 UNL     1      26.369   1.345  53.341  1.00  0.00     0.067 A 
HETATM   13  C14 UNL     1      27.092   2.075  52.444  1.00  0.00    -0.013 A 
HETATM   14  C15 UNL     1      27.749   1.738  53.591  1.00  0.00     0.056 A 
ENDROOT
BRANCH   1  15
HETATM   15  C4  UNL     1      24.199   0.800  51.804  1.00  0.00     0.175 C 
BRANCH  15  16
HETATM   16  C3  UNL     1      23.878   2.107  51.224  1.00  0.00     0.018 C 
BRANCH  16  17
HETATM   17  C2  UNL     1      23.351   3.042  51.996  1.00  0.00     0.131 C 
BRANCH  17  18
HETATM   18  O1  UNL     1      22.804   4.197  52.475  1.00  0.00    -0.368 OA
HETATM   19  C1  UNL     1      21.916   5.018  51.731  1.00  0.00     0.208 C 
ENDBRANCH  17  18
ENDBRANCH  16  17
ENDBRANCH  15  16
ENDBRANCH   1  15
BRANCH   8  20
HETATM   20  O2  UNL     1      29.275   1.531  55.477  1.00  0.00    -0.391 OA
HETATM   21  H11 UNL     1      29.750   2.105  54.858  1.00  0.00     0.210 HD
ENDBRANCH   8  20
TORSDOF 5
ENDMDL
MODEL 3
REMARK VINA RESULT:      -6.4      2.643      6.057
REMARK  5 active torsions:
REMARK  status: ('A' for Active; 'I' for Inactive)
REMARK    1  A    between atoms: O1_2  and  C2_3 
REMARK    2  A    between atoms: C2_3  and  C3_4 
REMARK    3  A    between atoms: C3_4  and  C4_5 
REMARK    4  A    between atoms: C4_5  and  N1_6 
REMARK    5  A    between atoms: C9_13  and  O2_14 
ROOT
HETATM    1  N1  UNL     1      25.055   1.633  51.921  1.00  0.00    -0.288 N 
HETATM    2  N2  UNL     1      23.805   0.982  52.072  1.00  0.00    -0.169 NA
HETATM    3  C5  UNL     1      22.685   1.313  51.533  1.00  0.00     0.255 C 
HETATM    4  N3  UNL     1      21.855   2.155  50.694  1.00  0.00    -0.237 NA
HETATM    5  C6  UNL     1      20.653   2.162  51.096  1.00  0.00     0.098 C 
HETATM    6  C7  UNL     1      20.555   2.775  52.256  1.00  0.00     0.006 C 
HETATM    7  C8  UNL     1      21.486   3.733  52.250  1.00  0.00     0.020 C 
HETATM    8  C9  UNL     1      22.339   4.561  51.332  1.00  0.00     0.157 C 
HETATM    9  C10 UNL     1      23.779   4.148  51.318  1.00  0.00     0.036 A 
HETATM   10  C11 UNL     1      24.087   4.046  49.990  1.00  0.00    -0.029 A 
HETATM   11  C12 UNL     1      24.849   3.113  50.660  1.00  0.00     0.055 A 
HETATM   12  C13 UNL     1      24.696   3.057  52.001  1.00  0.00     0.067 A 
HETATM   13  C14 UNL     1      24.508   3.039  53.351  1.00  0.00    -0.013 A 
HETATM   14  C15 UNL     1      23.758   3.950  52.667  1.00  0.00     0.056 A 
ENDROOT
BRANCH   1  15
HETATM   15  C4  UNL     1      26.228   0.831  51.749  1.00  0.00     0.175 C 
BRANCH  15  16
HETATM   16  C3  UNL     1      26.197  -0.432  52.492  1.00  0.00     0.018 C 
BRANCH  16  17
HETATM   17  C2  UNL     1      26.681  -0.468  53.722  1.00  0.00     0.131 C 
BRANCH  17  18
HETATM   18  O1  UNL     1      27.471  -0.347  54.828  1.00  0.00    -0.368 OA
HETATM   19  C1  UNL     1      28.695   0.373  54.849  1.00  0.00     0.208 C 
ENDBRANCH  17  18
ENDBRANCH  16  17
ENDBRANCH  15  16
ENDBRANCH   1  15
BRANCH   8  20
HETATM   20  O2  UNL     1      22.344   5.796  51.947  1.00  0.00    -0.391 OA
HETATM   21  H11 UNL     1      22.011   6.550  51.437  1.00  0.00     0.210 HD
ENDBRANCH   8  20
TORSDOF 5
ENDMDL
MODEL 4
REMARK VINA RESULT:      -6.4      1.601      2.026
REMARK  5 active torsions:
REMARK  status: ('A' for Active; 'I' for Inactive)
REMARK    1  A    between atoms: O1_2  and  C2_3 
REMARK    2  A    between atoms: C2_3  and  C3_4 
REMARK    3  A    between atoms: C3_4  and  C4_5 
REMARK    4  A    between atoms: C4_5  and  N1_6 
REMARK    5  A    between atoms: C9_13  and  O2_14 
ROOT
HETATM    1  N1  UNL     1      24.742   0.971  53.484  1.00  0.00    -0.288 N 
HETATM    2  N2  UNL     1      25.535   2.085  53.856  1.00  0.00    -0.169 NA
HETATM    3  C5  UNL     1      26.751   2.324  53.513  1.00  0.00     0.255 C 
HETATM    4  N3  UNL     1      27.983   2.007  52.818  1.00  0.00    -0.237 NA
HETATM    5  C6  UNL     1      28.988   2.489  53.420  1.00  0.00     0.098 C 
HETATM    6  C7  UNL     1      29.176   1.880  54.571  1.00  0.00     0.006 C 
HETATM    7  C8  UNL     1      28.781   0.617  54.393  1.00  0.00     0.020 C 
HETATM    8  C9  UNL     1      28.531  -0.415  53.330  1.00  0.00     0.157 C 
HETATM    9  C10 UNL     1      27.077  -0.673  53.075  1.00  0.00     0.036 A 
HETATM   10  C11 UNL     1      26.956  -0.598  51.715  1.00  0.00    -0.029 A 
HETATM   11  C12 UNL     1      25.769  -0.154  52.257  1.00  0.00     0.055 A 
HETATM   12  C13 UNL     1      25.681  -0.155  53.605  1.00  0.00     0.067 A 
HETATM   13  C14 UNL     1      25.640  -0.176  54.968  1.00  0.00    -0.013 A 
HETATM   14  C15 UNL     1      26.808  -0.605  54.410  1.00  0.00     0.056 A 
ENDROOT
BRANCH   1  15
HETATM   15  C4  UNL     1      23.375   1.193  53.124  1.00  0.00     0.175 C 
BRANCH  15  16
HETATM   16  C3  UNL     1      23.165   2.385  52.297  1.00  0.00     0.018 C 
BRANCH  16  17
HETATM   17  C2  UNL     1      22.768   2.239  51.046  1.00  0.00     0.131 C 
BRANCH  17  18
HETATM   18  O1  UNL     1      22.592   1.803  49.764  1.00  0.00    -0.368 OA
HETATM   19  C1  UNL     1      21.523   0.963  49.355  1.00  0.00     0.208 C 
ENDBRANCH  17  18
ENDBRANCH  16  17
ENDBRANCH  15  16
ENDBRANCH   1  15
BRANCH   8  20
HETATM   20  O2  UNL     1      28.985  -1.579  53.918  1.00  0.00    -0.391 OA
HETATM   21  H11 UNL     1      28.960  -1.628  54.885  1.00  0.00     0.210 HD
ENDBRANCH   8  20
TORSDOF 5
ENDMDL
MODEL 5
REMARK VINA RESULT:      -6.2      2.359      3.759
REMARK  5 active torsions:
REMARK  status: ('A' for Active; 'I' for Inactive)
REMARK    1  A    between atoms: O1_2  and  C2_3 
REMARK    2  A    between atoms: C2_3  and  C3_4 
REMARK    3  A    between atoms: C3_4  and  C4_5 
REMARK    4  A    between atoms: C4_5  and  N1_6 
REMARK    5  A    between atoms: C9_13  and  O2_14 
ROOT
HETATM    1  N1  UNL     1      22.432   1.378  52.467  1.00  0.00    -0.288 N 
HETATM    2  N2  UNL     1      23.088   0.133  52.642  1.00  0.00    -0.169 NA
HETATM    3  C5  UNL     1      24.261  -0.066  53.129  1.00  0.00     0.255 C 
HETATM    4  N3  UNL     1      25.514   0.383  53.705  1.00  0.00    -0.237 NA
HETATM    5  C6  UNL     1      26.461  -0.410  53.422  1.00  0.00     0.098 C 
HETATM    6  C7  UNL     1      26.736  -0.365  52.137  1.00  0.00     0.006 C 
HETATM    7  C8  UNL     1      26.495   0.890  51.749  1.00  0.00     0.020 C 
HETATM    8  C9  UNL     1      26.359   2.293  52.269  1.00  0.00     0.157 C 
HETATM    9  C10 UNL     1      24.944   2.785  52.302  1.00  0.00     0.036 A 
HETATM   10  C11 UNL     1      24.797   3.302  53.560  1.00  0.00    -0.029 A 
HETATM   11  C12 UNL     1      23.573   2.799  53.178  1.00  0.00     0.055 A 
HETATM   12  C13 UNL     1      23.502   2.243  51.948  1.00  0.00     0.067 A 
HETATM   13  C14 UNL     1      23.481   1.694  50.700  1.00  0.00    -0.013 A 
HETATM   14  C15 UNL     1      24.686   2.192  51.102  1.00  0.00     0.056 A 
ENDROOT
BRANCH   1  15
HETATM   15  C4  UNL     1      21.043   1.472  52.800  1.00  0.00     0.175 C 
BRANCH  15  16
HETATM   16  C3  UNL     1      20.556   0.367  53.631  1.00  0.00     0.018 C 
BRANCH  16  17
HETATM   17  C2  UNL     1      19.507  -0.328  53.227  1.00  0.00     0.131 C 
BRANCH  17  18
HETATM   18  O1  UNL     1      18.378  -0.753  52.589  1.00  0.00    -0.368 OA
HETATM   19  C1  UNL     1      17.961  -0.276  51.319  1.00  0.00     0.208 C 
ENDBRANCH  17  18
ENDBRANCH  16  17
ENDBRANCH  15  16
ENDBRANCH   1  15
BRANCH   8  20
HETATM   20  O2  UNL     1      26.959   3.047  51.280  1.00  0.00    -0.391 OA
HETATM   21  H11 UNL     1      26.593   2.982  50.386  1.00  0.00     0.210 HD
ENDBRANCH   8  20
TORSDOF 5
ENDMDL
MODEL 6
REMARK VINA RESULT:      -6.1      2.532      5.835
REMARK  5 active torsions:
REMARK  status: ('A' for Active; 'I' for Inactive)
REMARK    1  A    between atoms: O1_2  and  C2_3 
REMARK    2  A    between atoms: C2_3  and  C3_4 
REMARK    3  A    between atoms: C3_4  and  C4_5 
REMARK    4  A    between atoms: C4_5  and  N1_6 
REMARK    5  A    between atoms: C9_13  and  O2_14 
ROOT
HETATM    1  N1  UNL     1      25.507   2.193  52.828  1.00  0.00    -0.288 N 
HETATM    2  N2  UNL     1      25.807   2.246  51.444  1.00  0.00    -0.169 NA
HETATM    3  C5  UNL     1      25.285   3.024  50.564  1.00  0.00     0.255 C 
HETATM    4  N3  UNL     1      24.381   4.078  50.146  1.00  0.00    -0.237 NA
HETATM    5  C6  UNL     1      24.028   3.929  48.938  1.00  0.00     0.098 C 
HETATM    6  C7  UNL     1      23.266   2.865  48.804  1.00  0.00     0.006 C 
HETATM    7  C8  UNL     1      22.573   2.759  49.942  1.00  0.00     0.020 C 
HETATM    8  C9  UNL     1      22.105   3.550  51.131  1.00  0.00     0.157 C 
HETATM    9  C10 UNL     1      22.856   3.239  52.389  1.00  0.00     0.036 A 
HETATM   10  C11 UNL     1      23.200   4.465  52.887  1.00  0.00    -0.029 A 
HETATM   11  C12 UNL     1      24.197   3.583  53.245  1.00  0.00     0.055 A 
HETATM   12  C13 UNL     1      24.041   2.300  52.851  1.00  0.00     0.067 A 
HETATM   13  C14 UNL     1      23.837   1.019  52.431  1.00  0.00    -0.013 A 
HETATM   14  C15 UNL     1      22.867   1.911  52.081  1.00  0.00     0.056 A 
ENDROOT
BRANCH   1  15
HETATM   15  C4  UNL     1      26.587   2.059  53.758  1.00  0.00     0.175 C 
BRANCH  15  16
HETATM   16  C3  UNL     1      26.638   0.755  54.425  1.00  0.00     0.018 C 
BRANCH  16  17
HETATM   17  C2  UNL     1      27.554  -0.123  54.054  1.00  0.00     0.131 C 
BRANCH  17  18
HETATM   18  O1  UNL     1      28.486  -1.119  54.030  1.00  0.00    -0.368 OA
HETATM   19  C1  UNL     1      29.828  -0.935  53.603  1.00  0.00     0.208 C 
ENDBRANCH  17  18
ENDBRANCH  16  17
ENDBRANCH  15  16
ENDBRANCH   1  15
BRANCH   8  20
HETATM   20  O2  UNL     1      20.839   3.046  51.355  1.00  0.00    -0.391 OA
HETATM   21  H11 UNL     1      20.142   3.679  51.582  1.00  0.00     0.210 HD
ENDBRANCH   8  20
TORSDOF 5
ENDMDL
MODEL 7
REMARK VINA RESULT:      -6.1      3.835      6.593
REMARK  5 active torsions:
REMARK  status: ('A' for Active; 'I' for Inactive)
REMARK    1  A    between atoms: O1_2  and  C2_3 
REMARK    2  A    between atoms: C2_3  and  C3_4 
REMARK    3  A    between atoms: C3_4  and  C4_5 
REMARK    4  A    between atoms: C4_5  and  N1_6 
REMARK    5  A    between atoms: C9_13  and  O2_14 
ROOT
HETATM    1  N1  UNL     1      23.041   2.867  51.519  1.00  0.00    -0.288 N 
HETATM    2  N2  UNL     1      23.465   2.229  52.712  1.00  0.00    -0.169 NA
HETATM    3  C5  UNL     1      23.196   1.030  53.091  1.00  0.00     0.255 C 
HETATM    4  N3  UNL     1      22.572  -0.268  52.923  1.00  0.00    -0.237 NA
HETATM    5  C6  UNL     1      22.303  -0.797  54.043  1.00  0.00     0.098 C 
HETATM    6  C7  UNL     1      21.350  -0.128  54.655  1.00  0.00     0.006 C 
HETATM    7  C8  UNL     1      20.553   0.348  53.694  1.00  0.00     0.020 C 
HETATM    8  C9  UNL     1      20.159   0.139  52.259  1.00  0.00     0.157 C 
HETATM    9  C10 UNL     1      20.715   1.172  51.328  1.00  0.00     0.036 A 
HETATM   10  C11 UNL     1      21.264   0.445  50.308  1.00  0.00    -0.029 A 
HETATM   11  C12 UNL     1      22.019   1.589  50.448  1.00  0.00     0.055 A 
HETATM   12  C13 UNL     1      21.633   2.457  51.410  1.00  0.00     0.067 A 
HETATM   13  C14 UNL     1      21.204   3.299  52.392  1.00  0.00    -0.013 A 
HETATM   14  C15 UNL     1      20.476   2.156  52.241  1.00  0.00     0.056 A 
ENDROOT
BRANCH   1  15
HETATM   15  C4  UNL     1      23.984   3.667  50.798  1.00  0.00     0.175 C 
BRANCH  15  16
HETATM   16  C3  UNL     1      25.332   3.093  50.747  1.00  0.00     0.018 C 
BRANCH  16  17
HETATM   17  C2  UNL     1      26.225   3.618  49.926  1.00  0.00     0.131 C 
BRANCH  17  18
HETATM   18  O1  UNL     1      27.381   3.973  49.294  1.00  0.00    -0.368 OA
HETATM   19  C1  UNL     1      27.552   5.192  48.587  1.00  0.00     0.208 C 
ENDBRANCH  17  18
ENDBRANCH  16  17
ENDBRANCH  15  16
ENDBRANCH   1  15
BRANCH   8  20
HETATM   20  O2  UNL     1      18.802   0.389  52.274  1.00  0.00    -0.391 OA
HETATM   21  H11 UNL     1      18.207  -0.376  52.260  1.00  0.00     0.210 HD
ENDBRANCH   8  20
TORSDOF 5
ENDMDL
MODEL 8
REMARK VINA RESULT:      -6.0      3.270      4.371
REMARK  5 active torsions:
REMARK  status: ('A' for Active; 'I' for Inactive)
REMARK    1  A    between atoms: O1_2  and  C2_3 
REMARK    2  A    between atoms: C2_3  and  C3_4 
REMARK    3  A    between atoms: C3_4  and  C4_5 
REMARK    4  A    between atoms: C4_5  and  N1_6 
REMARK    5  A    between atoms: C9_13  and  O2_14 
ROOT
HETATM    1  N1  UNL     1      25.231   2.193  51.739  1.00  0.00    -0.288 N 
HETATM    2  N2  UNL     1      26.493   1.633  51.418  1.00  0.00    -0.169 NA
HETATM    3  C5  UNL     1      26.894   0.434  51.651  1.00  0.00     0.255 C 
HETATM    4  N3  UNL     1      26.717  -0.910  52.165  1.00  0.00    -0.237 NA
HETATM    5  C6  UNL     1      27.822  -1.413  52.529  1.00  0.00     0.098 C 
HETATM    6  C7  UNL     1      28.289  -0.790  53.589  1.00  0.00     0.006 C 
HETATM    7  C8  UNL     1      27.222  -0.407  54.296  1.00  0.00     0.020 C 
HETATM    8  C9  UNL     1      25.763  -0.700  54.505  1.00  0.00     0.157 C 
HETATM    9  C10 UNL     1      24.855   0.333  53.911  1.00  0.00     0.036 A 
HETATM   10  C11 UNL     1      23.939  -0.393  53.201  1.00  0.00    -0.029 A 
HETATM   11  C12 UNL     1      24.111   0.806  52.543  1.00  0.00     0.055 A 
HETATM   12  C13 UNL     1      24.981   1.681  53.095  1.00  0.00     0.067 A 
HETATM   13  C14 UNL     1      25.867   2.529  53.691  1.00  0.00    -0.013 A 
HETATM   14  C15 UNL     1      25.687   1.333  54.320  1.00  0.00     0.056 A 
ENDROOT
BRANCH   1  15
HETATM   15  C4  UNL     1      24.587   3.028  50.773  1.00  0.00     0.175 C 
BRANCH  15  16
HETATM   16  C3  UNL     1      25.441   3.392  49.639  1.00  0.00     0.018 C 
BRANCH  16  17
HETATM   17  C2  UNL     1      25.800   4.654  49.481  1.00  0.00     0.131 C 
BRANCH  17  18
HETATM   18  O1  UNL     1      25.805   6.012  49.339  1.00  0.00    -0.368 OA
HETATM   19  C1  UNL     1      25.395   6.913  50.356  1.00  0.00     0.208 C 
ENDBRANCH  17  18
ENDBRANCH  16  17
ENDBRANCH  15  16
ENDBRANCH   1  15
BRANCH   8  20
HETATM   20  O2  UNL     1      25.611  -0.545  55.868  1.00  0.00    -0.391 OA
HETATM   21  H11 UNL     1      26.236   0.038  56.324  1.00  0.00     0.210 HD
ENDBRANCH   8  20
TORSDOF 5
ENDMDL
MODEL 9
REMARK VINA RESULT:      -5.9      3.161      6.007
REMARK  5 active torsions:
REMARK  status: ('A' for Active; 'I' for Inactive)
REMARK    1  A    between atoms: O1_2  and  C2_3 
REMARK    2  A    between atoms: C2_3  and  C3_4 
REMARK    3  A    between atoms: C3_4  and  C4_5 
REMARK    4  A    between atoms: C4_5  and  N1_6 
REMARK    5  A    between atoms: C9_13  and  O2_14 
ROOT
HETATM    1  N1  UNL     1      24.612   1.993  52.463  1.00  0.00    -0.288 N 
HETATM    2  N2  UNL     1      24.311   3.290  52.950  1.00  0.00    -0.169 NA
HETATM    3  C5  UNL     1      23.309   4.028  52.627  1.00  0.00     0.255 C 
HETATM    4  N3  UNL     1      22.088   4.301  51.893  1.00  0.00    -0.237 NA
HETATM    5  C6  UNL     1      21.940   5.543  51.692  1.00  0.00     0.098 C 
HETATM    6  C7  UNL     1      22.851   5.991  50.856  1.00  0.00     0.006 C 
HETATM    7  C8  UNL     1      23.105   4.989  50.010  1.00  0.00     0.020 C 
HETATM    8  C9  UNL     1      22.526   3.714  49.465  1.00  0.00     0.157 C 
HETATM    9  C10 UNL     1      23.180   2.480  50.007  1.00  0.00     0.036 A 
HETATM   10  C11 UNL     1      22.135   1.689  50.398  1.00  0.00    -0.029 A 
HETATM   11  C12 UNL     1      23.188   1.427  51.248  1.00  0.00     0.055 A 
HETATM   12  C13 UNL     1      24.333   2.109  51.023  1.00  0.00     0.067 A 
HETATM   13  C14 UNL     1      25.465   2.821  50.756  1.00  0.00    -0.013 A 
HETATM   14  C15 UNL     1      24.407   3.070  49.932  1.00  0.00     0.056 A 
ENDROOT
BRANCH   1  15
HETATM   15  C4  UNL     1      25.066   1.002  53.390  1.00  0.00     0.175 C 
BRANCH  15  16
HETATM   16  C3  UNL     1      26.268   1.393  54.134  1.00  0.00     0.018 C 
BRANCH  16  17
HETATM   17  C2  UNL     1      27.225   0.502  54.325  1.00  0.00     0.131 C 
BRANCH  17  18
HETATM   18  O1  UNL     1      27.957  -0.648  54.390  1.00  0.00    -0.368 OA
HETATM   19  C1  UNL     1      29.250  -0.795  53.822  1.00  0.00     0.208 C 
ENDBRANCH  17  18
ENDBRANCH  16  17
ENDBRANCH  15  16
ENDBRANCH   1  15
BRANCH   8  20
HETATM   20  O2  UNL     1      22.906   3.747  48.138  1.00  0.00    -0.391 OA
HETATM   21  H11 UNL     1      22.266   4.095  47.500  1.00  0.00     0.210 HD
ENDBRANCH   8  20
TORSDOF 5
ENDMDL
