MODEL 1
REMARK VINA RESULT:      -7.0      0.000      0.000
REMARK  9 active torsions:
REMARK  status: ('A' for Active; 'I' for Inactive)
REMARK    1  A    between atoms: C2_2  and  C3_3 
REMARK       I    between atoms: C3_3  and  N1_5 
REMARK    2  A    between atoms: N1_5  and  C4_6 
REMARK    3  A    between atoms: C10_12  and  S1_13 
REMARK    4  A    between atoms: C12_16  and  N3_17 
REMARK    5  A    between atoms: N3_17  and  C13_18 
REMARK    6  A    between atoms: C13_18  and  C14_19 
REMARK    7  A    between atoms: C14_19  and  O2_21 
REMARK    8  A    between atoms: O2_21  and  C15_22 
REMARK    9  A    between atoms: C15_22  and  C16_23 
ROOT
HETATM    1  C4  UNL     1      26.409   1.543  52.166  1.00  0.00     0.038 A 
HETATM    2  C5  UNL     1      25.174   1.314  52.695  1.00  0.00     0.066 A 
HETATM    3  C6  UNL     1      24.120   2.011  52.169  1.00  0.00     0.079 A 
HETATM    4  C7  UNL     1      24.421   2.899  51.119  1.00  0.00     0.047 A 
HETATM    5  C8  UNL     1      25.672   3.118  50.611  1.00  0.00    -0.018 A 
HETATM    6  C9  UNL     1      26.710   2.411  51.152  1.00  0.00     0.039 A 
HETATM    7  C10 UNL     1      25.456   4.236  49.655  1.00  0.00     0.221 C 
HETATM    8  N2  UNL     1      24.862   5.338  50.357  1.00  0.00    -0.085 NA
HETATM    9  C12 UNL     1      23.887   5.343  51.208  1.00  0.00     0.720 C 
HETATM   10  N4  UNL     1      22.817   4.873  52.057  1.00  0.00    -0.051 NA
HETATM   11  C17 UNL     1      22.496   3.675  52.376  1.00  0.00     0.278 C 
HETATM   12  O3  UNL     1      22.715   2.210  52.300  1.00  0.00    -0.303 OA
ENDROOT
BRANCH   9  13
HETATM   13  N3  UNL     1      23.822   6.779  51.508  1.00  0.00    -0.218 N 
HETATM   14  H12 UNL     1      23.894   7.272  52.463  1.00  0.00     0.178 HD
BRANCH  13  15
HETATM   15  C13 UNL     1      23.640   7.876  50.530  1.00  0.00     0.204 C 
BRANCH  15  16
HETATM   16  C14 UNL     1      22.186   7.853  50.094  1.00  0.00     0.324 C 
HETATM   17  F1  UNL     1      21.421   7.663  51.223  1.00  0.00    -0.218 F 
BRANCH  16  18
HETATM   18  O2  UNL     1      21.857   9.062  49.441  1.00  0.00    -0.353 OA
BRANCH  18  19
HETATM   19  C15 UNL     1      20.531   8.981  49.004  1.00  0.00     0.202 C 
BRANCH  19  20
HETATM   20  C16 UNL     1      19.713  10.076  49.625  1.00  0.00     0.248 C 
HETATM   21  F2  UNL     1      19.157   9.614  50.807  1.00  0.00    -0.253 F 
ENDBRANCH  19  20
ENDBRANCH  18  19
ENDBRANCH  16  18
ENDBRANCH  15  16
ENDBRANCH  13  15
ENDBRANCH   9  13
BRANCH   7  22
HETATM   22  S1  UNL     1      27.008   4.837  48.959  1.00  0.00    -0.141 SA
HETATM   23  C11 UNL     1      26.935   6.615  48.604  1.00  0.00     0.092 C 
ENDBRANCH   7  22
BRANCH   1  24
HETATM   24  N1  UNL     1      27.479   0.806  52.728  1.00  0.00    -0.324 N 
HETATM   25  C3  UNL     1      28.404   1.194  53.765  1.00  0.00     0.244 C 
HETATM   26  O1  UNL     1      28.122   2.346  54.128  1.00  0.00    -0.268 OA
HETATM   27  H4  UNL     1      27.411  -0.087  52.187  1.00  0.00     0.169 HD
BRANCH  25  28
HETATM   28  C2  UNL     1      29.385   0.163  54.092  1.00  0.00     0.064 C 
HETATM   29  C1  UNL     1      29.808  -0.898  53.416  1.00  0.00     0.017 C 
ENDBRANCH  25  28
ENDBRANCH   1  24
TORSDOF 9
ENDMDL
MODEL 2
REMARK VINA RESULT:      -7.0      3.895      5.004
REMARK  9 active torsions:
REMARK  status: ('A' for Active; 'I' for Inactive)
REMARK    1  A    between atoms: C2_2  and  C3_3 
REMARK       I    between atoms: C3_3  and  N1_5 
REMARK    2  A    between atoms: N1_5  and  C4_6 
REMARK    3  A    between atoms: C10_12  and  S1_13 
REMARK    4  A    between atoms: C12_16  and  N3_17 
REMARK    5  A    between atoms: N3_17  and  C13_18 
REMARK    6  A    between atoms: C13_18  and  C14_19 
REMARK    7  A    between atoms: C14_19  and  O2_21 
REMARK    8  A    between atoms: O2_21  and  C15_22 
REMARK    9  A    between atoms: C15_22  and  C16_23 
ROOT
HETATM    1  C4  UNL     1      26.553   0.823  52.401  1.00  0.00     0.038 A 
HETATM    2  C5  UNL     1      26.735   2.027  51.790  1.00  0.00     0.066 A 
HETATM    3  C6  UNL     1      25.619   2.760  51.488  1.00  0.00     0.079 A 
HETATM    4  C7  UNL     1      24.384   2.194  51.853  1.00  0.00     0.047 A 
HETATM    5  C8  UNL     1      24.226   0.977  52.459  1.00  0.00    -0.018 A 
HETATM    6  C9  UNL     1      25.355   0.262  52.749  1.00  0.00     0.039 A 
HETATM    7  C10 UNL     1      22.750   0.796  52.473  1.00  0.00     0.221 C 
HETATM    8  N2  UNL     1      22.259   0.895  51.128  1.00  0.00    -0.085 NA
HETATM    9  C12 UNL     1      22.550   1.755  50.206  1.00  0.00     0.720 C 
HETATM   10  N4  UNL     1      23.154   2.884  49.536  1.00  0.00    -0.051 NA
HETATM   11  C17 UNL     1      24.135   3.620  49.905  1.00  0.00     0.278 C 
HETATM   12  O3  UNL     1      25.193   3.978  50.882  1.00  0.00    -0.303 OA
ENDROOT
BRANCH   9  13
HETATM   13  N3  UNL     1      21.697   1.256  49.119  1.00  0.00    -0.218 N 
HETATM   14  H12 UNL     1      21.543   0.240  48.796  1.00  0.00     0.178 HD
BRANCH  13  15
HETATM   15  C13 UNL     1      20.851   2.071  48.217  1.00  0.00     0.204 C 
BRANCH  15  16
HETATM   16  C14 UNL     1      19.519   2.278  48.916  1.00  0.00     0.324 C 
HETATM   17  F1  UNL     1      19.320   1.197  49.747  1.00  0.00    -0.218 F 
BRANCH  16  18
HETATM   18  O2  UNL     1      19.534   3.492  49.637  1.00  0.00    -0.353 OA
BRANCH  18  19
HETATM   19  C15 UNL     1      19.017   3.253  50.915  1.00  0.00     0.202 C 
BRANCH  19  20
HETATM   20  C16 UNL     1      20.034   3.609  51.960  1.00  0.00     0.248 C 
HETATM   21  F2  UNL     1      20.064   2.613  52.923  1.00  0.00    -0.253 F 
ENDBRANCH  19  20
ENDBRANCH  18  19
ENDBRANCH  16  18
ENDBRANCH  15  16
ENDBRANCH  13  15
ENDBRANCH   9  13
BRANCH   7  22
HETATM   22  S1  UNL     1      22.277  -0.834  53.082  1.00  0.00    -0.141 SA
HETATM   23  C11 UNL     1      22.255  -0.887  54.896  1.00  0.00     0.092 C 
ENDBRANCH   7  22
BRANCH   1  24
HETATM   24  N1  UNL     1      27.725   0.088  52.702  1.00  0.00    -0.324 N 
HETATM   25  C3  UNL     1      28.562   0.150  53.875  1.00  0.00     0.244 C 
HETATM   26  O1  UNL     1      28.088   0.998  54.647  1.00  0.00    -0.268 OA
HETATM   27  H4  UNL     1      27.811  -0.506  51.845  1.00  0.00     0.169 HD
BRANCH  25  28
HETATM   28  C2  UNL     1      29.696  -0.768  53.836  1.00  0.00     0.064 C 
HETATM   29  C1  UNL     1      29.792  -2.037  53.457  1.00  0.00     0.017 C 
ENDBRANCH  25  28
ENDBRANCH   1  24
TORSDOF 9
ENDMDL
MODEL 3
REMARK VINA RESULT:      -7.0      1.359      1.942
REMARK  9 active torsions:
REMARK  status: ('A' for Active; 'I' for Inactive)
REMARK    1  A    between atoms: C2_2  and  C3_3 
REMARK       I    between atoms: C3_3  and  N1_5 
REMARK    2  A    between atoms: N1_5  and  C4_6 
REMARK    3  A    between atoms: C10_12  and  S1_13 
REMARK    4  A    between atoms: C12_16  and  N3_17 
REMARK    5  A    between atoms: N3_17  and  C13_18 
REMARK    6  A    between atoms: C13_18  and  C14_19 
REMARK    7  A    between atoms: C14_19  and  O2_21 
REMARK    8  A    between atoms: O2_21  and  C15_22 
REMARK    9  A    between atoms: C15_22  and  C16_23 
ROOT
HETATM    1  C4  UNL     1      26.363   1.576  52.217  1.00  0.00     0.038 A 
HETATM    2  C5  UNL     1      25.114   1.429  52.742  1.00  0.00     0.066 A 
HETATM    3  C6  UNL     1      24.106   2.178  52.198  1.00  0.00     0.079 A 
HETATM    4  C7  UNL     1      24.465   3.027  51.134  1.00  0.00     0.047 A 
HETATM    5  C8  UNL     1      25.730   3.164  50.630  1.00  0.00    -0.018 A 
HETATM    6  C9  UNL     1      26.721   2.406  51.191  1.00  0.00     0.039 A 
HETATM    7  C10 UNL     1      25.585   4.275  49.653  1.00  0.00     0.221 C 
HETATM    8  N2  UNL     1      25.054   5.423  50.332  1.00  0.00    -0.085 NA
HETATM    9  C12 UNL     1      24.076   5.500  51.177  1.00  0.00     0.720 C 
HETATM   10  N4  UNL     1      22.975   5.110  52.026  1.00  0.00    -0.051 NA
HETATM   11  C17 UNL     1      22.582   3.938  52.365  1.00  0.00     0.278 C 
HETATM   12  O3  UNL     1      22.714   2.461  52.315  1.00  0.00    -0.303 OA
ENDROOT
BRANCH   9  13
HETATM   13  N3  UNL     1      24.094   6.943  51.451  1.00  0.00    -0.218 N 
HETATM   14  H12 UNL     1      24.158   7.447  52.400  1.00  0.00     0.178 HD
BRANCH  13  15
HETATM   15  C13 UNL     1      24.028   8.031  50.449  1.00  0.00     0.204 C 
BRANCH  15  16
HETATM   16  C14 UNL     1      22.664   7.950  49.786  1.00  0.00     0.324 C 
HETATM   17  F1  UNL     1      22.168   9.232  49.709  1.00  0.00    -0.218 F 
BRANCH  16  18
HETATM   18  O2  UNL     1      22.783   7.361  48.508  1.00  0.00    -0.353 OA
BRANCH  18  19
HETATM   19  C15 UNL     1      21.848   6.325  48.411  1.00  0.00     0.202 C 
BRANCH  19  20
HETATM   20  C16 UNL     1      22.481   5.110  47.797  1.00  0.00     0.248 C 
HETATM   21  F2  UNL     1      22.357   4.042  48.671  1.00  0.00    -0.253 F 
ENDBRANCH  19  20
ENDBRANCH  18  19
ENDBRANCH  16  18
ENDBRANCH  15  16
ENDBRANCH  13  15
ENDBRANCH   9  13
BRANCH   7  22
HETATM   22  S1  UNL     1      27.174   4.771  48.957  1.00  0.00    -0.141 SA
HETATM   23  C11 UNL     1      27.205   6.542  48.563  1.00  0.00     0.092 C 
ENDBRANCH   7  22
BRANCH   1  24
HETATM   24  N1  UNL     1      27.385   0.787  52.799  1.00  0.00    -0.324 N 
HETATM   25  C3  UNL     1      28.314   1.131  53.849  1.00  0.00     0.244 C 
HETATM   26  O1  UNL     1      28.086   2.299  54.202  1.00  0.00    -0.268 OA
HETATM   27  H4  UNL     1      27.279  -0.104  52.261  1.00  0.00     0.169 HD
BRANCH  25  28
HETATM   28  C2  UNL     1      29.234   0.053  54.195  1.00  0.00     0.064 C 
HETATM   29  C1  UNL     1      29.800  -0.895  53.458  1.00  0.00     0.017 C 
ENDBRANCH  25  28
ENDBRANCH   1  24
TORSDOF 9
ENDMDL
MODEL 4
REMARK VINA RESULT:      -6.9      2.713      3.500
REMARK  9 active torsions:
REMARK  status: ('A' for Active; 'I' for Inactive)
REMARK    1  A    between atoms: C2_2  and  C3_3 
REMARK       I    between atoms: C3_3  and  N1_5 
REMARK    2  A    between atoms: N1_5  and  C4_6 
REMARK    3  A    between atoms: C10_12  and  S1_13 
REMARK    4  A    between atoms: C12_16  and  N3_17 
REMARK    5  A    between atoms: N3_17  and  C13_18 
REMARK    6  A    between atoms: C13_18  and  C14_19 
REMARK    7  A    between atoms: C14_19  and  O2_21 
REMARK    8  A    between atoms: O2_21  and  C15_22 
REMARK    9  A    between atoms: C15_22  and  C16_23 
ROOT
HETATM    1  C4  UNL     1      26.274   1.947  52.110  1.00  0.00     0.038 A 
HETATM    2  C5  UNL     1      25.010   2.018  52.615  1.00  0.00     0.066 A 
HETATM    3  C6  UNL     1      24.133   2.877  52.008  1.00  0.00     0.079 A 
HETATM    4  C7  UNL     1      24.629   3.601  50.908  1.00  0.00     0.047 A 
HETATM    5  C8  UNL     1      25.907   3.518  50.425  1.00  0.00    -0.018 A 
HETATM    6  C9  UNL     1      26.765   2.655  51.047  1.00  0.00     0.039 A 
HETATM    7  C10 UNL     1      25.943   4.581  49.386  1.00  0.00     0.221 C 
HETATM    8  N2  UNL     1      25.581   5.832  49.989  1.00  0.00    -0.085 NA
HETATM    9  C12 UNL     1      24.615   6.102  50.807  1.00  0.00     0.720 C 
HETATM   10  N4  UNL     1      23.456   5.929  51.652  1.00  0.00    -0.051 NA
HETATM   11  C17 UNL     1      22.888   4.851  52.046  1.00  0.00     0.278 C 
HETATM   12  O3  UNL     1      22.798   3.370  52.080  1.00  0.00    -0.303 OA
ENDROOT
BRANCH   9  13
HETATM   13  N3  UNL     1      24.846   7.539  51.002  1.00  0.00    -0.218 N 
HETATM   14  H12 UNL     1      24.957   8.085  51.924  1.00  0.00     0.178 HD
BRANCH  13  15
HETATM   15  C13 UNL     1      24.976   8.563  49.940  1.00  0.00     0.204 C 
BRANCH  15  16
HETATM   16  C14 UNL     1      26.155   9.446  50.310  1.00  0.00     0.324 C 
HETATM   17  F1  UNL     1      27.237   8.620  50.518  1.00  0.00    -0.218 F 
BRANCH  16  18
HETATM   18  O2  UNL     1      26.404  10.378  49.277  1.00  0.00    -0.353 OA
BRANCH  18  19
HETATM   19  C15 UNL     1      27.771  10.355  48.982  1.00  0.00     0.202 C 
BRANCH  19  20
HETATM   20  C16 UNL     1      27.985  10.495  47.504  1.00  0.00     0.248 C 
HETATM   21  F2  UNL     1      29.023   9.665  47.113  1.00  0.00    -0.253 F 
ENDBRANCH  19  20
ENDBRANCH  18  19
ENDBRANCH  16  18
ENDBRANCH  15  16
ENDBRANCH  13  15
ENDBRANCH   9  13
BRANCH   7  22
HETATM   22  S1  UNL     1      27.598   4.794  48.699  1.00  0.00    -0.141 SA
HETATM   23  C11 UNL     1      27.888   6.508  48.179  1.00  0.00     0.092 C 
ENDBRANCH   7  22
BRANCH   1  24
HETATM   24  N1  UNL     1      27.158   1.050  52.756  1.00  0.00    -0.324 N 
HETATM   25  C3  UNL     1      28.154   1.322  53.764  1.00  0.00     0.244 C 
HETATM   26  O1  UNL     1      28.138   2.538  54.009  1.00  0.00    -0.268 OA
HETATM   27  H4  UNL     1      26.888   0.146  52.304  1.00  0.00     0.169 HD
BRANCH  25  28
HETATM   28  C2  UNL     1      28.883   0.136  54.203  1.00  0.00     0.064 C 
HETATM   29  C1  UNL     1      29.865  -0.556  53.637  1.00  0.00     0.017 C 
ENDBRANCH  25  28
ENDBRANCH   1  24
TORSDOF 9
ENDMDL
MODEL 5
REMARK VINA RESULT:      -6.8      4.007      5.723
REMARK  9 active torsions:
REMARK  status: ('A' for Active; 'I' for Inactive)
REMARK    1  A    between atoms: C2_2  and  C3_3 
REMARK       I    between atoms: C3_3  and  N1_5 
REMARK    2  A    between atoms: N1_5  and  C4_6 
REMARK    3  A    between atoms: C10_12  and  S1_13 
REMARK    4  A    between atoms: C12_16  and  N3_17 
REMARK    5  A    between atoms: N3_17  and  C13_18 
REMARK    6  A    between atoms: C13_18  and  C14_19 
REMARK    7  A    between atoms: C14_19  and  O2_21 
REMARK    8  A    between atoms: O2_21  and  C15_22 
REMARK    9  A    between atoms: C15_22  and  C16_23 
ROOT
HETATM    1  C4  UNL     1      26.403   0.724  52.525  1.00  0.00     0.038 A 
HETATM    2  C5  UNL     1      26.506   1.934  51.907  1.00  0.00     0.066 A 
HETATM    3  C6  UNL     1      25.350   2.631  51.681  1.00  0.00     0.079 A 
HETATM    4  C7  UNL     1      24.160   2.024  52.123  1.00  0.00     0.047 A 
HETATM    5  C8  UNL     1      24.081   0.802  52.733  1.00  0.00    -0.018 A 
HETATM    6  C9  UNL     1      25.249   0.123  52.947  1.00  0.00     0.039 A 
HETATM    7  C10 UNL     1      22.616   0.574  52.842  1.00  0.00     0.221 C 
HETATM    8  N2  UNL     1      22.035   0.658  51.532  1.00  0.00    -0.085 NA
HETATM    9  C12 UNL     1      22.238   1.529  50.597  1.00  0.00     0.720 C 
HETATM   10  N4  UNL     1      22.761   2.678  49.894  1.00  0.00    -0.051 NA
HETATM   11  C17 UNL     1      23.740   3.445  50.201  1.00  0.00     0.278 C 
HETATM   12  O3  UNL     1      24.846   3.835  51.108  1.00  0.00    -0.303 OA
ENDROOT
BRANCH   9  13
HETATM   13  N3  UNL     1      21.333   1.005  49.566  1.00  0.00    -0.218 N 
HETATM   14  H12 UNL     1      21.235  -0.006  49.206  1.00  0.00     0.178 HD
BRANCH  13  15
HETATM   15  C13 UNL     1      20.341   1.780  48.786  1.00  0.00     0.204 C 
BRANCH  15  16
HETATM   16  C14 UNL     1      19.184   2.096  49.717  1.00  0.00     0.324 C 
HETATM   17  F1  UNL     1      18.616   3.273  49.281  1.00  0.00    -0.218 F 
BRANCH  16  18
HETATM   18  O2  UNL     1      18.252   1.034  49.707  1.00  0.00    -0.353 OA
BRANCH  18  19
HETATM   19  C15 UNL     1      17.640   0.973  50.964  1.00  0.00     0.202 C 
BRANCH  19  20
HETATM   20  C16 UNL     1      17.884  -0.366  51.594  1.00  0.00     0.248 C 
HETATM   21  F2  UNL     1      19.192  -0.425  52.048  1.00  0.00    -0.253 F 
ENDBRANCH  19  20
ENDBRANCH  18  19
ENDBRANCH  16  18
ENDBRANCH  15  16
ENDBRANCH  13  15
ENDBRANCH   9  13
BRANCH   7  22
HETATM   22  S1  UNL     1      22.236  -1.072  53.476  1.00  0.00    -0.141 SA
HETATM   23  C11 UNL     1      22.711  -1.241  55.219  1.00  0.00     0.092 C 
ENDBRANCH   7  22
BRANCH   1  24
HETATM   24  N1  UNL     1      27.615   0.026  52.746  1.00  0.00    -0.324 N 
HETATM   25  C3  UNL     1      28.482   0.052  53.899  1.00  0.00     0.244 C 
HETATM   26  O1  UNL     1      27.994   0.826  54.736  1.00  0.00    -0.268 OA
HETATM   27  H4  UNL     1      27.703  -0.507  51.850  1.00  0.00     0.169 HD
BRANCH  25  28
HETATM   28  C2  UNL     1      29.655  -0.807  53.770  1.00  0.00     0.064 C 
HETATM   29  C1  UNL     1      29.776  -2.096  53.474  1.00  0.00     0.017 C 
ENDBRANCH  25  28
ENDBRANCH   1  24
TORSDOF 9
ENDMDL
MODEL 6
REMARK VINA RESULT:      -6.7      5.298      9.361
REMARK  9 active torsions:
REMARK  status: ('A' for Active; 'I' for Inactive)
REMARK    1  A    between atoms: C2_2  and  C3_3 
REMARK       I    between atoms: C3_3  and  N1_5 
REMARK    2  A    between atoms: N1_5  and  C4_6 
REMARK    3  A    between atoms: C10_12  and  S1_13 
REMARK    4  A    between atoms: C12_16  and  N3_17 
REMARK    5  A    between atoms: N3_17  and  C13_18 
REMARK    6  A    between atoms: C13_18  and  C14_19 
REMARK    7  A    between atoms: C14_19  and  O2_21 
REMARK    8  A    between atoms: O2_21  and  C15_22 
REMARK    9  A    between atoms: C15_22  and  C16_23 
ROOT
HETATM    1  C4  UNL     1      19.133   0.122  51.847  1.00  0.00     0.038 A 
HETATM    2  C5  UNL     1      19.267  -0.739  52.895  1.00  0.00     0.066 A 
HETATM    3  C6  UNL     1      20.300  -0.521  53.766  1.00  0.00     0.079 A 
HETATM    4  C7  UNL     1      21.124   0.586  53.492  1.00  0.00     0.047 A 
HETATM    5  C8  UNL     1      20.975   1.432  52.426  1.00  0.00    -0.018 A 
HETATM    6  C9  UNL     1      19.936   1.194  51.569  1.00  0.00     0.039 A 
HETATM    7  C10 UNL     1      22.173   2.307  52.519  1.00  0.00     0.221 C 
HETATM    8  N2  UNL     1      23.349   1.484  52.506  1.00  0.00    -0.085 NA
HETATM    9  C12 UNL     1      23.597   0.392  53.155  1.00  0.00     0.720 C 
HETATM   10  N4  UNL     1      23.428  -0.733  54.045  1.00  0.00    -0.051 NA
HETATM   11  C17 UNL     1      22.372  -1.151  54.638  1.00  0.00     0.278 C 
HETATM   12  O3  UNL     1      20.923  -1.041  54.938  1.00  0.00    -0.303 OA
ENDROOT
BRANCH   9  13
HETATM   13  N3  UNL     1      24.953   0.111  52.665  1.00  0.00    -0.218 N 
HETATM   14  H12 UNL     1      25.424   0.448  51.756  1.00  0.00     0.178 HD
BRANCH  13  15
HETATM   15  C13 UNL     1      25.981  -0.716  53.338  1.00  0.00     0.204 C 
BRANCH  15  16
HETATM   16  C14 UNL     1      27.002   0.235  53.937  1.00  0.00     0.324 C 
HETATM   17  F1  UNL     1      26.306   1.198  54.634  1.00  0.00    -0.218 F 
BRANCH  16  18
HETATM   18  O2  UNL     1      27.890  -0.475  54.776  1.00  0.00    -0.353 OA
BRANCH  18  19
HETATM   19  C15 UNL     1      29.196  -0.073  54.476  1.00  0.00     0.202 C 
BRANCH  19  20
HETATM   20  C16 UNL     1      29.760  -0.924  53.376  1.00  0.00     0.248 C 
HETATM   21  F2  UNL     1      29.308  -2.225  53.529  1.00  0.00    -0.253 F 
ENDBRANCH  19  20
ENDBRANCH  18  19
ENDBRANCH  16  18
ENDBRANCH  15  16
ENDBRANCH  13  15
ENDBRANCH   9  13
BRANCH   7  22
HETATM   22  S1  UNL     1      22.303   3.424  51.108  1.00  0.00    -0.141 SA
HETATM   23  C11 UNL     1      21.175   4.836  51.271  1.00  0.00     0.092 C 
ENDBRANCH   7  22
BRANCH   1  24
HETATM   24  N1  UNL     1      18.055  -0.127  50.964  1.00  0.00    -0.324 N 
HETATM   25  C3  UNL     1      16.734   0.453  50.955  1.00  0.00     0.244 C 
HETATM   26  O1  UNL     1      16.656   1.259  51.895  1.00  0.00    -0.268 OA
HETATM   27  H4  UNL     1      18.480  -0.840  50.327  1.00  0.00     0.169 HD
BRANCH  25  28
HETATM   28  C2  UNL     1      15.880  -0.048  49.882  1.00  0.00     0.064 C 
HETATM   29  C1  UNL     1      16.071  -0.996  48.973  1.00  0.00     0.017 C 
ENDBRANCH  25  28
ENDBRANCH   1  24
TORSDOF 9
ENDMDL
MODEL 7
REMARK VINA RESULT:      -6.3      5.179      8.965
REMARK  9 active torsions:
REMARK  status: ('A' for Active; 'I' for Inactive)
REMARK    1  A    between atoms: C2_2  and  C3_3 
REMARK       I    between atoms: C3_3  and  N1_5 
REMARK    2  A    between atoms: N1_5  and  C4_6 
REMARK    3  A    between atoms: C10_12  and  S1_13 
REMARK    4  A    between atoms: C12_16  and  N3_17 
REMARK    5  A    between atoms: N3_17  and  C13_18 
REMARK    6  A    between atoms: C13_18  and  C14_19 
REMARK    7  A    between atoms: C14_19  and  O2_21 
REMARK    8  A    between atoms: O2_21  and  C15_22 
REMARK    9  A    between atoms: C15_22  and  C16_23 
ROOT
HETATM    1  C4  UNL     1      18.743   0.957  51.137  1.00  0.00     0.038 A 
HETATM    2  C5  UNL     1      19.201   1.311  49.903  1.00  0.00     0.066 A 
HETATM    3  C6  UNL     1      20.533   1.130  49.647  1.00  0.00     0.079 A 
HETATM    4  C7  UNL     1      21.301   0.583  50.692  1.00  0.00     0.047 A 
HETATM    5  C8  UNL     1      20.819   0.245  51.927  1.00  0.00    -0.018 A 
HETATM    6  C9  UNL     1      19.485   0.435  52.161  1.00  0.00     0.039 A 
HETATM    7  C10 UNL     1      22.047  -0.124  52.679  1.00  0.00     0.221 C 
HETATM    8  N2  UNL     1      22.961   0.982  52.645  1.00  0.00    -0.085 NA
HETATM    9  C12 UNL     1      23.309   1.732  51.649  1.00  0.00     0.720 C 
HETATM   10  N4  UNL     1      23.390   2.269  50.311  1.00  0.00    -0.051 NA
HETATM   11  C17 UNL     1      22.660   2.023  49.287  1.00  0.00     0.278 C 
HETATM   12  O3  UNL     1      21.529   1.312  48.643  1.00  0.00    -0.303 OA
ENDROOT
BRANCH   9  13
HETATM   13  N3  UNL     1      24.248   2.633  52.330  1.00  0.00    -0.218 N 
HETATM   14  H12 UNL     1      24.189   3.702  52.451  1.00  0.00     0.178 HD
BRANCH  13  15
HETATM   15  C13 UNL     1      25.505   2.247  53.009  1.00  0.00     0.204 C 
BRANCH  15  16
HETATM   16  C14 UNL     1      26.547   2.014  51.930  1.00  0.00     0.324 C 
HETATM   17  F1  UNL     1      27.705   2.641  52.335  1.00  0.00    -0.218 F 
BRANCH  16  18
HETATM   18  O2  UNL     1      26.746   0.628  51.740  1.00  0.00    -0.353 OA
BRANCH  18  19
HETATM   19  C15 UNL     1      26.932   0.034  52.993  1.00  0.00     0.202 C 
BRANCH  19  20
HETATM   20  C16 UNL     1      26.321  -1.337  53.012  1.00  0.00     0.248 C 
HETATM   21  F2  UNL     1      26.717  -2.027  51.878  1.00  0.00    -0.253 F 
ENDBRANCH  19  20
ENDBRANCH  18  19
ENDBRANCH  16  18
ENDBRANCH  15  16
ENDBRANCH  13  15
ENDBRANCH   9  13
BRANCH   7  22
HETATM   22  S1  UNL     1      21.697  -0.458  54.417  1.00  0.00    -0.141 SA
HETATM   23  C11 UNL     1      23.059  -1.360  55.208  1.00  0.00     0.092 C 
ENDBRANCH   7  22
BRANCH   1  24
HETATM   24  N1  UNL     1      17.361   1.155  51.373  1.00  0.00    -0.324 N 
HETATM   25  C3  UNL     1      16.667   2.357  51.767  1.00  0.00     0.244 C 
HETATM   26  O1  UNL     1      17.502   3.267  51.883  1.00  0.00    -0.268 OA
HETATM   27  H4  UNL     1      16.988   0.195  51.184  1.00  0.00     0.169 HD
BRANCH  25  28
HETATM   28  C2  UNL     1      15.226   2.182  51.916  1.00  0.00     0.064 C 
HETATM   29  C1  UNL     1      14.511   1.275  52.571  1.00  0.00     0.017 C 
ENDBRANCH  25  28
ENDBRANCH   1  24
TORSDOF 9
ENDMDL
MODEL 8
REMARK VINA RESULT:      -6.1      3.801      4.978
REMARK  9 active torsions:
REMARK  status: ('A' for Active; 'I' for Inactive)
REMARK    1  A    between atoms: C2_2  and  C3_3 
REMARK       I    between atoms: C3_3  and  N1_5 
REMARK    2  A    between atoms: N1_5  and  C4_6 
REMARK    3  A    between atoms: C10_12  and  S1_13 
REMARK    4  A    between atoms: C12_16  and  N3_17 
REMARK    5  A    between atoms: N3_17  and  C13_18 
REMARK    6  A    between atoms: C13_18  and  C14_19 
REMARK    7  A    between atoms: C14_19  and  O2_21 
REMARK    8  A    between atoms: O2_21  and  C15_22 
REMARK    9  A    between atoms: C15_22  and  C16_23 
ROOT
HETATM    1  C4  UNL     1      25.224   0.266  52.995  1.00  0.00     0.038 A 
HETATM    2  C5  UNL     1      24.466  -0.472  53.854  1.00  0.00     0.066 A 
HETATM    3  C6  UNL     1      23.128  -0.580  53.585  1.00  0.00     0.079 A 
HETATM    4  C7  UNL     1      22.668   0.083  52.432  1.00  0.00     0.047 A 
HETATM    5  C8  UNL     1      23.449   0.826  51.589  1.00  0.00    -0.018 A 
HETATM    6  C9  UNL     1      24.782   0.921  51.878  1.00  0.00     0.039 A 
HETATM    7  C10 UNL     1      22.460   1.419  50.650  1.00  0.00     0.221 C 
HETATM    8  N2  UNL     1      21.483   2.149  51.406  1.00  0.00    -0.085 NA
HETATM    9  C12 UNL     1      20.857   1.810  52.487  1.00  0.00     0.720 C 
HETATM   10  N4  UNL     1      20.426   1.033  53.625  1.00  0.00    -0.051 NA
HETATM   11  C17 UNL     1      20.915  -0.050  54.105  1.00  0.00     0.278 C 
HETATM   12  O3  UNL     1      21.916  -1.145  54.077  1.00  0.00    -0.303 OA
ENDROOT
BRANCH   9  13
HETATM   13  N3  UNL     1      20.037   3.012  52.689  1.00  0.00    -0.218 N 
HETATM   14  H12 UNL     1      19.689   3.442  53.613  1.00  0.00     0.178 HD
BRANCH  13  15
HETATM   15  C13 UNL     1      19.504   3.903  51.633  1.00  0.00     0.204 C 
BRANCH  15  16
HETATM   16  C14 UNL     1      18.035   3.563  51.456  1.00  0.00     0.324 C 
HETATM   17  F1  UNL     1      17.681   3.929  50.177  1.00  0.00    -0.218 F 
BRANCH  16  18
HETATM   18  O2  UNL     1      17.828   2.183  51.678  1.00  0.00    -0.353 OA
BRANCH  18  19
HETATM   19  C15 UNL     1      16.985   1.697  50.673  1.00  0.00     0.202 C 
BRANCH  19  20
HETATM   20  C16 UNL     1      17.550   0.436  50.087  1.00  0.00     0.248 C 
HETATM   21  F2  UNL     1      18.905   0.371  50.368  1.00  0.00    -0.253 F 
ENDBRANCH  19  20
ENDBRANCH  18  19
ENDBRANCH  16  18
ENDBRANCH  15  16
ENDBRANCH  13  15
ENDBRANCH   9  13
BRANCH   7  22
HETATM   22  S1  UNL     1      23.229   2.595  49.518  1.00  0.00    -0.141 SA
HETATM   23  C11 UNL     1      23.485   4.209  50.307  1.00  0.00     0.092 C 
ENDBRANCH   7  22
BRANCH   1  24
HETATM   24  N1  UNL     1      26.604   0.359  53.297  1.00  0.00    -0.324 N 
HETATM   25  C3  UNL     1      27.320   1.418  53.967  1.00  0.00     0.244 C 
HETATM   26  O1  UNL     1      26.508   2.308  54.266  1.00  0.00    -0.268 OA
HETATM   27  H4  UNL     1      26.955  -0.545  52.904  1.00  0.00     0.169 HD
BRANCH  25  28
HETATM   28  C2  UNL     1      28.750   1.164  54.106  1.00  0.00     0.064 C 
HETATM   29  C1  UNL     1      29.487   0.094  53.831  1.00  0.00     0.017 C 
ENDBRANCH  25  28
ENDBRANCH   1  24
TORSDOF 9
ENDMDL
MODEL 9
REMARK VINA RESULT:      -6.0      4.754      6.292
REMARK  9 active torsions:
REMARK  status: ('A' for Active; 'I' for Inactive)
REMARK    1  A    between atoms: C2_2  and  C3_3 
REMARK       I    between atoms: C3_3  and  N1_5 
REMARK    2  A    between atoms: N1_5  and  C4_6 
REMARK    3  A    between atoms: C10_12  and  S1_13 
REMARK    4  A    between atoms: C12_16  and  N3_17 
REMARK    5  A    between atoms: N3_17  and  C13_18 
REMARK    6  A    between atoms: C13_18  and  C14_19 
REMARK    7  A    between atoms: C14_19  and  O2_21 
REMARK    8  A    between atoms: O2_21  and  C15_22 
REMARK    9  A    between atoms: C15_22  and  C16_23 
ROOT
HETATM    1  C4  UNL     1      25.202   1.317  52.551  1.00  0.00     0.038 A 
HETATM    2  C5  UNL     1      25.057   2.566  52.025  1.00  0.00     0.066 A 
HETATM    3  C6  UNL     1      23.797   3.099  51.994  1.00  0.00     0.079 A 
HETATM    4  C7  UNL     1      22.767   2.296  52.521  1.00  0.00     0.047 A 
HETATM    5  C8  UNL     1      22.937   1.040  53.036  1.00  0.00    -0.018 A 
HETATM    6  C9  UNL     1      24.205   0.528  53.056  1.00  0.00     0.039 A 
HETATM    7  C10 UNL     1      21.543   0.592  53.297  1.00  0.00     0.221 C 
HETATM    8  N2  UNL     1      20.794   0.673  52.075  1.00  0.00    -0.085 NA
HETATM    9  C12 UNL     1      20.754   1.622  51.195  1.00  0.00     0.720 C 
HETATM   10  N4  UNL     1      21.019   2.877  50.531  1.00  0.00    -0.051 NA
HETATM   11  C17 UNL     1      21.914   3.759  50.783  1.00  0.00     0.278 C 
HETATM   12  O3  UNL     1      23.063   4.249  51.583  1.00  0.00    -0.303 OA
ENDROOT
BRANCH   9  13
HETATM   13  N3  UNL     1      19.806   1.036  50.238  1.00  0.00    -0.218 N 
HETATM   14  H12 UNL     1      19.875   0.100  49.709  1.00  0.00     0.178 HD
BRANCH  13  15
HETATM   15  C13 UNL     1      18.525   1.629  49.791  1.00  0.00     0.204 C 
BRANCH  15  16
HETATM   16  C14 UNL     1      17.409   0.792  50.390  1.00  0.00     0.324 C 
HETATM   17  F1  UNL     1      17.866  -0.504  50.471  1.00  0.00    -0.218 F 
BRANCH  16  18
HETATM   18  O2  UNL     1      17.054   1.298  51.660  1.00  0.00    -0.353 OA
BRANCH  18  19
HETATM   19  C15 UNL     1      16.049   0.484  52.194  1.00  0.00     0.202 C 
BRANCH  19  20
HETATM   20  C16 UNL     1      14.825   1.300  52.493  1.00  0.00     0.248 C 
HETATM   21  F2  UNL     1      14.196   0.783  53.614  1.00  0.00    -0.253 F 
ENDBRANCH  19  20
ENDBRANCH  18  19
ENDBRANCH  16  18
ENDBRANCH  15  16
ENDBRANCH  13  15
ENDBRANCH   9  13
BRANCH   7  22
HETATM   22  S1  UNL     1      21.478  -1.129  53.835  1.00  0.00    -0.141 SA
HETATM   23  C11 UNL     1      22.572  -1.425  55.252  1.00  0.00     0.092 C 
ENDBRANCH   7  22
BRANCH   1  24
HETATM   24  N1  UNL     1      26.517   0.793  52.572  1.00  0.00    -0.324 N 
HETATM   25  C3  UNL     1      27.466   0.759  53.658  1.00  0.00     0.244 C 
HETATM   26  O1  UNL     1      26.943   1.292  54.649  1.00  0.00    -0.268 OA
HETATM   27  H4  UNL     1      26.605   0.441  51.591  1.00  0.00     0.169 HD
BRANCH  25  28
HETATM   28  C2  UNL     1      28.736   0.131  53.308  1.00  0.00     0.064 C 
HETATM   29  C1  UNL     1      29.494  -0.746  53.956  1.00  0.00     0.017 C 
ENDBRANCH  25  28
ENDBRANCH   1  24
TORSDOF 9
ENDMDL
