MODEL 1
REMARK VINA RESULT:      -7.9      0.000      0.000
REMARK  7 active torsions:
REMARK  status: ('A' for Active; 'I' for Inactive)
REMARK    1  A    between atoms: O1_2  and  C2_3 
REMARK    2  A    between atoms: C5_6  and  N1_7 
REMARK    3  A    between atoms: N1_7  and  C6_8 
REMARK    4  A    between atoms: C8_12  and  C9_13 
REMARK    5  A    between atoms: C9_13  and  C10_14 
REMARK    6  A    between atoms: C11_15  and  C12_16 
REMARK    7  A    between atoms: C18_23  and  S1_24 
ROOT
HETATM    1  C6  UNL     1      22.787   2.212  51.424  1.00  0.00     0.147 A 
HETATM    2  N2  UNL     1      22.446   1.311  50.464  1.00  0.00    -0.223 NA
HETATM    3  C7  UNL     1      22.250   1.761  49.205  1.00  0.00     0.235 A 
HETATM    4  N3  UNL     1      22.375   3.057  48.864  1.00  0.00    -0.244 NA
HETATM    5  C8  UNL     1      22.709   4.002  49.757  1.00  0.00     0.067 A 
HETATM    6  C18 UNL     1      22.905   3.529  51.035  1.00  0.00     0.069 A 
ENDROOT
BRANCH   1   7
HETATM    7  N1  UNL     1      23.002   1.754  52.751  1.00  0.00    -0.349 N 
HETATM    8  H6  UNL     1      22.726   2.359  53.560  1.00  0.00     0.167 HD
BRANCH   7   9
HETATM    9  C5  UNL     1      23.586   0.485  52.946  1.00  0.00     0.101 C 
HETATM   10  C4  UNL     1      24.929   0.561  52.947  1.00  0.00    -0.016 A 
HETATM   11  C3  UNL     1      25.793   1.711  52.782  1.00  0.00     0.051 A 
HETATM   12  C19 UNL     1      25.862  -0.549  53.120  1.00  0.00     0.039 A 
HETATM   13  C2  UNL     1      27.064   1.284  52.856  1.00  0.00     0.090 A 
HETATM   14  C20 UNL     1      27.115  -0.144  53.069  1.00  0.00     0.068 A 
HETATM   15 CL1  UNL     1      28.617  -1.025  53.214  1.00  0.00    -0.081 Cl
BRANCH  13  16
HETATM   16  O1  UNL     1      28.108   2.189  52.728  1.00  0.00    -0.354 OA
HETATM   17  C1  UNL     1      29.065   2.460  53.718  1.00  0.00     0.210 C 
ENDBRANCH  13  16
ENDBRANCH   7   9
ENDBRANCH   1   7
BRANCH   6  18
HETATM   18  S1  UNL     1      23.354   4.646  52.353  1.00  0.00    -0.137 SA
HETATM   19  H14 UNL     1      24.052   4.021  53.380  1.00  0.00     0.107 HD
ENDBRANCH   6  18
BRANCH   5  20
HETATM   20  C9  UNL     1      22.876   5.432  49.491  1.00  0.00     0.155 C 
BRANCH  20  21
HETATM   21  C10 UNL     1      24.273   5.684  49.140  1.00  0.00    -0.095 C 
HETATM   22  C11 UNL     1      25.428   5.872  48.851  1.00  0.00    -0.067 C 
BRANCH  22  23
HETATM   23  C12 UNL     1      26.805   6.096  48.495  1.00  0.00     0.020 A 
HETATM   24  C13 UNL     1      27.656   5.021  48.612  1.00  0.00     0.021 A 
HETATM   25  C14 UNL     1      28.971   5.273  48.264  1.00  0.00     0.004 A 
HETATM   26  C15 UNL     1      29.362   6.517  47.835  1.00  0.00     0.042 A 
HETATM   27  C16 UNL     1      28.470   7.548  47.739  1.00  0.00     0.117 A 
HETATM   28  F1  UNL     1      28.913   8.763  47.309  1.00  0.00    -0.206 F 
HETATM   29  C17 UNL     1      27.139   7.365  48.072  1.00  0.00     0.062 A 
ENDBRANCH  22  23
ENDBRANCH  20  21
ENDBRANCH   5  20
TORSDOF 7
ENDMDL
MODEL 2
REMARK VINA RESULT:      -7.8      5.282      7.800
REMARK  7 active torsions:
REMARK  status: ('A' for Active; 'I' for Inactive)
REMARK    1  A    between atoms: O1_2  and  C2_3 
REMARK    2  A    between atoms: C5_6  and  N1_7 
REMARK    3  A    between atoms: N1_7  and  C6_8 
REMARK    4  A    between atoms: C8_12  and  C9_13 
REMARK    5  A    between atoms: C9_13  and  C10_14 
REMARK    6  A    between atoms: C11_15  and  C12_16 
REMARK    7  A    between atoms: C18_23  and  S1_24 
ROOT
HETATM    1  C6  UNL     1      22.213   1.661  50.552  1.00  0.00     0.147 A 
HETATM    2  N2  UNL     1      22.527   2.447  49.488  1.00  0.00    -0.223 NA
HETATM    3  C7  UNL     1      23.496   3.375  49.641  1.00  0.00     0.235 A 
HETATM    4  N3  UNL     1      24.159   3.556  50.799  1.00  0.00    -0.244 NA
HETATM    5  C8  UNL     1      23.904   2.819  51.890  1.00  0.00     0.067 A 
HETATM    6  C18 UNL     1      22.915   1.877  51.719  1.00  0.00     0.069 A 
ENDROOT
BRANCH   1   7
HETATM    7  N1  UNL     1      21.200   0.677  50.406  1.00  0.00    -0.349 N 
HETATM    8  H6  UNL     1      21.397  -0.315  50.675  1.00  0.00     0.167 HD
BRANCH   7   9
HETATM    9  C5  UNL     1      19.943   1.067  49.897  1.00  0.00     0.101 C 
HETATM   10  C4  UNL     1      18.942   0.625  50.679  1.00  0.00    -0.016 A 
HETATM   11  C3  UNL     1      18.991  -0.153  51.899  1.00  0.00     0.051 A 
HETATM   12  C19 UNL     1      17.513   0.837  50.463  1.00  0.00     0.039 A 
HETATM   13  C2  UNL     1      17.729  -0.349  52.314  1.00  0.00     0.090 A 
HETATM   14  C20 UNL     1      16.789   0.274  51.410  1.00  0.00     0.068 A 
HETATM   15 CL1  UNL     1      15.061   0.212  51.656  1.00  0.00    -0.081 Cl
BRANCH  13  16
HETATM   16  O1  UNL     1      17.485  -1.073  53.472  1.00  0.00    -0.354 OA
HETATM   17  C1  UNL     1      17.764  -2.438  53.643  1.00  0.00     0.210 C 
ENDBRANCH  13  16
ENDBRANCH   7   9
ENDBRANCH   1   7
BRANCH   6  18
HETATM   18  S1  UNL     1      22.442   0.807  53.068  1.00  0.00    -0.137 SA
HETATM   19  H14 UNL     1      21.501   1.383  53.913  1.00  0.00     0.107 HD
ENDBRANCH   6  18
BRANCH   5  20
HETATM   20  C9  UNL     1      24.567   2.930  53.192  1.00  0.00     0.155 C 
BRANCH  20  21
HETATM   21  C10 UNL     1      25.703   2.009  53.219  1.00  0.00    -0.095 C 
HETATM   22  C11 UNL     1      26.639   1.251  53.261  1.00  0.00    -0.067 C 
BRANCH  22  23
HETATM   23  C12 UNL     1      27.750   0.337  53.312  1.00  0.00     0.020 A 
HETATM   24  C13 UNL     1      28.977   0.872  53.631  1.00  0.00     0.021 A 
HETATM   25  C14 UNL     1      30.022  -0.034  53.669  1.00  0.00     0.004 A 
HETATM   26  C15 UNL     1      29.812  -1.364  53.402  1.00  0.00     0.042 A 
HETATM   27  C16 UNL     1      28.569  -1.839  53.090  1.00  0.00     0.117 A 
HETATM   28  F1  UNL     1      28.418  -3.169  52.834  1.00  0.00    -0.206 F 
HETATM   29  C17 UNL     1      27.480  -0.986  53.035  1.00  0.00     0.062 A 
ENDBRANCH  22  23
ENDBRANCH  20  21
ENDBRANCH   5  20
TORSDOF 7
ENDMDL
MODEL 3
REMARK VINA RESULT:      -7.8      4.355      6.397
REMARK  7 active torsions:
REMARK  status: ('A' for Active; 'I' for Inactive)
REMARK    1  A    between atoms: O1_2  and  C2_3 
REMARK    2  A    between atoms: C5_6  and  N1_7 
REMARK    3  A    between atoms: N1_7  and  C6_8 
REMARK    4  A    between atoms: C8_12  and  C9_13 
REMARK    5  A    between atoms: C9_13  and  C10_14 
REMARK    6  A    between atoms: C11_15  and  C12_16 
REMARK    7  A    between atoms: C18_23  and  S1_24 
ROOT
HETATM    1  C6  UNL     1      21.356   3.015  50.267  1.00  0.00     0.147 A 
HETATM    2  N2  UNL     1      21.212   2.395  49.064  1.00  0.00    -0.223 NA
HETATM    3  C7  UNL     1      22.288   2.319  48.252  1.00  0.00     0.235 A 
HETATM    4  N3  UNL     1      23.490   2.829  48.579  1.00  0.00    -0.244 NA
HETATM    5  C8  UNL     1      23.706   3.453  49.747  1.00  0.00     0.067 A 
HETATM    6  C18 UNL     1      22.602   3.524  50.565  1.00  0.00     0.069 A 
ENDROOT
BRANCH   1   7
HETATM    7  N1  UNL     1      20.235   3.099  51.136  1.00  0.00    -0.349 N 
HETATM    8  H6  UNL     1      20.183   3.868  51.843  1.00  0.00     0.167 HD
BRANCH   7   9
HETATM    9  C5  UNL     1      19.213   2.134  51.020  1.00  0.00     0.101 C 
HETATM   10  C4  UNL     1      19.363   1.153  51.928  1.00  0.00    -0.016 A 
HETATM   11  C3  UNL     1      20.380   0.975  52.943  1.00  0.00     0.051 A 
HETATM   12  C19 UNL     1      18.496  -0.010  52.102  1.00  0.00     0.039 A 
HETATM   13  C2  UNL     1      20.106  -0.160  53.606  1.00  0.00     0.090 A 
HETATM   14  C20 UNL     1      18.916  -0.788  53.080  1.00  0.00     0.068 A 
HETATM   15 CL1  UNL     1      18.278  -2.284  53.717  1.00  0.00    -0.081 Cl
BRANCH  13  16
HETATM   16  O1  UNL     1      20.931  -0.573  54.642  1.00  0.00    -0.354 OA
HETATM   17  C1  UNL     1      21.827  -1.653  54.577  1.00  0.00     0.210 C 
ENDBRANCH  13  16
ENDBRANCH   7   9
ENDBRANCH   1   7
BRANCH   6  18
HETATM   18  S1  UNL     1      22.706   4.321  52.159  1.00  0.00    -0.137 SA
HETATM   19  H14 UNL     1      21.776   3.835  53.071  1.00  0.00     0.107 HD
ENDBRANCH   6  18
BRANCH   5  20
HETATM   20  C9  UNL     1      24.970   4.038  50.202  1.00  0.00     0.155 C 
BRANCH  20  21
HETATM   21  C10 UNL     1      25.715   3.023  50.947  1.00  0.00    -0.095 C 
HETATM   22  C11 UNL     1      26.344   2.191  51.550  1.00  0.00    -0.067 C 
BRANCH  22  23
HETATM   23  C12 UNL     1      27.100   1.204  52.277  1.00  0.00     0.020 A 
HETATM   24  C13 UNL     1      28.110   1.672  53.086  1.00  0.00     0.021 A 
HETATM   25  C14 UNL     1      28.816   0.696  53.767  1.00  0.00     0.004 A 
HETATM   26  C15 UNL     1      28.503  -0.632  53.622  1.00  0.00     0.042 A 
HETATM   27  C16 UNL     1      27.487  -1.038  52.803  1.00  0.00     0.117 A 
HETATM   28  F1  UNL     1      27.220  -2.370  52.696  1.00  0.00    -0.206 F 
HETATM   29  C17 UNL     1      26.741  -0.114  52.092  1.00  0.00     0.062 A 
ENDBRANCH  22  23
ENDBRANCH  20  21
ENDBRANCH   5  20
TORSDOF 7
ENDMDL
MODEL 4
REMARK VINA RESULT:      -7.8      3.465      4.528
REMARK  7 active torsions:
REMARK  status: ('A' for Active; 'I' for Inactive)
REMARK    1  A    between atoms: O1_2  and  C2_3 
REMARK    2  A    between atoms: C5_6  and  N1_7 
REMARK    3  A    between atoms: N1_7  and  C6_8 
REMARK    4  A    between atoms: C8_12  and  C9_13 
REMARK    5  A    between atoms: C9_13  and  C10_14 
REMARK    6  A    between atoms: C11_15  and  C12_16 
REMARK    7  A    between atoms: C18_23  and  S1_24 
ROOT
HETATM    1  C6  UNL     1      22.504   3.297  51.220  1.00  0.00     0.147 A 
HETATM    2  N2  UNL     1      21.948   4.076  50.253  1.00  0.00    -0.223 NA
HETATM    3  C7  UNL     1      22.729   4.479  49.228  1.00  0.00     0.235 A 
HETATM    4  N3  UNL     1      24.029   4.146  49.124  1.00  0.00    -0.244 NA
HETATM    5  C8  UNL     1      24.646   3.382  50.038  1.00  0.00     0.067 A 
HETATM    6  C18 UNL     1      23.838   2.978  51.077  1.00  0.00     0.069 A 
ENDROOT
BRANCH   1   7
HETATM    7  N1  UNL     1      21.695   2.860  52.302  1.00  0.00    -0.349 N 
HETATM    8  H6  UNL     1      22.024   3.002  53.286  1.00  0.00     0.167 HD
BRANCH   7   9
HETATM    9  C5  UNL     1      20.459   2.242  52.019  1.00  0.00     0.101 C 
HETATM   10  C4  UNL     1      20.332   1.079  52.682  1.00  0.00    -0.016 A 
HETATM   11  C3  UNL     1      21.250   0.423  53.590  1.00  0.00     0.051 A 
HETATM   12  C19 UNL     1      19.190   0.171  52.632  1.00  0.00     0.039 A 
HETATM   13  C2  UNL     1      20.678  -0.721  53.998  1.00  0.00     0.090 A 
HETATM   14  C20 UNL     1      19.375  -0.887  53.396  1.00  0.00     0.068 A 
HETATM   15 CL1  UNL     1      18.358  -2.272  53.714  1.00  0.00    -0.081 Cl
BRANCH  13  16
HETATM   16  O1  UNL     1      21.348  -1.554  54.883  1.00  0.00    -0.354 OA
HETATM   17  C1  UNL     1      22.691  -1.408  55.266  1.00  0.00     0.210 C 
ENDBRANCH  13  16
ENDBRANCH   7   9
ENDBRANCH   1   7
BRANCH   6  18
HETATM   18  S1  UNL     1      24.492   1.956  52.386  1.00  0.00    -0.137 SA
HETATM   19  H14 UNL     1      23.781   0.773  52.557  1.00  0.00     0.107 HD
ENDBRANCH   6  18
BRANCH   5  20
HETATM   20  C9  UNL     1      26.048   2.959  50.018  1.00  0.00     0.155 C 
BRANCH  20  21
HETATM   21  C10 UNL     1      26.840   3.993  49.353  1.00  0.00    -0.095 C 
HETATM   22  C11 UNL     1      27.497   4.853  48.823  1.00  0.00    -0.067 C 
BRANCH  22  23
HETATM   23  C12 UNL     1      28.290   5.875  48.191  1.00  0.00     0.020 A 
HETATM   24  C13 UNL     1      27.626   7.007  47.779  1.00  0.00     0.021 A 
HETATM   25  C14 UNL     1      28.418   7.967  47.174  1.00  0.00     0.004 A 
HETATM   26  C15 UNL     1      29.767   7.769  47.014  1.00  0.00     0.042 A 
HETATM   27  C16 UNL     1      30.373   6.622  47.444  1.00  0.00     0.117 A 
HETATM   28  F1  UNL     1      31.716   6.478  47.259  1.00  0.00    -0.206 F 
HETATM   29  C17 UNL     1      29.639   5.622  48.057  1.00  0.00     0.062 A 
ENDBRANCH  22  23
ENDBRANCH  20  21
ENDBRANCH   5  20
TORSDOF 7
ENDMDL
MODEL 5
REMARK VINA RESULT:      -7.8      4.670      8.058
REMARK  7 active torsions:
REMARK  status: ('A' for Active; 'I' for Inactive)
REMARK    1  A    between atoms: O1_2  and  C2_3 
REMARK    2  A    between atoms: C5_6  and  N1_7 
REMARK    3  A    between atoms: N1_7  and  C6_8 
REMARK    4  A    between atoms: C8_12  and  C9_13 
REMARK    5  A    between atoms: C9_13  and  C10_14 
REMARK    6  A    between atoms: C11_15  and  C12_16 
REMARK    7  A    between atoms: C18_23  and  S1_24 
ROOT
HETATM    1  C6  UNL     1      25.852   6.680  50.045  1.00  0.00     0.147 A 
HETATM    2  N2  UNL     1      24.853   7.319  50.712  1.00  0.00    -0.223 NA
HETATM    3  C7  UNL     1      23.811   6.585  51.159  1.00  0.00     0.235 A 
HETATM    4  N3  UNL     1      23.719   5.255  50.971  1.00  0.00    -0.244 NA
HETATM    5  C8  UNL     1      24.664   4.558  50.323  1.00  0.00     0.067 A 
HETATM    6  C18 UNL     1      25.720   5.318  49.873  1.00  0.00     0.069 A 
ENDROOT
BRANCH   1   7
HETATM    7  N1  UNL     1      26.958   7.436  49.573  1.00  0.00    -0.349 N 
HETATM    8  H6  UNL     1      27.827   6.944  49.260  1.00  0.00     0.167 HD
BRANCH   7   9
HETATM    9  C5  UNL     1      26.853   8.842  49.537  1.00  0.00     0.101 C 
HETATM   10  C4  UNL     1      28.043   9.414  49.281  1.00  0.00    -0.016 A 
HETATM   11  C3  UNL     1      29.336   8.804  49.053  1.00  0.00     0.051 A 
HETATM   12  C19 UNL     1      28.314  10.845  49.172  1.00  0.00     0.039 A 
HETATM   13  C2  UNL     1      30.225   9.788  48.840  1.00  0.00     0.090 A 
HETATM   14  C20 UNL     1      29.585  11.081  48.914  1.00  0.00     0.068 A 
HETATM   15 CL1  UNL     1      30.454  12.579  48.684  1.00  0.00    -0.081 Cl
BRANCH  13  16
HETATM   16  O1  UNL     1      31.554   9.480  48.594  1.00  0.00    -0.354 OA
HETATM   17  C1  UNL     1      32.049   8.191  48.337  1.00  0.00     0.210 C 
ENDBRANCH  13  16
ENDBRANCH   7   9
ENDBRANCH   1   7
BRANCH   6  18
HETATM   18  S1  UNL     1      27.071   4.556  48.989  1.00  0.00    -0.137 SA
HETATM   19  H14 UNL     1      26.739   4.212  47.684  1.00  0.00     0.107 HD
ENDBRANCH   6  18
BRANCH   5  20
HETATM   20  C9  UNL     1      24.664   3.116  50.070  1.00  0.00     0.155 C 
BRANCH  20  21
HETATM   21  C10 UNL     1      25.618   2.480  50.978  1.00  0.00    -0.095 C 
HETATM   22  C11 UNL     1      26.413   1.974  51.729  1.00  0.00    -0.067 C 
BRANCH  22  23
HETATM   23  C12 UNL     1      27.357   1.372  52.635  1.00  0.00     0.020 A 
HETATM   24  C13 UNL     1      27.358  -0.002  52.703  1.00  0.00     0.021 A 
HETATM   25  C14 UNL     1      28.276  -0.546  53.584  1.00  0.00     0.004 A 
HETATM   26  C15 UNL     1      29.109   0.258  54.320  1.00  0.00     0.042 A 
HETATM   27  C16 UNL     1      29.062   1.619  54.211  1.00  0.00     0.117 A 
HETATM   28  F1  UNL     1      29.912   2.371  54.967  1.00  0.00    -0.206 F 
HETATM   29  C17 UNL     1      28.167   2.229  53.348  1.00  0.00     0.062 A 
ENDBRANCH  22  23
ENDBRANCH  20  21
ENDBRANCH   5  20
TORSDOF 7
ENDMDL
MODEL 6
REMARK VINA RESULT:      -7.7      6.583      9.045
REMARK  7 active torsions:
REMARK  status: ('A' for Active; 'I' for Inactive)
REMARK    1  A    between atoms: O1_2  and  C2_3 
REMARK    2  A    between atoms: C5_6  and  N1_7 
REMARK    3  A    between atoms: N1_7  and  C6_8 
REMARK    4  A    between atoms: C8_12  and  C9_13 
REMARK    5  A    between atoms: C9_13  and  C10_14 
REMARK    6  A    between atoms: C11_15  and  C12_16 
REMARK    7  A    between atoms: C18_23  and  S1_24 
ROOT
HETATM    1  C6  UNL     1      20.166  -0.638  53.440  1.00  0.00     0.147 A 
HETATM    2  N2  UNL     1      20.622  -1.546  54.345  1.00  0.00    -0.223 NA
HETATM    3  C7  UNL     1      21.952  -1.605  54.577  1.00  0.00     0.235 A 
HETATM    4  N3  UNL     1      22.839  -0.810  53.951  1.00  0.00    -0.244 NA
HETATM    5  C8  UNL     1      22.464   0.108  53.048  1.00  0.00     0.067 A 
HETATM    6  C18 UNL     1      21.107   0.157  52.821  1.00  0.00     0.069 A 
ENDROOT
BRANCH   1   7
HETATM    7  N1  UNL     1      18.770  -0.560  53.188  1.00  0.00    -0.349 N 
HETATM    8  H6  UNL     1      18.359   0.329  52.818  1.00  0.00     0.167 HD
BRANCH   7   9
HETATM    9  C5  UNL     1      17.969  -1.692  53.446  1.00  0.00     0.101 C 
HETATM   10  C4  UNL     1      16.906  -1.735  52.623  1.00  0.00    -0.016 A 
HETATM   11  C3  UNL     1      16.507  -0.821  51.574  1.00  0.00     0.051 A 
HETATM   12  C19 UNL     1      15.865  -2.759  52.602  1.00  0.00     0.039 A 
HETATM   13  C2  UNL     1      15.371  -1.287  51.031  1.00  0.00     0.090 A 
HETATM   14  C20 UNL     1      14.959  -2.512  51.677  1.00  0.00     0.068 A 
HETATM   15 CL1  UNL     1      13.519  -3.386  51.213  1.00  0.00    -0.081 Cl
BRANCH  13  16
HETATM   16  O1  UNL     1      14.764  -0.596  49.993  1.00  0.00    -0.354 OA
HETATM   17  C1  UNL     1      15.095  -0.727  48.635  1.00  0.00     0.210 C 
ENDBRANCH  13  16
ENDBRANCH   7   9
ENDBRANCH   1   7
BRANCH   6  18
HETATM   18  S1  UNL     1      20.427   1.319  51.649  1.00  0.00    -0.137 SA
HETATM   19  H14 UNL     1      20.098   0.733  50.432  1.00  0.00     0.107 HD
ENDBRANCH   6  18
BRANCH   5  20
HETATM   20  C9  UNL     1      23.343   1.023  52.317  1.00  0.00     0.155 C 
BRANCH  20  21
HETATM   21  C10 UNL     1      24.733   0.671  52.608  1.00  0.00    -0.095 C 
HETATM   22  C11 UNL     1      25.882   0.384  52.829  1.00  0.00    -0.067 C 
BRANCH  22  23
HETATM   23  C12 UNL     1      27.257   0.051  53.094  1.00  0.00     0.020 A 
HETATM   24  C13 UNL     1      28.106   1.098  53.368  1.00  0.00     0.021 A 
HETATM   25  C14 UNL     1      29.420   0.742  53.615  1.00  0.00     0.004 A 
HETATM   26  C15 UNL     1      29.812  -0.573  53.582  1.00  0.00     0.042 A 
HETATM   27  C16 UNL     1      28.923  -1.573  53.303  1.00  0.00     0.117 A 
HETATM   28  F1  UNL     1      29.367  -2.861  53.283  1.00  0.00    -0.206 F 
HETATM   29  C17 UNL     1      27.593  -1.286  53.046  1.00  0.00     0.062 A 
ENDBRANCH  22  23
ENDBRANCH  20  21
ENDBRANCH   5  20
TORSDOF 7
ENDMDL
MODEL 7
REMARK VINA RESULT:      -7.6      3.834      7.131
REMARK  7 active torsions:
REMARK  status: ('A' for Active; 'I' for Inactive)
REMARK    1  A    between atoms: O1_2  and  C2_3 
REMARK    2  A    between atoms: C5_6  and  N1_7 
REMARK    3  A    between atoms: N1_7  and  C6_8 
REMARK    4  A    between atoms: C8_12  and  C9_13 
REMARK    5  A    between atoms: C9_13  and  C10_14 
REMARK    6  A    between atoms: C11_15  and  C12_16 
REMARK    7  A    between atoms: C18_23  and  S1_24 
ROOT
HETATM    1  C6  UNL     1      23.669   4.992  50.462  1.00  0.00     0.147 A 
HETATM    2  N2  UNL     1      23.630   5.698  51.624  1.00  0.00    -0.223 NA
HETATM    3  C7  UNL     1      23.588   5.014  52.788  1.00  0.00     0.235 A 
HETATM    4  N3  UNL     1      23.581   3.669  52.846  1.00  0.00    -0.244 NA
HETATM    5  C8  UNL     1      23.618   2.907  51.743  1.00  0.00     0.067 A 
HETATM    6  C18 UNL     1      23.661   3.617  50.564  1.00  0.00     0.069 A 
ENDROOT
BRANCH   1   7
HETATM    7  N1  UNL     1      23.719   5.696  49.230  1.00  0.00    -0.349 N 
HETATM    8  H6  UNL     1      23.288   5.276  48.374  1.00  0.00     0.167 HD
BRANCH   7   9
HETATM    9  C5  UNL     1      24.355   6.955  49.193  1.00  0.00     0.101 C 
HETATM   10  C4  UNL     1      25.668   6.832  48.931  1.00  0.00    -0.016 A 
HETATM   11  C3  UNL     1      26.460   5.643  48.697  1.00  0.00     0.051 A 
HETATM   12  C19 UNL     1      26.637   7.919  48.818  1.00  0.00     0.039 A 
HETATM   13  C2  UNL     1      27.727   6.028  48.479  1.00  0.00     0.090 A 
HETATM   14  C20 UNL     1      27.846   7.466  48.554  1.00  0.00     0.068 A 
HETATM   15 CL1  UNL     1      29.363   8.302  48.318  1.00  0.00    -0.081 Cl
BRANCH  13  16
HETATM   16  O1  UNL     1      28.707   5.079  48.227  1.00  0.00    -0.354 OA
HETATM   17  C1  UNL     1      30.077   5.351  48.093  1.00  0.00     0.210 C 
ENDBRANCH  13  16
ENDBRANCH   7   9
ENDBRANCH   1   7
BRANCH   6  18
HETATM   18  S1  UNL     1      23.713   2.766  48.996  1.00  0.00    -0.137 SA
HETATM   19  H14 UNL     1      25.004   2.438  48.600  1.00  0.00     0.107 HD
ENDBRANCH   6  18
BRANCH   5  20
HETATM   20  C9  UNL     1      23.619   1.443  51.695  1.00  0.00     0.155 C 
BRANCH  20  21
HETATM   21  C10 UNL     1      24.932   0.961  52.123  1.00  0.00    -0.095 C 
HETATM   22  C11 UNL     1      26.021   0.581  52.472  1.00  0.00    -0.067 C 
BRANCH  22  23
HETATM   23  C12 UNL     1      27.320   0.131  52.898  1.00  0.00     0.020 A 
HETATM   24  C13 UNL     1      28.213   1.102  53.290  1.00  0.00     0.021 A 
HETATM   25  C14 UNL     1      29.452   0.635  53.691  1.00  0.00     0.004 A 
HETATM   26  C15 UNL     1      29.734  -0.708  53.685  1.00  0.00     0.042 A 
HETATM   27  C16 UNL     1      28.807  -1.628  53.284  1.00  0.00     0.117 A 
HETATM   28  F1  UNL     1      29.141  -2.949  53.298  1.00  0.00    -0.206 F 
HETATM   29  C17 UNL     1      27.548  -1.228  52.871  1.00  0.00     0.062 A 
ENDBRANCH  22  23
ENDBRANCH  20  21
ENDBRANCH   5  20
TORSDOF 7
ENDMDL
MODEL 8
REMARK VINA RESULT:      -7.6      4.826      8.490
REMARK  7 active torsions:
REMARK  status: ('A' for Active; 'I' for Inactive)
REMARK    1  A    between atoms: O1_2  and  C2_3 
REMARK    2  A    between atoms: C5_6  and  N1_7 
REMARK    3  A    between atoms: N1_7  and  C6_8 
REMARK    4  A    between atoms: C8_12  and  C9_13 
REMARK    5  A    between atoms: C9_13  and  C10_14 
REMARK    6  A    between atoms: C11_15  and  C12_16 
REMARK    7  A    between atoms: C18_23  and  S1_24 
ROOT
HETATM    1  C6  UNL     1      25.310   7.089  50.331  1.00  0.00     0.147 A 
HETATM    2  N2  UNL     1      24.204   7.671  50.867  1.00  0.00    -0.223 NA
HETATM    3  C7  UNL     1      23.043   6.981  50.844  1.00  0.00     0.235 A 
HETATM    4  N3  UNL     1      22.935   5.749  50.313  1.00  0.00    -0.244 NA
HETATM    5  C8  UNL     1      23.982   5.112  49.767  1.00  0.00     0.067 A 
HETATM    6  C18 UNL     1      25.158   5.827  49.798  1.00  0.00     0.069 A 
ENDROOT
BRANCH   1   7
HETATM    7  N1  UNL     1      26.540   7.799  50.352  1.00  0.00    -0.349 N 
HETATM    8  H6  UNL     1      27.417   7.310  50.648  1.00  0.00     0.167 HD
BRANCH   7   9
HETATM    9  C5  UNL     1      26.547   9.156  49.970  1.00  0.00     0.101 C 
HETATM   10  C4  UNL     1      27.751   9.525  49.498  1.00  0.00    -0.016 A 
HETATM   11  C3  UNL     1      28.965   8.750  49.346  1.00  0.00     0.051 A 
HETATM   12  C19 UNL     1      28.126  10.850  49.012  1.00  0.00     0.039 A 
HETATM   13  C2  UNL     1      29.907   9.557  48.832  1.00  0.00     0.090 A 
HETATM   14  C20 UNL     1      29.384  10.887  48.619  1.00  0.00     0.068 A 
HETATM   15 CL1  UNL     1      30.347  12.186  47.960  1.00  0.00    -0.081 Cl
BRANCH  13  16
HETATM   16  O1  UNL     1      31.180   9.065  48.583  1.00  0.00    -0.354 OA
HETATM   17  C1  UNL     1      31.830   8.085  49.351  1.00  0.00     0.210 C 
ENDBRANCH  13  16
ENDBRANCH   7   9
ENDBRANCH   1   7
BRANCH   6  18
HETATM   18  S1  UNL     1      26.655   5.134  49.114  1.00  0.00    -0.137 SA
HETATM   19  H14 UNL     1      27.247   4.192  49.946  1.00  0.00     0.107 HD
ENDBRANCH   6  18
BRANCH   5  20
HETATM   20  C9  UNL     1      23.974   3.775  49.169  1.00  0.00     0.155 C 
BRANCH  20  21
HETATM   21  C10 UNL     1      23.735   2.791  50.225  1.00  0.00    -0.095 C 
HETATM   22  C11 UNL     1      23.556   1.973  51.092  1.00  0.00    -0.067 C 
BRANCH  22  23
HETATM   23  C12 UNL     1      23.347   1.003  52.134  1.00  0.00     0.020 A 
HETATM   24  C13 UNL     1      22.046   0.633  52.383  1.00  0.00     0.021 A 
HETATM   25  C14 UNL     1      21.882  -0.299  53.393  1.00  0.00     0.004 A 
HETATM   26  C15 UNL     1      22.964  -0.797  54.075  1.00  0.00     0.042 A 
HETATM   27  C16 UNL     1      24.235  -0.392  53.784  1.00  0.00     0.117 A 
HETATM   28  F1  UNL     1      25.273  -0.919  54.493  1.00  0.00    -0.206 F 
HETATM   29  C17 UNL     1      24.470   0.538  52.785  1.00  0.00     0.062 A 
ENDBRANCH  22  23
ENDBRANCH  20  21
ENDBRANCH   5  20
TORSDOF 7
ENDMDL
MODEL 9
REMARK VINA RESULT:      -7.6      5.895      8.386
REMARK  7 active torsions:
REMARK  status: ('A' for Active; 'I' for Inactive)
REMARK    1  A    between atoms: O1_2  and  C2_3 
REMARK    2  A    between atoms: C5_6  and  N1_7 
REMARK    3  A    between atoms: N1_7  and  C6_8 
REMARK    4  A    between atoms: C8_12  and  C9_13 
REMARK    5  A    between atoms: C9_13  and  C10_14 
REMARK    6  A    between atoms: C11_15  and  C12_16 
REMARK    7  A    between atoms: C18_23  and  S1_24 
ROOT
HETATM    1  C6  UNL     1      21.720   0.983  52.916  1.00  0.00     0.147 A 
HETATM    2  N2  UNL     1      20.908  -0.102  53.033  1.00  0.00    -0.223 NA
HETATM    3  C7  UNL     1      19.636  -0.000  52.592  1.00  0.00     0.235 A 
HETATM    4  N3  UNL     1      19.139   1.125  52.044  1.00  0.00    -0.244 NA
HETATM    5  C8  UNL     1      19.880   2.233  51.896  1.00  0.00     0.067 A 
HETATM    6  C18 UNL     1      21.174   2.115  52.350  1.00  0.00     0.069 A 
ENDROOT
BRANCH   1   7
HETATM    7  N1  UNL     1      23.062   0.891  53.370  1.00  0.00    -0.349 N 
HETATM    8  H6  UNL     1      23.463   1.654  53.964  1.00  0.00     0.167 HD
BRANCH   7   9
HETATM    9  C5  UNL     1      23.826  -0.237  53.006  1.00  0.00     0.101 C 
HETATM   10  C4  UNL     1      25.131  -0.049  53.271  1.00  0.00    -0.016 A 
HETATM   11  C3  UNL     1      25.806   1.095  53.846  1.00  0.00     0.051 A 
HETATM   12  C19 UNL     1      26.213  -1.000  53.026  1.00  0.00     0.039 A 
HETATM   13  C2  UNL     1      27.117   0.811  53.913  1.00  0.00     0.090 A 
HETATM   14  C20 UNL     1      27.381  -0.513  53.396  1.00  0.00     0.068 A 
HETATM   15 CL1  UNL     1      28.987  -1.200  53.337  1.00  0.00    -0.081 Cl
BRANCH  13  16
HETATM   16  O1  UNL     1      28.003   1.744  54.429  1.00  0.00    -0.354 OA
HETATM   17  C1  UNL     1      28.944   2.465  53.675  1.00  0.00     0.210 C 
ENDBRANCH  13  16
ENDBRANCH   7   9
ENDBRANCH   1   7
BRANCH   6  18
HETATM   18  S1  UNL     1      22.303   3.494  52.233  1.00  0.00    -0.137 SA
HETATM   19  H14 UNL     1      22.299   4.296  53.368  1.00  0.00     0.107 HD
ENDBRANCH   6  18
BRANCH   5  20
HETATM   20  C9  UNL     1      19.441   3.503  51.312  1.00  0.00     0.155 C 
BRANCH  20  21
HETATM   21  C10 UNL     1      18.007   3.660  51.554  1.00  0.00    -0.095 C 
HETATM   22  C11 UNL     1      16.826   3.807  51.744  1.00  0.00    -0.067 C 
BRANCH  22  23
HETATM   23  C12 UNL     1      15.413   3.978  51.961  1.00  0.00     0.020 A 
HETATM   24  C13 UNL     1      14.609   3.954  50.846  1.00  0.00     0.021 A 
HETATM   25  C14 UNL     1      13.258   4.124  51.091  1.00  0.00     0.004 A 
HETATM   26  C15 UNL     1      12.790   4.300  52.370  1.00  0.00     0.042 A 
HETATM   27  C16 UNL     1      13.638   4.315  53.441  1.00  0.00     0.117 A 
HETATM   28  F1  UNL     1      13.120   4.494  54.689  1.00  0.00    -0.206 F 
HETATM   29  C17 UNL     1      15.002   4.151  53.266  1.00  0.00     0.062 A 
ENDBRANCH  22  23
ENDBRANCH  20  21
ENDBRANCH   5  20
TORSDOF 7
ENDMDL
