MODEL 1
REMARK VINA RESULT:      -7.5      0.000      0.000
REMARK  5 active torsions:
REMARK  status: ('A' for Active; 'I' for Inactive)
REMARK    1  A    between atoms: C2_2  and  C3_3 
REMARK    2  A    between atoms: C3_3  and  C4_5 
REMARK    3  A    between atoms: C4_5  and  N1_6 
REMARK    4  A    between atoms: N1_6  and  C5_7 
REMARK    5  A    between atoms: C13_18  and  N5_19 
ROOT
HETATM    1  C5  UNL     1      24.650  -0.308  53.693  1.00  0.00     0.137 A 
HETATM    2  N2  UNL     1      23.620  -0.867  54.319  1.00  0.00    -0.224 NA
HETATM    3  C6  UNL     1      22.366  -0.424  54.148  1.00  0.00     0.235 A 
HETATM    4  N3  UNL     1      22.055   0.605  53.345  1.00  0.00    -0.243 NA
HETATM    5  C7  UNL     1      23.002   1.237  52.673  1.00  0.00     0.083 A 
HETATM    6  C8  UNL     1      24.303   0.743  52.877  1.00  0.00     0.038 A 
HETATM    7  C9  UNL     1      25.571   1.209  52.260  1.00  0.00     0.034 C 
HETATM    8  C10 UNL     1      25.941   2.414  51.771  1.00  0.00     0.084 C 
HETATM    9  N4  UNL     1      25.202   3.660  51.689  1.00  0.00    -0.399 N 
HETATM   10  C11 UNL     1      24.124   4.173  52.466  1.00  0.00     0.121 C 
HETATM   11  C12 UNL     1      22.765   3.707  52.291  1.00  0.00     0.062 C 
HETATM   12  C13 UNL     1      22.425   2.349  51.848  1.00  0.00     0.277 C 
HETATM   13  H11 UNL     1      25.639   4.193  50.872  1.00  0.00     0.158 HD
ENDROOT
BRANCH   1  14
HETATM   14  N1  UNL     1      25.987  -0.741  53.880  1.00  0.00    -0.371 N 
HETATM   15  H7  UNL     1      26.692  -1.383  53.503  1.00  0.00     0.161 HD
BRANCH  14  16
HETATM   16  C4  UNL     1      26.665  -0.069  54.964  1.00  0.00     0.162 C 
BRANCH  16  17
HETATM   17  C3  UNL     1      28.111   0.201  54.743  1.00  0.00     0.210 C 
HETATM   18  F1  UNL     1      28.226   1.533  54.317  1.00  0.00    -0.243 F 
BRANCH  17  19
HETATM   19  C2  UNL     1      28.703  -0.606  53.651  1.00  0.00     0.001 C 
HETATM   20  C1  UNL     1      29.973  -0.944  53.671  1.00  0.00     0.010 C 
ENDBRANCH  17  19
ENDBRANCH  16  17
ENDBRANCH  14  16
ENDBRANCH   1  14
BRANCH  12  21
HETATM   21  N5  UNL     1      22.673   2.047  50.457  1.00  0.00     0.099 N 
HETATM   22  C14 UNL     1      21.707   0.983  50.135  1.00  0.00     0.273 C 
HETATM   23  C15 UNL     1      21.296   1.027  48.684  1.00  0.00     0.030 C 
HETATM   24  C16 UNL     1      20.461   2.231  48.359  1.00  0.00     0.003 C 
HETATM   25  C17 UNL     1      20.929   3.356  49.291  1.00  0.00     0.030 C 
HETATM   26  C18 UNL     1      22.400   3.106  49.548  1.00  0.00     0.273 C 
ENDBRANCH  12  21
TORSDOF 5
ENDMDL
MODEL 2
REMARK VINA RESULT:      -7.0      1.804      3.672
REMARK  5 active torsions:
REMARK  status: ('A' for Active; 'I' for Inactive)
REMARK    1  A    between atoms: C2_2  and  C3_3 
REMARK    2  A    between atoms: C3_3  and  C4_5 
REMARK    3  A    between atoms: C4_5  and  N1_6 
REMARK    4  A    between atoms: N1_6  and  C5_7 
REMARK    5  A    between atoms: C13_18  and  N5_19 
ROOT
HETATM    1  C5  UNL     1      25.942   2.075  51.934  1.00  0.00     0.137 A 
HETATM    2  N2  UNL     1      26.841   2.584  51.097  1.00  0.00    -0.224 NA
HETATM    3  C6  UNL     1      26.478   3.241  49.988  1.00  0.00     0.235 A 
HETATM    4  N3  UNL     1      25.196   3.436  49.636  1.00  0.00    -0.243 NA
HETATM    5  C7  UNL     1      24.219   2.972  50.395  1.00  0.00     0.083 A 
HETATM    6  C8  UNL     1      24.639   2.289  51.550  1.00  0.00     0.038 A 
HETATM    7  C9  UNL     1      23.801   1.675  52.611  1.00  0.00     0.034 C 
HETATM    8  C10 UNL     1      22.547   1.172  52.585  1.00  0.00     0.084 C 
HETATM    9  N4  UNL     1      21.599   1.070  51.491  1.00  0.00    -0.399 N 
HETATM   10  C11 UNL     1      21.788   0.993  50.080  1.00  0.00     0.121 C 
HETATM   11  C12 UNL     1      22.117   2.159  49.288  1.00  0.00     0.062 C 
HETATM   12  C13 UNL     1      22.880   3.302  49.806  1.00  0.00     0.277 C 
HETATM   13  H11 UNL     1      20.636   1.056  51.953  1.00  0.00     0.158 HD
ENDROOT
BRANCH   1  14
HETATM   14  N1  UNL     1      26.303   1.351  53.098  1.00  0.00    -0.371 N 
HETATM   15  H7  UNL     1      26.012   1.174  54.066  1.00  0.00     0.161 HD
BRANCH  14  16
HETATM   16  C4  UNL     1      27.485   0.539  52.930  1.00  0.00     0.162 C 
BRANCH  16  17
HETATM   17  C3  UNL     1      28.632   0.892  53.810  1.00  0.00     0.210 C 
HETATM   18  F1  UNL     1      29.083   2.162  53.419  1.00  0.00    -0.243 F 
BRANCH  17  19
HETATM   19  C2  UNL     1      29.803  -0.001  53.643  1.00  0.00     0.001 C 
HETATM   20  C1  UNL     1      29.646  -1.288  53.424  1.00  0.00     0.010 C 
ENDBRANCH  17  19
ENDBRANCH  16  17
ENDBRANCH  14  16
ENDBRANCH   1  14
BRANCH  12  21
HETATM   21  N5  UNL     1      22.187   4.167  50.733  1.00  0.00     0.099 N 
HETATM   22  C14 UNL     1      22.906   5.450  50.644  1.00  0.00     0.273 C 
HETATM   23  C15 UNL     1      21.993   6.619  50.924  1.00  0.00     0.030 C 
HETATM   24  C16 UNL     1      20.975   6.825  49.840  1.00  0.00     0.003 C 
HETATM   25  C17 UNL     1      20.661   5.441  49.260  1.00  0.00     0.030 C 
HETATM   26  C18 UNL     1      20.835   4.457  50.398  1.00  0.00     0.273 C 
ENDBRANCH  12  21
TORSDOF 5
ENDMDL
MODEL 3
REMARK VINA RESULT:      -6.9      2.861      5.685
REMARK  5 active torsions:
REMARK  status: ('A' for Active; 'I' for Inactive)
REMARK    1  A    between atoms: C2_2  and  C3_3 
REMARK    2  A    between atoms: C3_3  and  C4_5 
REMARK    3  A    between atoms: C4_5  and  N1_6 
REMARK    4  A    between atoms: N1_6  and  C5_7 
REMARK    5  A    between atoms: C13_18  and  N5_19 
ROOT
HETATM    1  C5  UNL     1      24.015   4.807  50.048  1.00  0.00     0.137 A 
HETATM    2  N2  UNL     1      24.091   5.591  51.118  1.00  0.00    -0.224 NA
HETATM    3  C6  UNL     1      23.435   5.303  52.251  1.00  0.00     0.235 A 
HETATM    4  N3  UNL     1      22.659   4.217  52.394  1.00  0.00    -0.243 NA
HETATM    5  C7  UNL     1      22.511   3.367  51.392  1.00  0.00     0.083 A 
HETATM    6  C8  UNL     1      23.215   3.702  50.223  1.00  0.00     0.038 A 
HETATM    7  C9  UNL     1      23.279   2.953  48.942  1.00  0.00     0.034 C 
HETATM    8  C10 UNL     1      22.408   2.100  48.356  1.00  0.00     0.084 C 
HETATM    9  N4  UNL     1      21.108   1.634  48.802  1.00  0.00    -0.399 N 
HETATM   10  C11 UNL     1      20.139   2.220  49.666  1.00  0.00     0.121 C 
HETATM   11  C12 UNL     1      20.296   2.220  51.105  1.00  0.00     0.062 C 
HETATM   12  C13 UNL     1      21.601   2.238  51.777  1.00  0.00     0.277 C 
HETATM   13  H11 UNL     1      20.973   0.684  48.331  1.00  0.00     0.158 HD
ENDROOT
BRANCH   1  14
HETATM   14  N1  UNL     1      24.677   5.105  48.830  1.00  0.00    -0.371 N 
HETATM   15  H7  UNL     1      24.540   5.114  47.814  1.00  0.00     0.161 HD
BRANCH  14  16
HETATM   16  C4  UNL     1      26.026   5.590  49.010  1.00  0.00     0.162 C 
BRANCH  16  17
HETATM   17  C3  UNL     1      27.100   4.587  48.778  1.00  0.00     0.210 C 
HETATM   18  F1  UNL     1      27.260   3.864  49.970  1.00  0.00    -0.243 F 
BRANCH  17  19
HETATM   19  C2  UNL     1      28.427   5.192  48.513  1.00  0.00     0.001 C 
HETATM   20  C1  UNL     1      28.530   6.403  48.012  1.00  0.00     0.010 C 
ENDBRANCH  17  19
ENDBRANCH  16  17
ENDBRANCH  14  16
ENDBRANCH   1  14
BRANCH  12  21
HETATM   21  N5  UNL     1      22.366   1.013  51.726  1.00  0.00     0.099 N 
HETATM   22  C14 UNL     1      23.372   1.164  52.791  1.00  0.00     0.273 C 
HETATM   23  C15 UNL     1      23.763  -0.170  53.378  1.00  0.00     0.030 C 
HETATM   24  C16 UNL     1      22.652  -0.799  54.168  1.00  0.00     0.003 C 
HETATM   25  C17 UNL     1      21.339  -0.351  53.515  1.00  0.00     0.030 C 
HETATM   26  C18 UNL     1      21.641  -0.169  52.043  1.00  0.00     0.273 C 
ENDBRANCH  12  21
TORSDOF 5
ENDMDL
MODEL 4
REMARK VINA RESULT:      -6.7      9.283     11.590
REMARK  5 active torsions:
REMARK  status: ('A' for Active; 'I' for Inactive)
REMARK    1  A    between atoms: C2_2  and  C3_3 
REMARK    2  A    between atoms: C3_3  and  C4_5 
REMARK    3  A    between atoms: C4_5  and  N1_6 
REMARK    4  A    between atoms: N1_6  and  C5_7 
REMARK    5  A    between atoms: C13_18  and  N5_19 
ROOT
HETATM    1  C5  UNL     1      33.355   6.835  46.126  1.00  0.00     0.137 A 
HETATM    2  N2  UNL     1      33.321   7.415  44.931  1.00  0.00    -0.224 NA
HETATM    3  C6  UNL     1      32.314   8.221  44.567  1.00  0.00     0.235 A 
HETATM    4  N3  UNL     1      31.273   8.502  45.367  1.00  0.00    -0.243 NA
HETATM    5  C7  UNL     1      31.203   7.978  46.578  1.00  0.00     0.083 A 
HETATM    6  C8  UNL     1      32.277   7.140  46.924  1.00  0.00     0.038 A 
HETATM    7  C9  UNL     1      32.510   6.424  48.205  1.00  0.00     0.034 C 
HETATM    8  C10 UNL     1      31.654   5.971  49.148  1.00  0.00     0.084 C 
HETATM    9  N4  UNL     1      30.205   6.042  49.213  1.00  0.00    -0.399 N 
HETATM   10  C11 UNL     1      29.217   6.140  48.191  1.00  0.00     0.121 C 
HETATM   11  C12 UNL     1      28.946   7.385  47.505  1.00  0.00     0.062 C 
HETATM   12  C13 UNL     1      29.958   8.426  47.285  1.00  0.00     0.277 C 
HETATM   13  H11 UNL     1      29.968   6.002  50.254  1.00  0.00     0.158 HD
ENDROOT
BRANCH   1  14
HETATM   14  N1  UNL     1      34.394   5.956  46.523  1.00  0.00    -0.371 N 
HETATM   15  H7  UNL     1      35.168   5.864  47.190  1.00  0.00     0.161 HD
BRANCH  14  16
HETATM   16  C4  UNL     1      34.427   4.724  45.770  1.00  0.00     0.162 C 
BRANCH  16  17
HETATM   17  C3  UNL     1      34.757   3.505  46.556  1.00  0.00     0.210 C 
HETATM   18  F1  UNL     1      35.161   2.518  45.645  1.00  0.00    -0.243 F 
BRANCH  17  19
HETATM   19  C2  UNL     1      33.591   2.923  47.262  1.00  0.00     0.001 C 
HETATM   20  C1  UNL     1      32.428   2.801  46.662  1.00  0.00     0.010 C 
ENDBRANCH  17  19
ENDBRANCH  16  17
ENDBRANCH  14  16
ENDBRANCH   1  14
BRANCH  12  21
HETATM   21  N5  UNL     1      30.355   9.189  48.446  1.00  0.00     0.099 N 
HETATM   22  C14 UNL     1      30.968  10.408  47.890  1.00  0.00     0.273 C 
HETATM   23  C15 UNL     1      30.792  11.589  48.814  1.00  0.00     0.030 C 
HETATM   24  C16 UNL     1      29.363  12.042  48.901  1.00  0.00     0.003 C 
HETATM   25  C17 UNL     1      28.492  10.795  48.711  1.00  0.00     0.030 C 
HETATM   26  C18 UNL     1      29.287   9.636  49.274  1.00  0.00     0.273 C 
ENDBRANCH  12  21
TORSDOF 5
ENDMDL
MODEL 5
REMARK VINA RESULT:      -6.5      7.686     10.351
REMARK  5 active torsions:
REMARK  status: ('A' for Active; 'I' for Inactive)
REMARK    1  A    between atoms: C2_2  and  C3_3 
REMARK    2  A    between atoms: C3_3  and  C4_5 
REMARK    3  A    between atoms: C4_5  and  N1_6 
REMARK    4  A    between atoms: N1_6  and  C5_7 
REMARK    5  A    between atoms: C13_18  and  N5_19 
ROOT
HETATM    1  C5  UNL     1      27.304   7.323  48.837  1.00  0.00     0.137 A 
HETATM    2  N2  UNL     1      26.763   8.359  49.469  1.00  0.00    -0.224 NA
HETATM    3  C6  UNL     1      27.489   9.429  49.821  1.00  0.00     0.235 A 
HETATM    4  N3  UNL     1      28.803   9.539  49.569  1.00  0.00    -0.243 NA
HETATM    5  C7  UNL     1      29.446   8.567  48.945  1.00  0.00     0.083 A 
HETATM    6  C8  UNL     1      28.650   7.463  48.591  1.00  0.00     0.038 A 
HETATM    7  C9  UNL     1      29.057   6.231  47.869  1.00  0.00     0.034 C 
HETATM    8  C10 UNL     1      30.247   5.597  47.774  1.00  0.00     0.084 C 
HETATM    9  N4  UNL     1      31.534   5.924  48.360  1.00  0.00    -0.399 N 
HETATM   10  C11 UNL     1      31.880   6.655  49.534  1.00  0.00     0.121 C 
HETATM   11  C12 UNL     1      31.831   8.101  49.577  1.00  0.00     0.062 C 
HETATM   12  C13 UNL     1      30.897   8.905  48.777  1.00  0.00     0.277 C 
HETATM   13  H11 UNL     1      32.259   5.485  47.711  1.00  0.00     0.158 HD
ENDROOT
BRANCH   1  14
HETATM   14  N1  UNL     1      26.562   6.169  48.481  1.00  0.00    -0.371 N 
HETATM   15  H7  UNL     1      26.345   5.558  47.686  1.00  0.00     0.161 HD
BRANCH  14  16
HETATM   16  C4  UNL     1      25.839   5.584  49.585  1.00  0.00     0.162 C 
BRANCH  16  17
HETATM   17  C3  UNL     1      26.177   4.168  49.891  1.00  0.00     0.210 C 
HETATM   18  F1  UNL     1      27.097   3.741  48.921  1.00  0.00    -0.243 F 
BRANCH  17  19
HETATM   19  C2  UNL     1      25.025   3.244  49.763  1.00  0.00     0.001 C 
HETATM   20  C1  UNL     1      23.898   3.640  49.215  1.00  0.00     0.010 C 
ENDBRANCH  17  19
ENDBRANCH  16  17
ENDBRANCH  14  16
ENDBRANCH   1  14
BRANCH  12  21
HETATM   21  N5  UNL     1      31.174   8.988  47.361  1.00  0.00     0.099 N 
HETATM   22  C14 UNL     1      30.444  10.188  46.916  1.00  0.00     0.273 C 
HETATM   23  C15 UNL     1      31.127  10.850  45.744  1.00  0.00     0.030 C 
HETATM   24  C16 UNL     1      32.437  11.478  46.122  1.00  0.00     0.003 C 
HETATM   25  C17 UNL     1      33.021  10.631  47.258  1.00  0.00     0.030 C 
HETATM   26  C18 UNL     1      32.537   9.216  47.022  1.00  0.00     0.273 C 
ENDBRANCH  12  21
TORSDOF 5
ENDMDL
MODEL 6
REMARK VINA RESULT:      -6.5      2.712      5.101
REMARK  5 active torsions:
REMARK  status: ('A' for Active; 'I' for Inactive)
REMARK    1  A    between atoms: C2_2  and  C3_3 
REMARK    2  A    between atoms: C3_3  and  C4_5 
REMARK    3  A    between atoms: C4_5  and  N1_6 
REMARK    4  A    between atoms: N1_6  and  C5_7 
REMARK    5  A    between atoms: C13_18  and  N5_19 
ROOT
HETATM    1  C5  UNL     1      24.664   1.880  52.371  1.00  0.00     0.137 A 
HETATM    2  N2  UNL     1      25.954   1.816  52.060  1.00  0.00    -0.224 NA
HETATM    3  C6  UNL     1      26.466   2.503  51.030  1.00  0.00     0.235 A 
HETATM    4  N3  UNL     1      25.728   3.299  50.239  1.00  0.00    -0.243 NA
HETATM    5  C7  UNL     1      24.431   3.437  50.457  1.00  0.00     0.083 A 
HETATM    6  C8  UNL     1      23.932   2.702  51.546  1.00  0.00     0.038 A 
HETATM    7  C9  UNL     1      22.541   2.657  52.065  1.00  0.00     0.034 C 
HETATM    8  C10 UNL     1      21.350   2.856  51.458  1.00  0.00     0.084 C 
HETATM    9  N4  UNL     1      21.043   3.186  50.078  1.00  0.00    -0.399 N 
HETATM   10  C11 UNL     1      21.756   2.945  48.868  1.00  0.00     0.121 C 
HETATM   11  C12 UNL     1      22.905   3.737  48.485  1.00  0.00     0.062 C 
HETATM   12  C13 UNL     1      23.815   4.365  49.452  1.00  0.00     0.277 C 
HETATM   13  H11 UNL     1      20.101   3.687  50.111  1.00  0.00     0.158 HD
ENDROOT
BRANCH   1  14
HETATM   14  N1  UNL     1      24.095   1.140  53.438  1.00  0.00    -0.371 N 
HETATM   15  H7  UNL     1      23.647   1.252  54.354  1.00  0.00     0.161 HD
BRANCH  14  16
HETATM   16  C4  UNL     1      24.101  -0.287  53.219  1.00  0.00     0.162 C 
BRANCH  16  17
HETATM   17  C3  UNL     1      22.777  -0.956  53.328  1.00  0.00     0.210 C 
HETATM   18  F1  UNL     1      22.028  -0.585  52.200  1.00  0.00    -0.243 F 
BRANCH  17  19
HETATM   19  C2  UNL     1      21.977  -0.498  54.489  1.00  0.00     0.001 C 
HETATM   20  C1  UNL     1      20.832   0.125  54.318  1.00  0.00     0.010 C 
ENDBRANCH  17  19
ENDBRANCH  16  17
ENDBRANCH  14  16
ENDBRANCH   1  14
BRANCH  12  21
HETATM   21  N5  UNL     1      23.301   5.512  50.164  1.00  0.00     0.099 N 
HETATM   22  C14 UNL     1      24.504   6.236  50.610  1.00  0.00     0.273 C 
HETATM   23  C15 UNL     1      24.254   7.721  50.710  1.00  0.00     0.030 C 
HETATM   24  C16 UNL     1      24.059   8.362  49.366  1.00  0.00     0.003 C 
HETATM   25  C17 UNL     1      23.408   7.307  48.464  1.00  0.00     0.030 C 
HETATM   26  C18 UNL     1      22.564   6.438  49.373  1.00  0.00     0.273 C 
ENDBRANCH  12  21
TORSDOF 5
ENDMDL
MODEL 7
REMARK VINA RESULT:      -6.5      2.323      2.753
REMARK  5 active torsions:
REMARK  status: ('A' for Active; 'I' for Inactive)
REMARK    1  A    between atoms: C2_2  and  C3_3 
REMARK    2  A    between atoms: C3_3  and  C4_5 
REMARK    3  A    between atoms: C4_5  and  N1_6 
REMARK    4  A    between atoms: N1_6  and  C5_7 
REMARK    5  A    between atoms: C13_18  and  N5_19 
ROOT
HETATM    1  C5  UNL     1      23.050   0.043  53.274  1.00  0.00     0.137 A 
HETATM    2  N2  UNL     1      22.486  -0.444  54.374  1.00  0.00    -0.224 NA
HETATM    3  C6  UNL     1      21.227  -0.140  54.715  1.00  0.00     0.235 A 
HETATM    4  N3  UNL     1      20.444   0.670  53.985  1.00  0.00    -0.243 NA
HETATM    5  C7  UNL     1      20.902   1.213  52.870  1.00  0.00     0.083 A 
HETATM    6  C8  UNL     1      22.226   0.869  52.545  1.00  0.00     0.038 A 
HETATM    7  C9  UNL     1      23.020   1.286  51.361  1.00  0.00     0.034 C 
HETATM    8  C10 UNL     1      22.950   2.384  50.575  1.00  0.00     0.084 C 
HETATM    9  N4  UNL     1      22.059   3.527  50.637  1.00  0.00    -0.399 N 
HETATM   10  C11 UNL     1      21.346   4.113  51.723  1.00  0.00     0.121 C 
HETATM   11  C12 UNL     1      20.135   3.522  52.251  1.00  0.00     0.062 C 
HETATM   12  C13 UNL     1      19.860   2.080  52.228  1.00  0.00     0.277 C 
HETATM   13  H11 UNL     1      22.016   3.905  49.639  1.00  0.00     0.158 HD
ENDROOT
BRANCH   1  14
HETATM   14  N1  UNL     1      24.390  -0.241  52.908  1.00  0.00    -0.371 N 
HETATM   15  H7  UNL     1      24.953  -0.702  52.185  1.00  0.00     0.161 HD
BRANCH  14  16
HETATM   16  C4  UNL     1      25.365   0.290  53.831  1.00  0.00     0.162 C 
BRANCH  16  17
HETATM   17  C3  UNL     1      26.679  -0.408  53.843  1.00  0.00     0.210 C 
HETATM   18  F1  UNL     1      27.670   0.571  54.012  1.00  0.00    -0.243 F 
BRANCH  17  19
HETATM   19  C2  UNL     1      27.008  -1.072  52.560  1.00  0.00     0.001 C 
HETATM   20  C1  UNL     1      27.225  -2.368  52.505  1.00  0.00     0.010 C 
ENDBRANCH  17  19
ENDBRANCH  16  17
ENDBRANCH  14  16
ENDBRANCH   1  14
BRANCH  12  21
HETATM   21  N5  UNL     1      19.539   1.509  50.940  1.00  0.00     0.099 N 
HETATM   22  C14 UNL     1      18.767   0.296  51.259  1.00  0.00     0.273 C 
HETATM   23  C15 UNL     1      17.770  -0.030  50.174  1.00  0.00     0.030 C 
HETATM   24  C16 UNL     1      16.650   0.969  50.105  1.00  0.00     0.003 C 
HETATM   25  C17 UNL     1      17.235   2.317  50.541  1.00  0.00     0.030 C 
HETATM   26  C18 UNL     1      18.689   2.303  50.119  1.00  0.00     0.273 C 
ENDBRANCH  12  21
TORSDOF 5
ENDMDL
MODEL 8
REMARK VINA RESULT:      -6.4      2.120      3.981
REMARK  5 active torsions:
REMARK  status: ('A' for Active; 'I' for Inactive)
REMARK    1  A    between atoms: C2_2  and  C3_3 
REMARK    2  A    between atoms: C3_3  and  C4_5 
REMARK    3  A    between atoms: C4_5  and  N1_6 
REMARK    4  A    between atoms: N1_6  and  C5_7 
REMARK    5  A    between atoms: C13_18  and  N5_19 
ROOT
HETATM    1  C5  UNL     1      25.470   2.812  52.057  1.00  0.00     0.137 A 
HETATM    2  N2  UNL     1      26.564   2.946  51.315  1.00  0.00    -0.224 NA
HETATM    3  C6  UNL     1      26.499   3.132  49.990  1.00  0.00     0.235 A 
HETATM    4  N3  UNL     1      25.341   3.196  49.314  1.00  0.00    -0.243 NA
HETATM    5  C7  UNL     1      24.189   3.074  49.951  1.00  0.00     0.083 A 
HETATM    6  C8  UNL     1      24.299   2.882  51.339  1.00  0.00     0.038 A 
HETATM    7  C9  UNL     1      23.207   2.734  52.336  1.00  0.00     0.034 C 
HETATM    8  C10 UNL     1      21.940   2.279  52.218  1.00  0.00     0.084 C 
HETATM    9  N4  UNL     1      21.226   1.779  51.058  1.00  0.00    -0.399 N 
HETATM   10  C11 UNL     1      21.686   1.164  49.858  1.00  0.00     0.121 C 
HETATM   11  C12 UNL     1      22.283   1.931  48.784  1.00  0.00     0.062 C 
HETATM   12  C13 UNL     1      23.036   3.173  48.998  1.00  0.00     0.277 C 
HETATM   13  H11 UNL     1      20.193   1.958  51.263  1.00  0.00     0.158 HD
ENDROOT
BRANCH   1  14
HETATM   14  N1  UNL     1      25.515   2.585  53.456  1.00  0.00    -0.371 N 
HETATM   15  H7  UNL     1      25.098   2.893  54.341  1.00  0.00     0.161 HD
BRANCH  14  16
HETATM   16  C4  UNL     1      26.450   1.555  53.844  1.00  0.00     0.162 C 
BRANCH  16  17
HETATM   17  C3  UNL     1      25.841   0.262  54.255  1.00  0.00     0.210 C 
HETATM   18  F1  UNL     1      26.515  -0.168  55.409  1.00  0.00    -0.243 F 
BRANCH  17  19
HETATM   19  C2  UNL     1      26.038  -0.825  53.267  1.00  0.00     0.001 C 
HETATM   20  C1  UNL     1      26.760  -0.634  52.186  1.00  0.00     0.010 C 
ENDBRANCH  17  19
ENDBRANCH  16  17
ENDBRANCH  14  16
ENDBRANCH   1  14
BRANCH  12  21
HETATM   21  N5  UNL     1      22.260   4.339  49.357  1.00  0.00     0.099 N 
HETATM   22  C14 UNL     1      23.145   5.476  49.050  1.00  0.00     0.273 C 
HETATM   23  C15 UNL     1      22.358   6.704  48.664  1.00  0.00     0.030 C 
HETATM   24  C16 UNL     1      21.672   6.553  47.337  1.00  0.00     0.003 C 
HETATM   25  C17 UNL     1      21.327   5.068  47.185  1.00  0.00     0.030 C 
HETATM   26  C18 UNL     1      21.083   4.546  48.585  1.00  0.00     0.273 C 
ENDBRANCH  12  21
TORSDOF 5
ENDMDL
MODEL 9
REMARK VINA RESULT:      -6.4      3.740      7.338
REMARK  5 active torsions:
REMARK  status: ('A' for Active; 'I' for Inactive)
REMARK    1  A    between atoms: C2_2  and  C3_3 
REMARK    2  A    between atoms: C3_3  and  C4_5 
REMARK    3  A    between atoms: C4_5  and  N1_6 
REMARK    4  A    between atoms: N1_6  and  C5_7 
REMARK    5  A    between atoms: C13_18  and  N5_19 
ROOT
HETATM    1  C5  UNL     1      20.242   2.959  51.027  1.00  0.00     0.137 A 
HETATM    2  N2  UNL     1      19.900   1.979  50.197  1.00  0.00    -0.224 NA
HETATM    3  C6  UNL     1      20.811   1.145  49.677  1.00  0.00     0.235 A 
HETATM    4  N3  UNL     1      22.123   1.231  49.947  1.00  0.00    -0.243 NA
HETATM    5  C7  UNL     1      22.576   2.169  50.760  1.00  0.00     0.083 A 
HETATM    6  C8  UNL     1      21.591   3.023  51.287  1.00  0.00     0.038 A 
HETATM    7  C9  UNL     1      21.764   4.151  52.238  1.00  0.00     0.034 C 
HETATM    8  C10 UNL     1      22.817   4.962  52.486  1.00  0.00     0.084 C 
HETATM    9  N4  UNL     1      24.141   4.990  51.892  1.00  0.00    -0.399 N 
HETATM   10  C11 UNL     1      24.613   4.568  50.615  1.00  0.00     0.121 C 
HETATM   11  C12 UNL     1      24.832   3.172  50.304  1.00  0.00     0.062 C 
HETATM   12  C13 UNL     1      24.066   2.076  50.910  1.00  0.00     0.277 C 
HETATM   13  H11 UNL     1      24.773   5.424  52.635  1.00  0.00     0.158 HD
ENDROOT
BRANCH   1  14
HETATM   14  N1  UNL     1      19.300   3.870  51.567  1.00  0.00    -0.371 N 
HETATM   15  H7  UNL     1      19.193   4.597  52.283  1.00  0.00     0.161 HD
BRANCH  14  16
HETATM   16  C4  UNL     1      18.012   3.824  50.914  1.00  0.00     0.162 C 
BRANCH  16  17
HETATM   17  C3  UNL     1      16.900   3.274  51.735  1.00  0.00     0.210 C 
HETATM   18  F1  UNL     1      16.101   2.494  50.885  1.00  0.00    -0.243 F 
BRANCH  17  19
HETATM   19  C2  UNL     1      15.991   4.314  52.272  1.00  0.00     0.001 C 
HETATM   20  C1  UNL     1      14.993   3.995  53.066  1.00  0.00     0.010 C 
ENDBRANCH  17  19
ENDBRANCH  16  17
ENDBRANCH  14  16
ENDBRANCH   1  14
BRANCH  12  21
HETATM   21  N5  UNL     1      24.356   1.779  52.294  1.00  0.00     0.099 N 
HETATM   22  C14 UNL     1      23.738   0.463  52.524  1.00  0.00     0.273 C 
HETATM   23  C15 UNL     1      24.483  -0.325  53.574  1.00  0.00     0.030 C 
HETATM   24  C16 UNL     1      25.842  -0.763  53.108  1.00  0.00     0.003 C 
HETATM   25  C17 UNL     1      26.342   0.312  52.136  1.00  0.00     0.030 C 
HETATM   26  C18 UNL     1      25.736   1.619  52.604  1.00  0.00     0.273 C 
ENDBRANCH  12  21
TORSDOF 5
ENDMDL
