MODEL 1
REMARK VINA RESULT:      -7.3      0.000      0.000
REMARK  6 active torsions:
REMARK  status: ('A' for Active; 'I' for Inactive)
REMARK    1  A    between atoms: O1_2  and  C2_3 
REMARK    2  A    between atoms: C6_9  and  N3_10 
REMARK    3  A    between atoms: N3_10  and  C7_11 
REMARK    4  A    between atoms: C7_11  and  C8_12 
REMARK    5  A    between atoms: C8_12  and  C9_13 
REMARK    6  A    between atoms: C16_21  and  O2_22 
ROOT
HETATM    1  C2  UNL     1      27.599   0.281  53.897  1.00  0.00     0.103 A 
HETATM    2  C3  UNL     1      27.846   1.097  52.813  1.00  0.00     0.072 A 
HETATM    3  C4  UNL     1      26.868   1.856  52.225  1.00  0.00     0.075 A 
HETATM    4  N1  UNL     1      27.089   2.663  51.165  1.00  0.00    -0.241 NA
HETATM    5  C5  UNL     1      26.054   3.385  50.644  1.00  0.00     0.235 A 
HETATM    6  N2  UNL     1      24.801   3.350  51.121  1.00  0.00    -0.224 NA
HETATM    7  C6  UNL     1      24.538   2.562  52.173  1.00  0.00     0.137 A 
HETATM    8  C14 UNL     1      25.577   1.830  52.705  1.00  0.00     0.041 A 
HETATM    9  C15 UNL     1      25.344   1.015  53.784  1.00  0.00     0.057 A 
HETATM   10  C16 UNL     1      26.312   0.242  54.393  1.00  0.00     0.102 A 
ENDROOT
BRANCH   7  11
HETATM   11  N3  UNL     1      23.195   2.512  52.675  1.00  0.00    -0.374 N 
HETATM   12  H6  UNL     1      22.920   2.674  53.665  1.00  0.00     0.161 HD
BRANCH  11  13
HETATM   13  C7  UNL     1      22.067   2.214  51.773  1.00  0.00     0.122 C 
BRANCH  13  14
HETATM   14  C8  UNL     1      21.754   0.778  51.718  1.00  0.00     0.037 C 
BRANCH  14  15
HETATM   15  C9  UNL     1      20.743   0.178  52.703  1.00  0.00     0.001 A 
HETATM   16  C10 UNL     1      21.440  -0.156  54.475  1.00  0.00     0.054 A 
HETATM   17  C11 UNL     1      20.742  -0.213  53.981  1.00  0.00    -0.061 A 
HETATM   18  P1  UNL     1      19.995  -0.264  53.428  1.00  0.00    -0.119 P 
HETATM   19  C12 UNL     1      18.124  -0.372  51.967  1.00  0.00     0.031 A 
HETATM   20  H12 UNL     1      19.646  -0.292  53.180  1.00  0.00     0.055 HD
HETATM   21  C13 UNL     1      19.434   0.228  51.258  1.00  0.00     0.022 A 
ENDBRANCH  14  15
ENDBRANCH  13  14
ENDBRANCH  11  13
ENDBRANCH   7  11
BRANCH  10  22
HETATM   22  O2  UNL     1      26.061  -0.575  55.479  1.00  0.00    -0.353 OA
HETATM   23  C17 UNL     1      24.794  -1.172  55.598  1.00  0.00     0.210 C 
ENDBRANCH  10  22
BRANCH   1  24
HETATM   24  O1  UNL     1      28.581  -0.487  54.495  1.00  0.00    -0.353 OA
HETATM   25  C1  UNL     1      29.735  -0.925  53.837  1.00  0.00     0.210 C 
ENDBRANCH   1  24
TORSDOF 6
ENDMDL
MODEL 2
REMARK VINA RESULT:      -7.1      2.587      4.142
REMARK  6 active torsions:
REMARK  status: ('A' for Active; 'I' for Inactive)
REMARK    1  A    between atoms: O1_2  and  C2_3 
REMARK    2  A    between atoms: C6_9  and  N3_10 
REMARK    3  A    between atoms: N3_10  and  C7_11 
REMARK    4  A    between atoms: C7_11  and  C8_12 
REMARK    5  A    between atoms: C8_12  and  C9_13 
REMARK    6  A    between atoms: C16_21  and  O2_22 
ROOT
HETATM    1  C2  UNL     1      27.061   0.560  53.328  1.00  0.00     0.103 A 
HETATM    2  C3  UNL     1      26.587  -0.104  54.441  1.00  0.00     0.072 A 
HETATM    3  C4  UNL     1      25.283  -0.512  54.555  1.00  0.00     0.075 A 
HETATM    4  N1  UNL     1      24.800  -1.164  55.633  1.00  0.00    -0.241 NA
HETATM    5  C5  UNL     1      23.487  -1.535  55.659  1.00  0.00     0.235 A 
HETATM    6  N2  UNL     1      22.619  -1.292  54.666  1.00  0.00    -0.224 NA
HETATM    7  C6  UNL     1      23.058  -0.647  53.577  1.00  0.00     0.137 A 
HETATM    8  C14 UNL     1      24.382  -0.269  53.541  1.00  0.00     0.041 A 
HETATM    9  C15 UNL     1      24.865   0.392  52.440  1.00  0.00     0.057 A 
HETATM   10  C16 UNL     1      26.173   0.812  52.303  1.00  0.00     0.102 A 
ENDROOT
BRANCH   7  11
HETATM   11  N3  UNL     1      22.127  -0.372  52.520  1.00  0.00    -0.374 N 
HETATM   12  H6  UNL     1      22.188  -0.756  51.555  1.00  0.00     0.161 HD
BRANCH  11  13
HETATM   13  C7  UNL     1      20.970   0.513  52.748  1.00  0.00     0.122 C 
BRANCH  13  14
HETATM   14  C8  UNL     1      20.614   1.294  51.554  1.00  0.00     0.037 C 
BRANCH  14  15
HETATM   15  C9  UNL     1      21.692   2.095  50.815  1.00  0.00     0.001 A 
HETATM   16  C10 UNL     1      22.660   3.355  51.916  1.00  0.00     0.054 A 
HETATM   17  C11 UNL     1      22.585   3.040  51.122  1.00  0.00    -0.061 A 
HETATM   18  P1  UNL     1      22.488   2.684  50.267  1.00  0.00    -0.119 P 
HETATM   19  C12 UNL     1      22.191   1.737  48.108  1.00  0.00     0.031 A 
HETATM   20  H12 UNL     1      22.449   2.526  49.871  1.00  0.00     0.055 HD
HETATM   21  C13 UNL     1      21.187   1.123  49.202  1.00  0.00     0.022 A 
ENDBRANCH  14  15
ENDBRANCH  13  14
ENDBRANCH  11  13
ENDBRANCH   7  11
BRANCH  10  22
HETATM   22  O2  UNL     1      26.645   1.477  51.186  1.00  0.00    -0.353 OA
HETATM   23  C17 UNL     1      26.386   2.853  51.060  1.00  0.00     0.210 C 
ENDBRANCH  10  22
BRANCH   1  24
HETATM   24  O1  UNL     1      28.375   0.975  53.207  1.00  0.00    -0.353 OA
HETATM   25  C1  UNL     1      28.885   2.129  53.811  1.00  0.00     0.210 C 
ENDBRANCH   1  24
TORSDOF 6
ENDMDL
MODEL 3
REMARK VINA RESULT:      -7.1      3.779      7.718
REMARK  6 active torsions:
REMARK  status: ('A' for Active; 'I' for Inactive)
REMARK    1  A    between atoms: O1_2  and  C2_3 
REMARK    2  A    between atoms: C6_9  and  N3_10 
REMARK    3  A    between atoms: N3_10  and  C7_11 
REMARK    4  A    between atoms: C7_11  and  C8_12 
REMARK    5  A    between atoms: C8_12  and  C9_13 
REMARK    6  A    between atoms: C16_21  and  O2_22 
ROOT
HETATM    1  C2  UNL     1      19.667   0.408  52.021  1.00  0.00     0.103 A 
HETATM    2  C3  UNL     1      19.798  -0.267  53.217  1.00  0.00     0.072 A 
HETATM    3  C4  UNL     1      21.020  -0.591  53.749  1.00  0.00     0.075 A 
HETATM    4  N1  UNL     1      21.171  -1.248  54.918  1.00  0.00    -0.241 NA
HETATM    5  C5  UNL     1      22.426  -1.527  55.374  1.00  0.00     0.235 A 
HETATM    6  N2  UNL     1      23.552  -1.186  54.728  1.00  0.00    -0.224 NA
HETATM    7  C6  UNL     1      23.446  -0.531  53.563  1.00  0.00     0.137 A 
HETATM    8  C14 UNL     1      22.182  -0.246  53.096  1.00  0.00     0.041 A 
HETATM    9  C15 UNL     1      22.039   0.426  51.908  1.00  0.00     0.057 A 
HETATM   10  C16 UNL     1      20.821   0.762  51.352  1.00  0.00     0.102 A 
ENDROOT
BRANCH   7  11
HETATM   11  N3  UNL     1      24.649  -0.180  52.863  1.00  0.00    -0.374 N 
HETATM   12  H6  UNL     1      24.735   0.599  52.177  1.00  0.00     0.161 HD
BRANCH  11  13
HETATM   13  C7  UNL     1      25.895  -0.935  53.083  1.00  0.00     0.122 C 
BRANCH  13  14
HETATM   14  C8  UNL     1      27.038  -0.360  52.358  1.00  0.00     0.037 C 
BRANCH  14  15
HETATM   15  C9  UNL     1      28.351  -0.078  53.099  1.00  0.00     0.001 A 
HETATM   16  C10 UNL     1      29.435  -1.641  53.444  1.00  0.00     0.054 A 
HETATM   17  C11 UNL     1      29.389  -0.791  53.546  1.00  0.00    -0.061 A 
HETATM   18  P1  UNL     1      29.319   0.132  53.645  1.00  0.00    -0.119 P 
HETATM   19  C12 UNL     1      29.082   2.486  53.869  1.00  0.00     0.031 A 
HETATM   20  H12 UNL     1      29.294   0.557  53.696  1.00  0.00     0.055 HD
HETATM   21  C13 UNL     1      27.841   1.804  53.111  1.00  0.00     0.022 A 
ENDBRANCH  14  15
ENDBRANCH  13  14
ENDBRANCH  11  13
ENDBRANCH   7  11
BRANCH  10  22
HETATM   22  O2  UNL     1      20.692   1.438  50.153  1.00  0.00    -0.353 OA
HETATM   23  C17 UNL     1      21.553   1.105  49.094  1.00  0.00     0.210 C 
ENDBRANCH  10  22
BRANCH   1  24
HETATM   24  O1  UNL     1      18.438   0.737  51.478  1.00  0.00    -0.353 OA
HETATM   25  C1  UNL     1      17.523  -0.206  50.996  1.00  0.00     0.210 C 
ENDBRANCH   1  24
TORSDOF 6
ENDMDL
MODEL 4
REMARK VINA RESULT:      -7.1      2.652      4.996
REMARK  6 active torsions:
REMARK  status: ('A' for Active; 'I' for Inactive)
REMARK    1  A    between atoms: O1_2  and  C2_3 
REMARK    2  A    between atoms: C6_9  and  N3_10 
REMARK    3  A    between atoms: N3_10  and  C7_11 
REMARK    4  A    between atoms: C7_11  and  C8_12 
REMARK    5  A    between atoms: C8_12  and  C9_13 
REMARK    6  A    between atoms: C16_21  and  O2_22 
ROOT
HETATM    1  C2  UNL     1      26.631   0.170  54.179  1.00  0.00     0.103 A 
HETATM    2  C3  UNL     1      25.501  -0.554  53.860  1.00  0.00     0.072 A 
HETATM    3  C4  UNL     1      24.364   0.034  53.368  1.00  0.00     0.075 A 
HETATM    4  N1  UNL     1      23.249  -0.656  53.048  1.00  0.00    -0.241 NA
HETATM    5  C5  UNL     1      22.164   0.012  52.561  1.00  0.00     0.235 A 
HETATM    6  N2  UNL     1      22.122   1.340  52.372  1.00  0.00    -0.224 NA
HETATM    7  C6  UNL     1      23.209   2.063  52.678  1.00  0.00     0.137 A 
HETATM    8  C14 UNL     1      24.310   1.396  53.169  1.00  0.00     0.041 A 
HETATM    9  C15 UNL     1      25.440   2.105  53.489  1.00  0.00     0.057 A 
HETATM   10  C16 UNL     1      26.595   1.537  53.986  1.00  0.00     0.102 A 
ENDROOT
BRANCH   7  11
HETATM   11  N3  UNL     1      23.161   3.485  52.492  1.00  0.00    -0.374 N 
HETATM   12  H6  UNL     1      23.725   4.177  53.027  1.00  0.00     0.161 HD
BRANCH  11  13
HETATM   13  C7  UNL     1      22.269   4.082  51.482  1.00  0.00     0.122 C 
BRANCH  13  14
HETATM   14  C8  UNL     1      22.942   4.297  50.192  1.00  0.00     0.037 C 
BRANCH  14  15
HETATM   15  C9  UNL     1      24.248   5.099  50.136  1.00  0.00     0.001 A 
HETATM   16  C10 UNL     1      24.073   6.963  50.617  1.00  0.00     0.054 A 
HETATM   17  C11 UNL     1      24.628   6.360  50.366  1.00  0.00    -0.061 A 
HETATM   18  P1  UNL     1      25.213   5.689  50.095  1.00  0.00    -0.119 P 
HETATM   19  C12 UNL     1      26.658   3.935  49.400  1.00  0.00     0.031 A 
HETATM   20  H12 UNL     1      25.489   5.386  49.969  1.00  0.00     0.055 HD
HETATM   21  C13 UNL     1      25.134   3.456  49.570  1.00  0.00     0.022 A 
ENDBRANCH  14  15
ENDBRANCH  13  14
ENDBRANCH  11  13
ENDBRANCH   7  11
BRANCH  10  22
HETATM   22  O2  UNL     1      27.726   2.265  54.305  1.00  0.00    -0.353 OA
HETATM   23  C17 UNL     1      28.635   2.583  53.282  1.00  0.00     0.210 C 
ENDBRANCH  10  22
BRANCH   1  24
HETATM   24  O1  UNL     1      27.780  -0.416  54.676  1.00  0.00    -0.353 OA
HETATM   25  C1  UNL     1      28.789  -0.957  53.871  1.00  0.00     0.210 C 
ENDBRANCH   1  24
TORSDOF 6
ENDMDL
MODEL 5
REMARK VINA RESULT:      -7.0      2.822      5.354
REMARK  6 active torsions:
REMARK  status: ('A' for Active; 'I' for Inactive)
REMARK    1  A    between atoms: O1_2  and  C2_3 
REMARK    2  A    between atoms: C6_9  and  N3_10 
REMARK    3  A    between atoms: N3_10  and  C7_11 
REMARK    4  A    between atoms: C7_11  and  C8_12 
REMARK    5  A    between atoms: C8_12  and  C9_13 
REMARK    6  A    between atoms: C16_21  and  O2_22 
ROOT
HETATM    1  C2  UNL     1      23.741  -0.315  53.243  1.00  0.00     0.103 A 
HETATM    2  C3  UNL     1      25.016  -0.532  53.721  1.00  0.00     0.072 A 
HETATM    3  C4  UNL     1      26.072   0.281  53.398  1.00  0.00     0.075 A 
HETATM    4  N1  UNL     1      27.327   0.089  53.857  1.00  0.00    -0.241 NA
HETATM    5  C5  UNL     1      28.317   0.951  53.485  1.00  0.00     0.235 A 
HETATM    6  N2  UNL     1      28.129   2.004  52.675  1.00  0.00    -0.224 NA
HETATM    7  C6  UNL     1      26.897   2.231  52.197  1.00  0.00     0.137 A 
HETATM    8  C14 UNL     1      25.892   1.366  52.568  1.00  0.00     0.041 A 
HETATM    9  C15 UNL     1      24.619   1.571  52.099  1.00  0.00     0.057 A 
HETATM   10  C16 UNL     1      23.541   0.767  52.410  1.00  0.00     0.102 A 
ENDROOT
BRANCH   7  11
HETATM   11  N3  UNL     1      26.698   3.348  51.317  1.00  0.00    -0.374 N 
HETATM   12  H6  UNL     1      26.593   4.337  51.622  1.00  0.00     0.161 HD
BRANCH  11  13
HETATM   13  C7  UNL     1      26.627   3.151  49.858  1.00  0.00     0.122 C 
BRANCH  13  14
HETATM   14  C8  UNL     1      25.880   4.223  49.181  1.00  0.00     0.037 C 
BRANCH  14  15
HETATM   15  C9  UNL     1      24.400   4.450  49.513  1.00  0.00     0.001 A 
HETATM   16  C10 UNL     1      23.225   3.004  48.999  1.00  0.00     0.054 A 
HETATM   17  C11 UNL     1      23.255   3.779  49.365  1.00  0.00    -0.061 A 
HETATM   18  P1  UNL     1      23.309   4.620  49.760  1.00  0.00    -0.119 P 
HETATM   19  C12 UNL     1      23.514   6.767  50.758  1.00  0.00     0.031 A 
HETATM   20  H12 UNL     1      23.326   5.007  49.943  1.00  0.00     0.055 HD
HETATM   21  C13 UNL     1      24.921   6.176  50.258  1.00  0.00     0.022 A 
ENDBRANCH  14  15
ENDBRANCH  13  14
ENDBRANCH  11  13
ENDBRANCH   7  11
BRANCH  10  22
HETATM   22  O2  UNL     1      22.264   0.986  51.929  1.00  0.00    -0.353 OA
HETATM   23  C17 UNL     1      21.541   2.091  52.410  1.00  0.00     0.210 C 
ENDBRANCH  10  22
BRANCH   1  24
HETATM   24  O1  UNL     1      22.672  -1.132  53.565  1.00  0.00    -0.353 OA
HETATM   25  C1  UNL     1      22.026  -1.115  54.806  1.00  0.00     0.210 C 
ENDBRANCH   1  24
TORSDOF 6
ENDMDL
MODEL 6
REMARK VINA RESULT:      -6.9      1.213      1.789
REMARK  6 active torsions:
REMARK  status: ('A' for Active; 'I' for Inactive)
REMARK    1  A    between atoms: O1_2  and  C2_3 
REMARK    2  A    between atoms: C6_9  and  N3_10 
REMARK    3  A    between atoms: N3_10  and  C7_11 
REMARK    4  A    between atoms: C7_11  and  C8_12 
REMARK    5  A    between atoms: C8_12  and  C9_13 
REMARK    6  A    between atoms: C16_21  and  O2_22 
ROOT
HETATM    1  C2  UNL     1      27.097  -0.163  53.198  1.00  0.00     0.103 A 
HETATM    2  C3  UNL     1      27.364   0.618  52.093  1.00  0.00     0.072 A 
HETATM    3  C4  UNL     1      26.554   1.658  51.713  1.00  0.00     0.075 A 
HETATM    4  N1  UNL     1      26.798   2.436  50.638  1.00  0.00    -0.241 NA
HETATM    5  C5  UNL     1      25.938   3.451  50.336  1.00  0.00     0.235 A 
HETATM    6  N2  UNL     1      24.839   3.740  51.048  1.00  0.00    -0.224 NA
HETATM    7  C6  UNL     1      24.560   2.992  52.125  1.00  0.00     0.137 A 
HETATM    8  C14 UNL     1      25.423   1.964  52.437  1.00  0.00     0.041 A 
HETATM    9  C15 UNL     1      25.168   1.181  53.534  1.00  0.00     0.057 A 
HETATM   10  C16 UNL     1      25.968   0.129  53.935  1.00  0.00     0.102 A 
ENDROOT
BRANCH   7  11
HETATM   11  N3  UNL     1      23.375   3.289  52.879  1.00  0.00    -0.374 N 
HETATM   12  H6  UNL     1      23.289   3.206  53.913  1.00  0.00     0.161 HD
BRANCH  11  13
HETATM   13  C7  UNL     1      22.150   3.753  52.203  1.00  0.00     0.122 C 
BRANCH  13  14
HETATM   14  C8  UNL     1      21.039   2.799  52.334  1.00  0.00     0.037 C 
BRANCH  14  15
HETATM   15  C9  UNL     1      21.248   1.326  51.961  1.00  0.00     0.001 A 
HETATM   16  C10 UNL     1      21.768   1.023  50.124  1.00  0.00     0.054 A 
HETATM   17  C11 UNL     1      21.594   0.637  50.870  1.00  0.00    -0.061 A 
HETATM   18  P1  UNL     1      21.403   0.238  51.689  1.00  0.00    -0.119 P 
HETATM   19  C12 UNL     1      20.902  -0.719  53.805  1.00  0.00     0.031 A 
HETATM   20  H12 UNL     1      21.316   0.047  52.063  1.00  0.00     0.055 HD
HETATM   21  C13 UNL     1      20.780   0.882  53.802  1.00  0.00     0.022 A 
ENDBRANCH  14  15
ENDBRANCH  13  14
ENDBRANCH  11  13
ENDBRANCH   7  11
BRANCH  10  22
HETATM   22  O2  UNL     1      25.697  -0.652  55.043  1.00  0.00    -0.353 OA
HETATM   23  C17 UNL     1      24.406  -1.185  55.196  1.00  0.00     0.210 C 
ENDBRANCH  10  22
BRANCH   1  24
HETATM   24  O1  UNL     1      27.909  -1.214  53.586  1.00  0.00    -0.353 OA
HETATM   25  C1  UNL     1      29.306  -1.150  53.604  1.00  0.00     0.210 C 
ENDBRANCH   1  24
TORSDOF 6
ENDMDL
MODEL 7
REMARK VINA RESULT:      -6.8      2.076      3.507
REMARK  6 active torsions:
REMARK  status: ('A' for Active; 'I' for Inactive)
REMARK    1  A    between atoms: O1_2  and  C2_3 
REMARK    2  A    between atoms: C6_9  and  N3_10 
REMARK    3  A    between atoms: N3_10  and  C7_11 
REMARK    4  A    between atoms: C7_11  and  C8_12 
REMARK    5  A    between atoms: C8_12  and  C9_13 
REMARK    6  A    between atoms: C16_21  and  O2_22 
ROOT
HETATM    1  C2  UNL     1      27.475   0.778  53.499  1.00  0.00     0.103 A 
HETATM    2  C3  UNL     1      26.899  -0.048  54.441  1.00  0.00     0.072 A 
HETATM    3  C4  UNL     1      25.554  -0.314  54.462  1.00  0.00     0.075 A 
HETATM    4  N1  UNL     1      24.969  -1.121  55.373  1.00  0.00    -0.241 NA
HETATM    5  C5  UNL     1      23.622  -1.331  55.316  1.00  0.00     0.235 A 
HETATM    6  N2  UNL     1      22.815  -0.780  54.398  1.00  0.00    -0.224 NA
HETATM    7  C6  UNL     1      23.355   0.028  53.475  1.00  0.00     0.137 A 
HETATM    8  C14 UNL     1      24.714   0.245  53.524  1.00  0.00     0.041 A 
HETATM    9  C15 UNL     1      25.299   1.065  52.592  1.00  0.00     0.057 A 
HETATM   10  C16 UNL     1      26.650   1.348  52.551  1.00  0.00     0.102 A 
ENDROOT
BRANCH   7  11
HETATM   11  N3  UNL     1      22.490   0.632  52.501  1.00  0.00    -0.374 N 
HETATM   12  H6  UNL     1      22.626   1.576  52.086  1.00  0.00     0.161 HD
BRANCH  11  13
HETATM   13  C7  UNL     1      21.301  -0.085  52.005  1.00  0.00     0.122 C 
BRANCH  13  14
HETATM   14  C8  UNL     1      20.050   0.631  52.296  1.00  0.00     0.037 C 
BRANCH  14  15
HETATM   15  C9  UNL     1      18.701  -0.057  52.054  1.00  0.00     0.001 A 
HETATM   16  C10 UNL     1      18.219  -1.377  53.382  1.00  0.00     0.054 A 
HETATM   17  C11 UNL     1      17.963  -0.993  52.659  1.00  0.00    -0.061 A 
HETATM   18  P1  UNL     1      17.705  -0.563  51.875  1.00  0.00    -0.119 P 
HETATM   19  C12 UNL     1      17.101   0.570  49.875  1.00  0.00     0.031 A 
HETATM   20  H12 UNL     1      17.578  -0.370  51.514  1.00  0.00     0.055 HD
HETATM   21  C13 UNL     1      18.523   1.042  50.453  1.00  0.00     0.022 A 
ENDBRANCH  14  15
ENDBRANCH  13  14
ENDBRANCH  11  13
ENDBRANCH   7  11
BRANCH  10  22
HETATM   22  O2  UNL     1      27.225   2.177  51.606  1.00  0.00    -0.353 OA
HETATM   23  C17 UNL     1      26.387   2.893  50.735  1.00  0.00     0.210 C 
ENDBRANCH  10  22
BRANCH   1  24
HETATM   24  O1  UNL     1      28.831   1.051  53.472  1.00  0.00    -0.353 OA
HETATM   25  C1  UNL     1      29.822   0.092  53.704  1.00  0.00     0.210 C 
ENDBRANCH   1  24
TORSDOF 6
ENDMDL
MODEL 8
REMARK VINA RESULT:      -6.8      2.577      4.543
REMARK  6 active torsions:
REMARK  status: ('A' for Active; 'I' for Inactive)
REMARK    1  A    between atoms: O1_2  and  C2_3 
REMARK    2  A    between atoms: C6_9  and  N3_10 
REMARK    3  A    between atoms: N3_10  and  C7_11 
REMARK    4  A    between atoms: C7_11  and  C8_12 
REMARK    5  A    between atoms: C8_12  and  C9_13 
REMARK    6  A    between atoms: C16_21  and  O2_22 
ROOT
HETATM    1  C2  UNL     1      26.320  -0.171  53.526  1.00  0.00     0.103 A 
HETATM    2  C3  UNL     1      25.376  -0.777  54.329  1.00  0.00     0.072 A 
HETATM    3  C4  UNL     1      24.033  -0.535  54.197  1.00  0.00     0.075 A 
HETATM    4  N1  UNL     1      23.093  -1.119  54.970  1.00  0.00    -0.241 NA
HETATM    5  C5  UNL     1      21.777  -0.820  54.766  1.00  0.00     0.235 A 
HETATM    6  N2  UNL     1      21.338   0.033  53.829  1.00  0.00    -0.224 NA
HETATM    7  C6  UNL     1      22.239   0.635  53.040  1.00  0.00     0.137 A 
HETATM    8  C14 UNL     1      23.570   0.339  53.238  1.00  0.00     0.041 A 
HETATM    9  C15 UNL     1      24.518   0.935  52.446  1.00  0.00     0.057 A 
HETATM   10  C16 UNL     1      25.875   0.708  52.560  1.00  0.00     0.102 A 
ENDROOT
BRANCH   7  11
HETATM   11  N3  UNL     1      21.772   1.561  52.047  1.00  0.00    -0.374 N 
HETATM   12  H6  UNL     1      22.084   1.580  51.055  1.00  0.00     0.161 HD
BRANCH  11  13
HETATM   13  C7  UNL     1      20.773   2.590  52.390  1.00  0.00     0.122 C 
BRANCH  13  14
HETATM   14  C8  UNL     1      20.982   3.845  51.652  1.00  0.00     0.037 C 
BRANCH  14  15
HETATM   15  C9  UNL     1      22.406   4.338  51.369  1.00  0.00     0.001 A 
HETATM   16  C10 UNL     1      23.463   4.704  52.947  1.00  0.00     0.054 A 
HETATM   17  C11 UNL     1      23.470   4.706  52.089  1.00  0.00    -0.061 A 
HETATM   18  P1  UNL     1      23.457   4.701  51.159  1.00  0.00    -0.119 P 
HETATM   19  C12 UNL     1      23.361   4.666  48.784  1.00  0.00     0.031 A 
HETATM   20  H12 UNL     1      23.459   4.701  50.730  1.00  0.00     0.055 HD
HETATM   21  C13 UNL     1      21.987   4.195  49.470  1.00  0.00     0.022 A 
ENDBRANCH  14  15
ENDBRANCH  13  14
ENDBRANCH  11  13
ENDBRANCH   7  11
BRANCH  10  22
HETATM   22  O2  UNL     1      26.818   1.316  51.754  1.00  0.00    -0.353 OA
HETATM   23  C17 UNL     1      26.445   2.452  51.015  1.00  0.00     0.210 C 
ENDBRANCH  10  22
BRANCH   1  24
HETATM   24  O1  UNL     1      27.676  -0.410  53.654  1.00  0.00    -0.353 OA
HETATM   25  C1  UNL     1      28.453   0.062  54.717  1.00  0.00     0.210 C 
ENDBRANCH   1  24
TORSDOF 6
ENDMDL
MODEL 9
REMARK VINA RESULT:      -6.6      1.562      2.341
REMARK  6 active torsions:
REMARK  status: ('A' for Active; 'I' for Inactive)
REMARK    1  A    between atoms: O1_2  and  C2_3 
REMARK    2  A    between atoms: C6_9  and  N3_10 
REMARK    3  A    between atoms: N3_10  and  C7_11 
REMARK    4  A    between atoms: C7_11  and  C8_12 
REMARK    5  A    between atoms: C8_12  and  C9_13 
REMARK    6  A    between atoms: C16_21  and  O2_22 
ROOT
HETATM    1  C2  UNL     1      27.309  -0.005  53.639  1.00  0.00     0.103 A 
HETATM    2  C3  UNL     1      27.638   0.855  52.612  1.00  0.00     0.072 A 
HETATM    3  C4  UNL     1      26.737   1.736  52.072  1.00  0.00     0.075 A 
HETATM    4  N1  UNL     1      27.039   2.588  51.070  1.00  0.00    -0.241 NA
HETATM    5  C5  UNL     1      26.078   3.432  50.595  1.00  0.00     0.235 A 
HETATM    6  N2  UNL     1      24.822   3.479  51.064  1.00  0.00    -0.224 NA
HETATM    7  C6  UNL     1      24.481   2.650  52.059  1.00  0.00     0.137 A 
HETATM    8  C14 UNL     1      25.445   1.794  52.545  1.00  0.00     0.041 A 
HETATM    9  C15 UNL     1      25.129   0.934  53.566  1.00  0.00     0.057 A 
HETATM   10  C16 UNL     1      26.018   0.038  54.126  1.00  0.00     0.102 A 
ENDROOT
BRANCH   7  11
HETATM   11  N3  UNL     1      23.133   2.687  52.552  1.00  0.00    -0.374 N 
HETATM   12  H6  UNL     1      22.723   2.005  53.221  1.00  0.00     0.161 HD
BRANCH  11  13
HETATM   13  C7  UNL     1      22.203   3.746  52.118  1.00  0.00     0.122 C 
BRANCH  13  14
HETATM   14  C8  UNL     1      21.127   3.232  51.258  1.00  0.00     0.037 C 
BRANCH  14  15
HETATM   15  C9  UNL     1      21.376   2.008  50.369  1.00  0.00     0.001 A 
HETATM   16  C10 UNL     1      20.983   0.309  51.205  1.00  0.00     0.054 A 
HETATM   17  C11 UNL     1      21.261   0.681  50.484  1.00  0.00    -0.061 A 
HETATM   18  P1  UNL     1      21.559   1.105  49.711  1.00  0.00    -0.119 P 
HETATM   19  C12 UNL     1      22.315   2.247  47.768  1.00  0.00     0.031 A 
HETATM   20  H12 UNL     1      21.698   1.293  49.352  1.00  0.00     0.055 HD
HETATM   21  C13 UNL     1      21.946   3.244  48.973  1.00  0.00     0.022 A 
ENDBRANCH  14  15
ENDBRANCH  13  14
ENDBRANCH  11  13
ENDBRANCH   7  11
BRANCH  10  22
HETATM   22  O2  UNL     1      25.685  -0.823  55.155  1.00  0.00    -0.353 OA
HETATM   23  C17 UNL     1      24.342  -1.205  55.308  1.00  0.00     0.210 C 
ENDBRANCH  10  22
BRANCH   1  24
HETATM   24  O1  UNL     1      28.213  -0.896  54.188  1.00  0.00    -0.353 OA
HETATM   25  C1  UNL     1      29.271  -1.471  53.475  1.00  0.00     0.210 C 
ENDBRANCH   1  24
TORSDOF 6
ENDMDL
