MODEL 1
REMARK VINA RESULT:      -6.5      0.000      0.000
REMARK  8 active torsions:
REMARK  status: ('A' for Active; 'I' for Inactive)
REMARK    1  A    between atoms: C2_2  and  C3_3 
REMARK    2  A    between atoms: C3_3  and  N1_4 
REMARK    3  A    between atoms: N1_4  and  C4_5 
REMARK    4  A    between atoms: N1_4  and  C6_7 
REMARK    5  A    between atoms: C6_7  and  C7_8 
REMARK    6  A    between atoms: C7_8  and  C8_9 
REMARK    7  A    between atoms: C8_9  and  N2_10 
REMARK    8  A    between atoms: C8_9  and  C9_11 
ROOT
HETATM    1  C9  UNL     1      25.357   1.165  52.931  1.00  0.00    -0.025 C 
HETATM    2  C10 UNL     1      26.125   2.307  53.032  1.00  0.00    -0.018 C 
HETATM    3  C11 UNL     1      27.266   2.440  53.990  1.00  0.00     0.057 C 
HETATM    4  C12 UNL     1      28.592   2.386  53.347  1.00  0.00     0.273 C 
HETATM    5  N3  UNL     1      29.621   1.783  54.254  1.00  0.00     0.087 N 
HETATM    6  C13 UNL     1      29.282   0.324  54.159  1.00  0.00     0.297 C 
HETATM    7  C14 UNL     1      27.960   0.166  54.773  1.00  0.00     0.010 C 
HETATM    8  C15 UNL     1      27.144  -0.181  53.808  1.00  0.00    -0.017 C 
HETATM    9  C16 UNL     1      26.975  -0.509  52.328  1.00  0.00     0.307 C 
HETATM   10  N4  UNL     1      25.783  -1.262  52.797  1.00  0.00     0.100 N 
HETATM   11  C17 UNL     1      25.618  -0.132  53.681  1.00  0.00     0.282 C 
HETATM   12  H25 UNL     1      30.531   1.936  53.805  1.00  0.00     0.316 HD
HETATM   13  H31 UNL     1      25.080  -1.282  52.046  1.00  0.00     0.317 HD
ENDROOT
BRANCH   1  14
HETATM   14  C8  UNL     1      24.237   1.157  51.946  1.00  0.00     0.107 C 
BRANCH  14  15
HETATM   15  C7  UNL     1      22.895   1.088  52.643  1.00  0.00     0.059 C 
BRANCH  15  16
HETATM   16  C6  UNL     1      21.900   0.220  51.932  1.00  0.00     0.274 C 
BRANCH  16  17
HETATM   17  N1  UNL     1      20.741  -0.133  52.684  1.00  0.00     0.088 N 
BRANCH  17  18
HETATM   18  C3  UNL     1      20.972  -0.167  54.108  1.00  0.00     0.272 C 
BRANCH  18  19
HETATM   19  C2  UNL     1      21.389  -1.519  54.620  1.00  0.00     0.026 C 
HETATM   20  C1  UNL     1      22.734  -1.442  55.342  1.00  0.00     0.007 C 
ENDBRANCH  18  19
ENDBRANCH  17  18
BRANCH  17  21
HETATM   21  C4  UNL     1      19.571   0.637  52.345  1.00  0.00     0.268 C 
HETATM   22  C5  UNL     1      18.395  -0.254  51.974  1.00  0.00     0.037 C 
ENDBRANCH  17  21
ENDBRANCH  16  17
ENDBRANCH  15  16
ENDBRANCH  14  15
BRANCH  14  23
HETATM   23  N2  UNL     1      24.250   2.224  51.017  1.00  0.00    -0.422 N 
HETATM   24  H18 UNL     1      25.091   2.417  50.492  1.00  0.00     0.150 HD
HETATM   25  H19 UNL     1      23.396   2.742  50.842  1.00  0.00     0.150 HD
ENDBRANCH  14  23
ENDBRANCH   1  14
TORSDOF 8
ENDMDL
MODEL 2
REMARK VINA RESULT:      -6.5      0.571      2.096
REMARK  8 active torsions:
REMARK  status: ('A' for Active; 'I' for Inactive)
REMARK    1  A    between atoms: C2_2  and  C3_3 
REMARK    2  A    between atoms: C3_3  and  N1_4 
REMARK    3  A    between atoms: N1_4  and  C4_5 
REMARK    4  A    between atoms: N1_4  and  C6_7 
REMARK    5  A    between atoms: C6_7  and  C7_8 
REMARK    6  A    between atoms: C7_8  and  C8_9 
REMARK    7  A    between atoms: C8_9  and  N2_10 
REMARK    8  A    between atoms: C8_9  and  C9_11 
ROOT
HETATM    1  C9  UNL     1      25.202   1.270  53.017  1.00  0.00    -0.025 C 
HETATM    2  C10 UNL     1      26.079   2.335  52.998  1.00  0.00    -0.018 C 
HETATM    3  C11 UNL     1      27.267   2.429  53.902  1.00  0.00     0.057 C 
HETATM    4  C12 UNL     1      28.553   2.194  53.220  1.00  0.00     0.273 C 
HETATM    5  N3  UNL     1      29.557   1.566  54.138  1.00  0.00     0.087 N 
HETATM    6  C13 UNL     1      29.077   0.144  54.175  1.00  0.00     0.297 C 
HETATM    7  C14 UNL     1      27.773   0.166  54.845  1.00  0.00     0.010 C 
HETATM    8  C15 UNL     1      26.887  -0.173  53.940  1.00  0.00    -0.017 C 
HETATM    9  C16 UNL     1      26.625  -0.597  52.498  1.00  0.00     0.307 C 
HETATM   10  N4  UNL     1      25.389  -1.191  53.068  1.00  0.00     0.100 N 
HETATM   11  C17 UNL     1      25.369   0.016  53.861  1.00  0.00     0.282 C 
HETATM   12  H25 UNL     1      30.459   1.593  53.646  1.00  0.00     0.316 HD
HETATM   13  H31 UNL     1      24.656  -1.200  52.346  1.00  0.00     0.317 HD
ENDROOT
BRANCH   1  14
HETATM   14  C8  UNL     1      24.046   1.295  52.076  1.00  0.00     0.107 C 
BRANCH  14  15
HETATM   15  C7  UNL     1      22.751   1.580  52.805  1.00  0.00     0.059 C 
BRANCH  15  16
HETATM   16  C6  UNL     1      21.678   0.570  52.530  1.00  0.00     0.274 C 
BRANCH  16  17
HETATM   17  N1  UNL     1      20.766   0.330  53.600  1.00  0.00     0.088 N 
BRANCH  17  18
HETATM   18  C3  UNL     1      19.562  -0.347  53.184  1.00  0.00     0.272 C 
BRANCH  18  19
HETATM   19  C2  UNL     1      19.077   0.063  51.820  1.00  0.00     0.026 C 
HETATM   20  C1  UNL     1      17.656  -0.440  51.567  1.00  0.00     0.007 C 
ENDBRANCH  18  19
ENDBRANCH  17  18
BRANCH  17  21
HETATM   21  C4  UNL     1      21.369  -0.296  54.749  1.00  0.00     0.268 C 
HETATM   22  C5  UNL     1      21.803  -1.724  54.451  1.00  0.00     0.037 C 
ENDBRANCH  17  21
ENDBRANCH  16  17
ENDBRANCH  15  16
ENDBRANCH  14  15
BRANCH  14  23
HETATM   23  N2  UNL     1      24.190   2.174  50.976  1.00  0.00    -0.422 N 
HETATM   24  H18 UNL     1      24.774   2.993  51.065  1.00  0.00     0.150 HD
HETATM   25  H19 UNL     1      23.757   1.936  50.089  1.00  0.00     0.150 HD
ENDBRANCH  14  23
ENDBRANCH   1  14
TORSDOF 8
ENDMDL
MODEL 3
REMARK VINA RESULT:      -6.5      2.531      6.490
REMARK  8 active torsions:
REMARK  status: ('A' for Active; 'I' for Inactive)
REMARK    1  A    between atoms: C2_2  and  C3_3 
REMARK    2  A    between atoms: C3_3  and  N1_4 
REMARK    3  A    between atoms: N1_4  and  C4_5 
REMARK    4  A    between atoms: N1_4  and  C6_7 
REMARK    5  A    between atoms: C6_7  and  C7_8 
REMARK    6  A    between atoms: C7_8  and  C8_9 
REMARK    7  A    between atoms: C8_9  and  N2_10 
REMARK    8  A    between atoms: C8_9  and  C9_11 
ROOT
HETATM    1  C9  UNL     1      24.594   2.802  51.591  1.00  0.00    -0.025 C 
HETATM    2  C10 UNL     1      24.003   2.372  50.421  1.00  0.00    -0.018 C 
HETATM    3  C11 UNL     1      22.527   2.165  50.282  1.00  0.00     0.057 C 
HETATM    4  C12 UNL     1      21.854   3.203  49.480  1.00  0.00     0.273 C 
HETATM    5  N3  UNL     1      20.447   3.431  49.943  1.00  0.00     0.087 N 
HETATM    6  C13 UNL     1      20.671   4.240  51.187  1.00  0.00     0.297 C 
HETATM    7  C14 UNL     1      21.344   3.353  52.141  1.00  0.00     0.010 C 
HETATM    8  C15 UNL     1      22.550   3.840  52.310  1.00  0.00    -0.017 C 
HETATM    9  C16 UNL     1      23.551   4.937  51.959  1.00  0.00     0.307 C 
HETATM   10  N4  UNL     1      24.165   4.568  53.261  1.00  0.00     0.100 N 
HETATM   11  C17 UNL     1      23.846   3.222  52.846  1.00  0.00     0.282 C 
HETATM   12  H25 UNL     1      20.002   4.032  49.239  1.00  0.00     0.316 HD
HETATM   13  H31 UNL     1      25.174   4.763  53.224  1.00  0.00     0.317 HD
ENDROOT
BRANCH   1  14
HETATM   14  C8  UNL     1      26.077   2.960  51.611  1.00  0.00     0.107 C 
BRANCH  14  15
HETATM   15  C7  UNL     1      26.769   1.620  51.739  1.00  0.00     0.059 C 
BRANCH  15  16
HETATM   16  C6  UNL     1      27.698   1.540  52.914  1.00  0.00     0.274 C 
BRANCH  16  17
HETATM   17  N1  UNL     1      27.334   0.604  53.926  1.00  0.00     0.088 N 
BRANCH  17  18
HETATM   18  C3  UNL     1      26.433  -0.422  53.458  1.00  0.00     0.272 C 
BRANCH  18  19
HETATM   19  C2  UNL     1      25.163  -0.522  54.257  1.00  0.00     0.026 C 
HETATM   20  C1  UNL     1      23.934  -0.448  53.351  1.00  0.00     0.007 C 
ENDBRANCH  18  19
ENDBRANCH  17  18
BRANCH  17  21
HETATM   21  C4  UNL     1      28.457   0.052  54.639  1.00  0.00     0.268 C 
HETATM   22  C5  UNL     1      29.374  -0.743  53.721  1.00  0.00     0.037 C 
ENDBRANCH  17  21
ENDBRANCH  16  17
ENDBRANCH  15  16
ENDBRANCH  14  15
BRANCH  14  23
HETATM   23  N2  UNL     1      26.616   3.684  50.521  1.00  0.00    -0.422 N 
HETATM   24  H18 UNL     1      25.995   4.169  49.889  1.00  0.00     0.150 HD
HETATM   25  H19 UNL     1      27.622   3.763  50.425  1.00  0.00     0.150 HD
ENDBRANCH  14  23
ENDBRANCH   1  14
TORSDOF 8
ENDMDL
MODEL 4
REMARK VINA RESULT:      -6.4      2.240      3.589
REMARK  8 active torsions:
REMARK  status: ('A' for Active; 'I' for Inactive)
REMARK    1  A    between atoms: C2_2  and  C3_3 
REMARK    2  A    between atoms: C3_3  and  N1_4 
REMARK    3  A    between atoms: N1_4  and  C4_5 
REMARK    4  A    between atoms: N1_4  and  C6_7 
REMARK    5  A    between atoms: C6_7  and  C7_8 
REMARK    6  A    between atoms: C7_8  and  C8_9 
REMARK    7  A    between atoms: C8_9  and  N2_10 
REMARK    8  A    between atoms: C8_9  and  C9_11 
ROOT
HETATM    1  C9  UNL     1      24.546   2.310  52.059  1.00  0.00    -0.025 C 
HETATM    2  C10 UNL     1      24.037   1.396  52.957  1.00  0.00    -0.018 C 
HETATM    3  C11 UNL     1      24.532  -0.012  53.056  1.00  0.00     0.057 C 
HETATM    4  C12 UNL     1      25.357  -0.271  54.250  1.00  0.00     0.273 C 
HETATM    5  N3  UNL     1      26.396  -1.318  53.988  1.00  0.00     0.087 N 
HETATM    6  C13 UNL     1      27.409  -0.540  53.199  1.00  0.00     0.297 C 
HETATM    7  C14 UNL     1      26.762  -0.187  51.931  1.00  0.00     0.010 C 
HETATM    8  C15 UNL     1      26.627   1.117  51.936  1.00  0.00    -0.017 C 
HETATM    9  C16 UNL     1      26.866   2.428  52.678  1.00  0.00     0.307 C 
HETATM   10  N4  UNL     1      26.790   3.024  51.320  1.00  0.00     0.100 N 
HETATM   11  C17 UNL     1      25.727   2.063  51.134  1.00  0.00     0.282 C 
HETATM   12  H25 UNL     1      26.806  -1.557  54.899  1.00  0.00     0.316 HD
HETATM   13  H31 UNL     1      26.441   3.989  51.394  1.00  0.00     0.317 HD
ENDROOT
BRANCH   1  14
HETATM   14  C8  UNL     1      23.961   3.683  52.047  1.00  0.00     0.107 C 
BRANCH  14  15
HETATM   15  C7  UNL     1      22.512   3.657  51.610  1.00  0.00     0.059 C 
BRANCH  15  16
HETATM   16  C6  UNL     1      22.326   3.209  50.191  1.00  0.00     0.274 C 
BRANCH  16  17
HETATM   17  N1  UNL     1      21.786   1.899  50.024  1.00  0.00     0.088 N 
BRANCH  17  18
HETATM   18  C3  UNL     1      20.679   1.620  50.906  1.00  0.00     0.272 C 
BRANCH  18  19
HETATM   19  C2  UNL     1      20.763   0.277  51.577  1.00  0.00     0.026 C 
HETATM   20  C1  UNL     1      20.444   0.385  53.068  1.00  0.00     0.007 C 
ENDBRANCH  18  19
ENDBRANCH  17  18
BRANCH  17  21
HETATM   21  C4  UNL     1      21.484   1.565  48.655  1.00  0.00     0.268 C 
HETATM   22  C5  UNL     1      22.486   2.181  47.689  1.00  0.00     0.037 C 
ENDBRANCH  17  21
ENDBRANCH  16  17
ENDBRANCH  15  16
ENDBRANCH  14  15
BRANCH  14  23
HETATM   23  N2  UNL     1      24.092   4.399  53.260  1.00  0.00    -0.422 N 
HETATM   24  H18 UNL     1      23.356   4.350  53.950  1.00  0.00     0.150 HD
HETATM   25  H19 UNL     1      24.953   4.900  53.451  1.00  0.00     0.150 HD
ENDBRANCH  14  23
ENDBRANCH   1  14
TORSDOF 8
ENDMDL
MODEL 5
REMARK VINA RESULT:      -6.4      2.457      4.131
REMARK  8 active torsions:
REMARK  status: ('A' for Active; 'I' for Inactive)
REMARK    1  A    between atoms: C2_2  and  C3_3 
REMARK    2  A    between atoms: C3_3  and  N1_4 
REMARK    3  A    between atoms: N1_4  and  C4_5 
REMARK    4  A    between atoms: N1_4  and  C6_7 
REMARK    5  A    between atoms: C6_7  and  C7_8 
REMARK    6  A    between atoms: C7_8  and  C8_9 
REMARK    7  A    between atoms: C8_9  and  N2_10 
REMARK    8  A    between atoms: C8_9  and  C9_11 
ROOT
HETATM    1  C9  UNL     1      24.478   2.337  52.258  1.00  0.00    -0.025 C 
HETATM    2  C10 UNL     1      24.048   1.392  53.167  1.00  0.00    -0.018 C 
HETATM    3  C11 UNL     1      24.549  -0.017  53.175  1.00  0.00     0.057 C 
HETATM    4  C12 UNL     1      25.473  -0.314  54.284  1.00  0.00     0.273 C 
HETATM    5  N3  UNL     1      26.485  -1.350  53.898  1.00  0.00     0.087 N 
HETATM    6  C13 UNL     1      27.426  -0.544  53.051  1.00  0.00     0.297 C 
HETATM    7  C14 UNL     1      26.672  -0.151  51.856  1.00  0.00     0.010 C 
HETATM    8  C15 UNL     1      26.539   1.152  51.916  1.00  0.00    -0.017 C 
HETATM    9  C16 UNL     1      26.843   2.439  52.678  1.00  0.00     0.307 C 
HETATM   10  N4  UNL     1      26.650   3.079  51.352  1.00  0.00     0.100 N 
HETATM   11  C17 UNL     1      25.574   2.123  51.227  1.00  0.00     0.282 C 
HETATM   12  H25 UNL     1      26.972  -1.618  54.761  1.00  0.00     0.316 HD
HETATM   13  H31 UNL     1      26.310   4.040  51.488  1.00  0.00     0.317 HD
ENDROOT
BRANCH   1  14
HETATM   14  C8  UNL     1      23.895   3.708  52.343  1.00  0.00     0.107 C 
BRANCH  14  15
HETATM   15  C7  UNL     1      22.390   3.674  52.190  1.00  0.00     0.059 C 
BRANCH  15  16
HETATM   16  C6  UNL     1      21.937   3.700  50.760  1.00  0.00     0.274 C 
BRANCH  16  17
HETATM   17  N1  UNL     1      21.300   2.512  50.293  1.00  0.00     0.088 N 
BRANCH  17  18
HETATM   18  C3  UNL     1      22.102   1.765  49.355  1.00  0.00     0.272 C 
BRANCH  18  19
HETATM   19  C2  UNL     1      22.913   2.630  48.429  1.00  0.00     0.026 C 
HETATM   20  C1  UNL     1      22.170   2.880  47.117  1.00  0.00     0.007 C 
ENDBRANCH  18  19
ENDBRANCH  17  18
BRANCH  17  21
HETATM   21  C4  UNL     1      20.783   1.676  51.347  1.00  0.00     0.268 C 
HETATM   22  C5  UNL     1      21.166   0.217  51.151  1.00  0.00     0.037 C 
ENDBRANCH  17  21
ENDBRANCH  16  17
ENDBRANCH  15  16
ENDBRANCH  14  15
BRANCH  14  23
HETATM   23  N2  UNL     1      24.251   4.438  53.501  1.00  0.00    -0.422 N 
HETATM   24  H18 UNL     1      23.733   5.270  53.745  1.00  0.00     0.150 HD
HETATM   25  H19 UNL     1      24.980   4.081  54.110  1.00  0.00     0.150 HD
ENDBRANCH  14  23
ENDBRANCH   1  14
TORSDOF 8
ENDMDL
MODEL 6
REMARK VINA RESULT:      -6.4      3.541      5.893
REMARK  8 active torsions:
REMARK  status: ('A' for Active; 'I' for Inactive)
REMARK    1  A    between atoms: C2_2  and  C3_3 
REMARK    2  A    between atoms: C3_3  and  N1_4 
REMARK    3  A    between atoms: N1_4  and  C4_5 
REMARK    4  A    between atoms: N1_4  and  C6_7 
REMARK    5  A    between atoms: C6_7  and  C7_8 
REMARK    6  A    between atoms: C7_8  and  C8_9 
REMARK    7  A    between atoms: C8_9  and  N2_10 
REMARK    8  A    between atoms: C8_9  and  C9_11 
ROOT
HETATM    1  C9  UNL     1      24.754   2.494  52.136  1.00  0.00    -0.025 C 
HETATM    2  C10 UNL     1      24.130   1.624  53.006  1.00  0.00    -0.018 C 
HETATM    3  C11 UNL     1      24.455   0.165  53.072  1.00  0.00     0.057 C 
HETATM    4  C12 UNL     1      25.228  -0.218  54.267  1.00  0.00     0.273 C 
HETATM    5  N3  UNL     1      26.139  -1.374  53.987  1.00  0.00     0.087 N 
HETATM    6  C13 UNL     1      27.247  -0.703  53.228  1.00  0.00     0.297 C 
HETATM    7  C14 UNL     1      26.661  -0.245  51.964  1.00  0.00     0.010 C 
HETATM    8  C15 UNL     1      26.681   1.066  52.001  1.00  0.00    -0.017 C 
HETATM    9  C16 UNL     1      27.064   2.321  52.779  1.00  0.00     0.307 C 
HETATM   10  N4  UNL     1      27.076   2.955  51.436  1.00  0.00     0.100 N 
HETATM   11  C17 UNL     1      25.909   2.132  51.216  1.00  0.00     0.282 C 
HETATM   12  H25 UNL     1      26.508  -1.682  54.895  1.00  0.00     0.316 HD
HETATM   13  H31 UNL     1      26.843   3.952  51.532  1.00  0.00     0.317 HD
ENDROOT
BRANCH   1  14
HETATM   14  C8  UNL     1      24.336   3.926  52.154  1.00  0.00     0.107 C 
BRANCH  14  15
HETATM   15  C7  UNL     1      23.330   4.217  51.062  1.00  0.00     0.059 C 
BRANCH  15  16
HETATM   16  C6  UNL     1      23.846   5.156  50.013  1.00  0.00     0.274 C 
BRANCH  16  17
HETATM   17  N1  UNL     1      24.710   6.190  50.482  1.00  0.00     0.088 N 
BRANCH  17  18
HETATM   18  C3  UNL     1      25.825   6.445  49.602  1.00  0.00     0.272 C 
BRANCH  18  19
HETATM   19  C2  UNL     1      26.387   5.206  48.961  1.00  0.00     0.026 C 
HETATM   20  C1  UNL     1      27.819   5.436  48.479  1.00  0.00     0.007 C 
ENDBRANCH  18  19
ENDBRANCH  17  18
BRANCH  17  21
HETATM   21  C4  UNL     1      24.022   7.401  50.848  1.00  0.00     0.268 C 
HETATM   22  C5  UNL     1      23.610   8.209  49.625  1.00  0.00     0.037 C 
ENDBRANCH  17  21
ENDBRANCH  16  17
ENDBRANCH  15  16
ENDBRANCH  14  15
BRANCH  14  23
HETATM   23  N2  UNL     1      23.851   4.391  53.400  1.00  0.00    -0.422 N 
HETATM   24  H18 UNL     1      23.429   5.306  53.460  1.00  0.00     0.150 HD
HETATM   25  H19 UNL     1      23.873   3.773  54.204  1.00  0.00     0.150 HD
ENDBRANCH  14  23
ENDBRANCH   1  14
TORSDOF 8
ENDMDL
MODEL 7
REMARK VINA RESULT:      -6.4      2.980      4.974
REMARK  8 active torsions:
REMARK  status: ('A' for Active; 'I' for Inactive)
REMARK    1  A    between atoms: C2_2  and  C3_3 
REMARK    2  A    between atoms: C3_3  and  N1_4 
REMARK    3  A    between atoms: N1_4  and  C4_5 
REMARK    4  A    between atoms: N1_4  and  C6_7 
REMARK    5  A    between atoms: C6_7  and  C7_8 
REMARK    6  A    between atoms: C7_8  and  C8_9 
REMARK    7  A    between atoms: C8_9  and  N2_10 
REMARK    8  A    between atoms: C8_9  and  C9_11 
ROOT
HETATM    1  C9  UNL     1      24.581   2.397  52.092  1.00  0.00    -0.025 C 
HETATM    2  C10 UNL     1      24.066   1.505  53.010  1.00  0.00    -0.018 C 
HETATM    3  C11 UNL     1      24.508   0.079  53.096  1.00  0.00     0.057 C 
HETATM    4  C12 UNL     1      25.360  -0.211  54.264  1.00  0.00     0.273 C 
HETATM    5  N3  UNL     1      26.347  -1.299  53.971  1.00  0.00     0.087 N 
HETATM    6  C13 UNL     1      27.363  -0.564  53.147  1.00  0.00     0.297 C 
HETATM    7  C14 UNL     1      26.690  -0.188  51.900  1.00  0.00     0.010 C 
HETATM    8  C15 UNL     1      26.608   1.121  51.905  1.00  0.00    -0.017 C 
HETATM    9  C16 UNL     1      26.923   2.422  52.635  1.00  0.00     0.307 C 
HETATM   10  N4  UNL     1      26.827   3.018  51.278  1.00  0.00     0.100 N 
HETATM   11  C17 UNL     1      25.721   2.101  51.130  1.00  0.00     0.282 C 
HETATM   12  H25 UNL     1      26.777  -1.553  54.868  1.00  0.00     0.316 HD
HETATM   13  H31 UNL     1      26.520   3.997  51.360  1.00  0.00     0.317 HD
ENDROOT
BRANCH   1  14
HETATM   14  C8  UNL     1      24.052   3.792  52.095  1.00  0.00     0.107 C 
BRANCH  14  15
HETATM   15  C7  UNL     1      22.632   3.840  51.574  1.00  0.00     0.059 C 
BRANCH  15  16
HETATM   16  C6  UNL     1      22.460   4.756  50.399  1.00  0.00     0.274 C 
BRANCH  16  17
HETATM   17  N1  UNL     1      23.167   4.384  49.218  1.00  0.00     0.088 N 
BRANCH  17  18
HETATM   18  C3  UNL     1      22.353   3.667  48.267  1.00  0.00     0.272 C 
BRANCH  18  19
HETATM   19  C2  UNL     1      22.714   2.212  48.138  1.00  0.00     0.026 C 
HETATM   20  C1  UNL     1      21.565   1.316  48.603  1.00  0.00     0.007 C 
ENDBRANCH  18  19
ENDBRANCH  17  18
BRANCH  17  21
HETATM   21  C4  UNL     1      23.885   5.471  48.603  1.00  0.00     0.268 C 
HETATM   22  C5  UNL     1      25.354   5.474  48.999  1.00  0.00     0.037 C 
ENDBRANCH  17  21
ENDBRANCH  16  17
ENDBRANCH  15  16
ENDBRANCH  14  15
BRANCH  14  23
HETATM   23  N2  UNL     1      24.138   4.461  53.338  1.00  0.00    -0.422 N 
HETATM   24  H18 UNL     1      24.006   3.942  54.194  1.00  0.00     0.150 HD
HETATM   25  H19 UNL     1      24.397   5.442  53.358  1.00  0.00     0.150 HD
ENDBRANCH  14  23
ENDBRANCH   1  14
TORSDOF 8
ENDMDL
MODEL 8
REMARK VINA RESULT:      -6.3      2.488      6.698
REMARK  8 active torsions:
REMARK  status: ('A' for Active; 'I' for Inactive)
REMARK    1  A    between atoms: C2_2  and  C3_3 
REMARK    2  A    between atoms: C3_3  and  N1_4 
REMARK    3  A    between atoms: N1_4  and  C4_5 
REMARK    4  A    between atoms: N1_4  and  C6_7 
REMARK    5  A    between atoms: C6_7  and  C7_8 
REMARK    6  A    between atoms: C7_8  and  C8_9 
REMARK    7  A    between atoms: C8_9  and  N2_10 
REMARK    8  A    between atoms: C8_9  and  C9_11 
ROOT
HETATM    1  C9  UNL     1      23.913   2.492  50.564  1.00  0.00    -0.025 C 
HETATM    2  C10 UNL     1      23.597   2.942  49.298  1.00  0.00    -0.018 C 
HETATM    3  C11 UNL     1      22.583   2.272  48.425  1.00  0.00     0.057 C 
HETATM    4  C12 UNL     1      21.317   3.018  48.304  1.00  0.00     0.273 C 
HETATM    5  N3  UNL     1      20.150   2.096  48.116  1.00  0.00     0.087 N 
HETATM    6  C13 UNL     1      19.954   1.577  49.510  1.00  0.00     0.297 C 
HETATM    7  C14 UNL     1      21.143   0.777  49.823  1.00  0.00     0.010 C 
HETATM    8  C15 UNL     1      21.776   1.416  50.777  1.00  0.00    -0.017 C 
HETATM    9  C16 UNL     1      21.806   2.619  51.714  1.00  0.00     0.307 C 
HETATM   10  N4  UNL     1      22.661   1.741  52.553  1.00  0.00     0.100 N 
HETATM   11  C17 UNL     1      23.221   1.345  51.282  1.00  0.00     0.282 C 
HETATM   12  H25 UNL     1      19.347   2.689  47.873  1.00  0.00     0.316 HD
HETATM   13  H31 UNL     1      23.305   2.324  53.104  1.00  0.00     0.317 HD
ENDROOT
BRANCH   1  14
HETATM   14  C8  UNL     1      24.950   3.238  51.334  1.00  0.00     0.107 C 
BRANCH  14  15
HETATM   15  C7  UNL     1      26.238   2.448  51.426  1.00  0.00     0.059 C 
BRANCH  15  16
HETATM   16  C6  UNL     1      26.520   1.929  52.805  1.00  0.00     0.274 C 
BRANCH  16  17
HETATM   17  N1  UNL     1      27.120   0.636  52.866  1.00  0.00     0.088 N 
BRANCH  17  18
HETATM   18  C3  UNL     1      27.969   0.454  54.018  1.00  0.00     0.272 C 
BRANCH  18  19
HETATM   19  C2  UNL     1      29.436   0.412  53.687  1.00  0.00     0.026 C 
HETATM   20  C1  UNL     1      29.946  -1.028  53.626  1.00  0.00     0.007 C 
ENDBRANCH  18  19
ENDBRANCH  17  18
BRANCH  17  21
HETATM   21  C4  UNL     1      26.184  -0.448  52.709  1.00  0.00     0.268 C 
HETATM   22  C5  UNL     1      25.209  -0.526  53.875  1.00  0.00     0.037 C 
ENDBRANCH  17  21
ENDBRANCH  16  17
ENDBRANCH  15  16
ENDBRANCH  14  15
BRANCH  14  23
HETATM   23  N2  UNL     1      25.214   4.548  50.869  1.00  0.00    -0.422 N 
HETATM   24  H18 UNL     1      24.445   5.178  50.693  1.00  0.00     0.150 HD
HETATM   25  H19 UNL     1      26.175   4.861  50.781  1.00  0.00     0.150 HD
ENDBRANCH  14  23
ENDBRANCH   1  14
TORSDOF 8
ENDMDL
MODEL 9
REMARK VINA RESULT:      -6.1      1.236      1.915
REMARK  8 active torsions:
REMARK  status: ('A' for Active; 'I' for Inactive)
REMARK    1  A    between atoms: C2_2  and  C3_3 
REMARK    2  A    between atoms: C3_3  and  N1_4 
REMARK    3  A    between atoms: N1_4  and  C4_5 
REMARK    4  A    between atoms: N1_4  and  C6_7 
REMARK    5  A    between atoms: C6_7  and  C7_8 
REMARK    6  A    between atoms: C7_8  and  C8_9 
REMARK    7  A    between atoms: C8_9  and  N2_10 
REMARK    8  A    between atoms: C8_9  and  C9_11 
ROOT
HETATM    1  C9  UNL     1      25.284   1.134  52.983  1.00  0.00    -0.025 C 
HETATM    2  C10 UNL     1      26.052   2.278  53.057  1.00  0.00    -0.018 C 
HETATM    3  C11 UNL     1      27.206   2.425  53.997  1.00  0.00     0.057 C 
HETATM    4  C12 UNL     1      28.523   2.362  53.337  1.00  0.00     0.273 C 
HETATM    5  N3  UNL     1      29.565   1.773  54.239  1.00  0.00     0.087 N 
HETATM    6  C13 UNL     1      29.226   0.312  54.170  1.00  0.00     0.297 C 
HETATM    7  C14 UNL     1      27.912   0.163  54.804  1.00  0.00     0.010 C 
HETATM    8  C15 UNL     1      27.083  -0.198  53.855  1.00  0.00    -0.017 C 
HETATM    9  C16 UNL     1      26.894  -0.548  52.382  1.00  0.00     0.307 C 
HETATM   10  N4  UNL     1      25.710  -1.295  52.879  1.00  0.00     0.100 N 
HETATM   11  C17 UNL     1      25.555  -0.152  53.748  1.00  0.00     0.282 C 
HETATM   12  H25 UNL     1      30.469   1.920  53.774  1.00  0.00     0.316 HD
HETATM   13  H31 UNL     1      24.996  -1.326  52.138  1.00  0.00     0.317 HD
ENDROOT
BRANCH   1  14
HETATM   14  C8  UNL     1      24.150   1.111  52.014  1.00  0.00     0.107 C 
BRANCH  14  15
HETATM   15  C7  UNL     1      22.823   0.960  52.726  1.00  0.00     0.059 C 
BRANCH  15  16
HETATM   16  C6  UNL     1      21.769   1.900  52.224  1.00  0.00     0.274 C 
BRANCH  16  17
HETATM   17  N1  UNL     1      20.754   1.313  51.411  1.00  0.00     0.088 N 
BRANCH  17  18
HETATM   18  C3  UNL     1      19.461   1.276  52.050  1.00  0.00     0.272 C 
BRANCH  18  19
HETATM   19  C2  UNL     1      18.782  -0.064  51.964  1.00  0.00     0.026 C 
HETATM   20  C1  UNL     1      18.975  -0.863  53.252  1.00  0.00     0.007 C 
ENDBRANCH  18  19
ENDBRANCH  17  18
BRANCH  17  21
HETATM   21  C4  UNL     1      20.684   1.861  50.081  1.00  0.00     0.268 C 
HETATM   22  C5  UNL     1      21.389   0.973  49.066  1.00  0.00     0.037 C 
ENDBRANCH  17  21
ENDBRANCH  16  17
ENDBRANCH  15  16
ENDBRANCH  14  15
BRANCH  14  23
HETATM   23  N2  UNL     1      24.103   2.209  51.123  1.00  0.00    -0.422 N 
HETATM   24  H18 UNL     1      24.228   3.146  51.480  1.00  0.00     0.150 HD
HETATM   25  H19 UNL     1      24.011   2.038  50.128  1.00  0.00     0.150 HD
ENDBRANCH  14  23
ENDBRANCH   1  14
TORSDOF 8
ENDMDL
