MODEL 1
REMARK VINA RESULT:      -7.5      0.000      0.000
REMARK  5 active torsions:
REMARK  status: ('A' for Active; 'I' for Inactive)
REMARK       I    between atoms: N1_1  and  C1_2 
REMARK       I    between atoms: C1_2  and  N2_4 
REMARK    1  A    between atoms: N2_4  and  C2_5 
REMARK    2  A    between atoms: C7_12  and  N5_13 
REMARK    3  A    between atoms: N5_13  and  C8_14 
REMARK    4  A    between atoms: C8_14  and  C9_15 
REMARK    5  A    between atoms: C10_16  and  C11_17 
ROOT
HETATM    1  C2  UNL     1      25.800  -0.375  53.253  1.00  0.00     0.037 A 
HETATM    2  C3  UNL     1      24.530  -0.626  53.718  1.00  0.00     0.032 A 
HETATM    3  C4  UNL     1      23.435   0.180  53.496  1.00  0.00     0.035 A 
HETATM    4  C5  UNL     1      23.625   1.324  52.750  1.00  0.00     0.072 A 
HETATM    5  N3  UNL     1      22.579   2.133  52.514  1.00  0.00    -0.241 NA
HETATM    6  C6  UNL     1      22.780   3.248  51.784  1.00  0.00     0.235 A 
HETATM    7  N4  UNL     1      24.008   3.520  51.316  1.00  0.00    -0.224 NA
HETATM    8  C7  UNL     1      25.081   2.754  51.519  1.00  0.00     0.137 A 
HETATM    9  C12 UNL     1      24.884   1.612  52.265  1.00  0.00     0.041 A 
HETATM   10  C13 UNL     1      25.928   0.780  52.516  1.00  0.00     0.047 A 
ENDROOT
BRANCH   1  11
HETATM   11  N2  UNL     1      26.951  -1.170  53.455  1.00  0.00    -0.309 N 
HETATM   12  C1  UNL     1      27.389  -2.327  52.774  1.00  0.00     0.318 C 
HETATM   13  N1  UNL     1      28.568  -3.057  53.056  1.00  0.00    -0.352 N 
HETATM   14  O1  UNL     1      26.677  -2.753  51.833  1.00  0.00    -0.247 OA
HETATM   15  H1  UNL     1      28.825  -3.426  54.002  1.00  0.00     0.160 HD
HETATM   16  H2  UNL     1      29.288  -3.294  52.340  1.00  0.00     0.160 HD
HETATM   17  H3  UNL     1      27.630  -0.925  54.208  1.00  0.00     0.170 HD
ENDBRANCH   1  11
BRANCH   8  18
HETATM   18  N5  UNL     1      26.332   3.141  50.978  1.00  0.00    -0.371 N 
HETATM   19  H7  UNL     1      27.184   3.421  51.476  1.00  0.00     0.161 HD
BRANCH  18  20
HETATM   20  C8  UNL     1      26.508   3.165  49.527  1.00  0.00     0.148 C 
BRANCH  20  21
HETATM   21  C9  UNL     1      27.275   4.345  49.078  1.00  0.00    -0.010 C 
HETATM   22  C10 UNL     1      26.738   5.514  48.845  1.00  0.00    -0.014 C 
BRANCH  22  23
HETATM   23  C11 UNL     1      25.331   5.965  48.950  1.00  0.00     0.141 C 
HETATM   24 CL1  UNL     1      25.103   6.737  50.538  1.00  0.00    -0.126 Cl
ENDBRANCH  22  23
ENDBRANCH  20  21
ENDBRANCH  18  20
ENDBRANCH   8  18
TORSDOF 5
ENDMDL
MODEL 2
REMARK VINA RESULT:      -7.2      2.782      3.148
REMARK  5 active torsions:
REMARK  status: ('A' for Active; 'I' for Inactive)
REMARK       I    between atoms: N1_1  and  C1_2 
REMARK       I    between atoms: C1_2  and  N2_4 
REMARK    1  A    between atoms: N2_4  and  C2_5 
REMARK    2  A    between atoms: C7_12  and  N5_13 
REMARK    3  A    between atoms: N5_13  and  C8_14 
REMARK    4  A    between atoms: C8_14  and  C9_15 
REMARK    5  A    between atoms: C10_16  and  C11_17 
ROOT
HETATM    1  C2  UNL     1      25.614   1.861  53.678  1.00  0.00     0.037 A 
HETATM    2  C3  UNL     1      24.884   0.710  53.498  1.00  0.00     0.032 A 
HETATM    3  C4  UNL     1      23.612   0.657  52.973  1.00  0.00     0.035 A 
HETATM    4  C5  UNL     1      23.024   1.847  52.600  1.00  0.00     0.072 A 
HETATM    5  N3  UNL     1      21.784   1.833  52.085  1.00  0.00    -0.241 NA
HETATM    6  C6  UNL     1      21.224   3.004  51.725  1.00  0.00     0.235 A 
HETATM    7  N4  UNL     1      21.911   4.145  51.888  1.00  0.00    -0.224 NA
HETATM    8  C7  UNL     1      23.143   4.219  52.393  1.00  0.00     0.137 A 
HETATM    9  C12 UNL     1      23.724   3.025  52.764  1.00  0.00     0.041 A 
HETATM   10  C13 UNL     1      24.978   3.016  53.287  1.00  0.00     0.047 A 
ENDROOT
BRANCH   1  11
HETATM   11  N2  UNL     1      26.920   1.965  54.210  1.00  0.00    -0.309 N 
HETATM   12  C1  UNL     1      28.144   2.253  53.568  1.00  0.00     0.318 C 
HETATM   13  N1  UNL     1      29.410   2.334  54.196  1.00  0.00    -0.352 N 
HETATM   14  O1  UNL     1      28.118   2.458  52.331  1.00  0.00    -0.247 OA
HETATM   15  H1  UNL     1      29.819   1.585  54.804  1.00  0.00     0.160 HD
HETATM   16  H2  UNL     1      30.049   3.152  54.107  1.00  0.00     0.160 HD
HETATM   17  H3  UNL     1      27.081   1.817  55.230  1.00  0.00     0.170 HD
ENDBRANCH   1  11
BRANCH   8  18
HETATM   18  N5  UNL     1      23.775   5.481  52.522  1.00  0.00    -0.371 N 
HETATM   19  H7  UNL     1      24.208   5.895  53.354  1.00  0.00     0.161 HD
BRANCH  18  20
HETATM   20  C8  UNL     1      23.860   6.361  51.359  1.00  0.00     0.148 C 
BRANCH  20  21
HETATM   21  C9  UNL     1      24.991   6.012  50.476  1.00  0.00    -0.010 C 
HETATM   22  C10 UNL     1      24.860   5.342  49.361  1.00  0.00    -0.014 C 
BRANCH  22  23
HETATM   23  C11 UNL     1      23.653   4.782  48.709  1.00  0.00     0.141 C 
HETATM   24 CL1  UNL     1      23.629   3.023  48.984  1.00  0.00    -0.126 Cl
ENDBRANCH  22  23
ENDBRANCH  20  21
ENDBRANCH  18  20
ENDBRANCH   8  18
TORSDOF 5
ENDMDL
MODEL 3
REMARK VINA RESULT:      -7.1      2.701      3.346
REMARK  5 active torsions:
REMARK  status: ('A' for Active; 'I' for Inactive)
REMARK       I    between atoms: N1_1  and  C1_2 
REMARK       I    between atoms: C1_2  and  N2_4 
REMARK    1  A    between atoms: N2_4  and  C2_5 
REMARK    2  A    between atoms: C7_12  and  N5_13 
REMARK    3  A    between atoms: N5_13  and  C8_14 
REMARK    4  A    between atoms: C8_14  and  C9_15 
REMARK    5  A    between atoms: C10_16  and  C11_17 
ROOT
HETATM    1  C2  UNL     1      24.371  -0.671  54.267  1.00  0.00     0.037 A 
HETATM    2  C3  UNL     1      23.381  -1.096  55.121  1.00  0.00     0.032 A 
HETATM    3  C4  UNL     1      22.034  -0.871  54.941  1.00  0.00     0.035 A 
HETATM    4  C5  UNL     1      21.648  -0.167  53.820  1.00  0.00     0.072 A 
HETATM    5  N3  UNL     1      20.343   0.071  53.613  1.00  0.00    -0.241 NA
HETATM    6  C6  UNL     1      19.981   0.760  52.513  1.00  0.00     0.235 A 
HETATM    7  N4  UNL     1      20.925   1.188  51.660  1.00  0.00    -0.224 NA
HETATM    8  C7  UNL     1      22.233   0.981  51.815  1.00  0.00     0.137 A 
HETATM    9  C12 UNL     1      22.612   0.277  52.938  1.00  0.00     0.041 A 
HETATM   10  C13 UNL     1      23.927   0.025  53.167  1.00  0.00     0.047 A 
ENDROOT
BRANCH   1  11
HETATM   11  N2  UNL     1      25.762  -0.878  54.409  1.00  0.00    -0.309 N 
HETATM   12  C1  UNL     1      26.787   0.028  54.755  1.00  0.00     0.318 C 
HETATM   13  N1  UNL     1      28.164  -0.281  54.871  1.00  0.00    -0.352 N 
HETATM   14  O1  UNL     1      26.459   1.218  54.984  1.00  0.00    -0.247 OA
HETATM   15  H1  UNL     1      28.730  -0.752  54.126  1.00  0.00     0.160 HD
HETATM   16  H2  UNL     1      28.737  -0.065  55.714  1.00  0.00     0.160 HD
HETATM   17  H3  UNL     1      26.169  -1.826  54.247  1.00  0.00     0.170 HD
ENDBRANCH   1  11
BRANCH   8  18
HETATM   18  N5  UNL     1      23.143   1.481  50.850  1.00  0.00    -0.371 N 
HETATM   19  H7  UNL     1      23.615   0.973  50.095  1.00  0.00     0.161 HD
BRANCH  18  20
HETATM   20  C8  UNL     1      23.500   2.898  50.871  1.00  0.00     0.148 C 
BRANCH  20  21
HETATM   21  C9  UNL     1      24.486   3.240  49.825  1.00  0.00    -0.010 C 
HETATM   22  C10 UNL     1      25.779   3.222  50.014  1.00  0.00    -0.014 C 
BRANCH  22  23
HETATM   23  C11 UNL     1      26.571   2.886  51.221  1.00  0.00     0.141 C 
HETATM   24 CL1  UNL     1      26.677   1.114  51.351  1.00  0.00    -0.126 Cl
ENDBRANCH  22  23
ENDBRANCH  20  21
ENDBRANCH  18  20
ENDBRANCH   8  18
TORSDOF 5
ENDMDL
MODEL 4
REMARK VINA RESULT:      -7.1      2.054      2.187
REMARK  5 active torsions:
REMARK  status: ('A' for Active; 'I' for Inactive)
REMARK       I    between atoms: N1_1  and  C1_2 
REMARK       I    between atoms: C1_2  and  N2_4 
REMARK    1  A    between atoms: N2_4  and  C2_5 
REMARK    2  A    between atoms: C7_12  and  N5_13 
REMARK    3  A    between atoms: N5_13  and  C8_14 
REMARK    4  A    between atoms: C8_14  and  C9_15 
REMARK    5  A    between atoms: C10_16  and  C11_17 
ROOT
HETATM    1  C2  UNL     1      26.416   0.238  52.903  1.00  0.00     0.037 A 
HETATM    2  C3  UNL     1      25.484  -0.650  53.385  1.00  0.00     0.032 A 
HETATM    3  C4  UNL     1      24.125  -0.427  53.418  1.00  0.00     0.035 A 
HETATM    4  C5  UNL     1      23.664   0.779  52.931  1.00  0.00     0.072 A 
HETATM    5  N3  UNL     1      22.345   1.031  52.949  1.00  0.00    -0.241 NA
HETATM    6  C6  UNL     1      21.909   2.212  52.470  1.00  0.00     0.235 A 
HETATM    7  N4  UNL     1      22.796   3.101  51.993  1.00  0.00    -0.224 NA
HETATM    8  C7  UNL     1      24.114   2.904  51.951  1.00  0.00     0.137 A 
HETATM    9  C12 UNL     1      24.568   1.697  52.440  1.00  0.00     0.041 A 
HETATM   10  C13 UNL     1      25.898   1.421  52.432  1.00  0.00     0.047 A 
ENDROOT
BRANCH   1  11
HETATM   11  N2  UNL     1      27.816   0.053  52.848  1.00  0.00    -0.309 N 
HETATM   12  C1  UNL     1      28.822   0.433  53.763  1.00  0.00     0.318 C 
HETATM   13  N1  UNL     1      30.210   0.200  53.613  1.00  0.00    -0.352 N 
HETATM   14  O1  UNL     1      28.463   1.032  54.806  1.00  0.00    -0.247 OA
HETATM   15  H1  UNL     1      30.770   0.473  52.771  1.00  0.00     0.160 HD
HETATM   16  H2  UNL     1      30.800  -0.267  54.335  1.00  0.00     0.160 HD
HETATM   17  H3  UNL     1      28.247  -0.433  52.031  1.00  0.00     0.170 HD
ENDBRANCH   1  11
BRANCH   8  18
HETATM   18  N5  UNL     1      24.958   3.914  51.427  1.00  0.00    -0.371 N 
HETATM   19  H7  UNL     1      25.531   4.595  51.937  1.00  0.00     0.161 HD
BRANCH  18  20
HETATM   20  C8  UNL     1      25.081   4.064  49.978  1.00  0.00     0.148 C 
BRANCH  20  21
HETATM   21  C9  UNL     1      26.410   3.649  49.485  1.00  0.00    -0.010 C 
HETATM   22  C10 UNL     1      27.251   4.459  48.898  1.00  0.00    -0.014 C 
BRANCH  22  23
HETATM   23  C11 UNL     1      27.135   5.902  48.580  1.00  0.00     0.141 C 
HETATM   24 CL1  UNL     1      28.687   6.457  47.907  1.00  0.00    -0.126 Cl
ENDBRANCH  22  23
ENDBRANCH  20  21
ENDBRANCH  18  20
ENDBRANCH   8  18
TORSDOF 5
ENDMDL
MODEL 5
REMARK VINA RESULT:      -6.9      2.557      3.887
REMARK  5 active torsions:
REMARK  status: ('A' for Active; 'I' for Inactive)
REMARK       I    between atoms: N1_1  and  C1_2 
REMARK       I    between atoms: C1_2  and  N2_4 
REMARK    1  A    between atoms: N2_4  and  C2_5 
REMARK    2  A    between atoms: C7_12  and  N5_13 
REMARK    3  A    between atoms: N5_13  and  C8_14 
REMARK    4  A    between atoms: C8_14  and  C9_15 
REMARK    5  A    between atoms: C10_16  and  C11_17 
ROOT
HETATM    1  C2  UNL     1      24.311  -0.188  53.858  1.00  0.00     0.037 A 
HETATM    2  C3  UNL     1      25.148  -0.577  54.877  1.00  0.00     0.032 A 
HETATM    3  C4  UNL     1      26.443  -0.138  55.045  1.00  0.00     0.035 A 
HETATM    4  C5  UNL     1      26.939   0.759  54.121  1.00  0.00     0.072 A 
HETATM    5  N3  UNL     1      28.197   1.207  54.254  1.00  0.00    -0.241 NA
HETATM    6  C6  UNL     1      28.667   2.083  53.344  1.00  0.00     0.235 A 
HETATM    7  N4  UNL     1      27.874   2.483  52.338  1.00  0.00    -0.224 NA
HETATM    8  C7  UNL     1      26.618   2.072  52.158  1.00  0.00     0.137 A 
HETATM    9  C12 UNL     1      26.129   1.174  53.084  1.00  0.00     0.041 A 
HETATM   10  C13 UNL     1      24.859   0.708  52.969  1.00  0.00     0.047 A 
ENDROOT
BRANCH   1  11
HETATM   11  N2  UNL     1      22.978  -0.608  53.646  1.00  0.00    -0.309 N 
HETATM   12  C1  UNL     1      22.079  -1.258  54.518  1.00  0.00     0.318 C 
HETATM   13  N1  UNL     1      20.752  -1.642  54.206  1.00  0.00    -0.352 N 
HETATM   14  O1  UNL     1      22.481  -1.524  55.677  1.00  0.00    -0.247 OA
HETATM   15  H1  UNL     1      20.482  -2.221  53.376  1.00  0.00     0.160 HD
HETATM   16  H2  UNL     1      19.923  -1.379  54.781  1.00  0.00     0.160 HD
HETATM   17  H3  UNL     1      22.520  -0.447  52.722  1.00  0.00     0.170 HD
ENDBRANCH   1  11
BRANCH   8  18
HETATM   18  N5  UNL     1      25.871   2.558  51.056  1.00  0.00    -0.371 N 
HETATM   19  H7  UNL     1      24.857   2.517  50.905  1.00  0.00     0.161 HD
BRANCH  18  20
HETATM   20  C8  UNL     1      26.568   3.218  49.954  1.00  0.00     0.148 C 
BRANCH  20  21
HETATM   21  C9  UNL     1      26.008   4.553  49.660  1.00  0.00    -0.010 C 
HETATM   22  C10 UNL     1      26.632   5.462  48.957  1.00  0.00    -0.014 C 
BRANCH  22  23
HETATM   23  C11 UNL     1      27.963   5.431  48.308  1.00  0.00     0.141 C 
HETATM   24 CL1  UNL     1      28.474   7.107  47.991  1.00  0.00    -0.126 Cl
ENDBRANCH  22  23
ENDBRANCH  20  21
ENDBRANCH  18  20
ENDBRANCH   8  18
TORSDOF 5
ENDMDL
MODEL 6
REMARK VINA RESULT:      -6.9      2.420      3.601
REMARK  5 active torsions:
REMARK  status: ('A' for Active; 'I' for Inactive)
REMARK       I    between atoms: N1_1  and  C1_2 
REMARK       I    between atoms: C1_2  and  N2_4 
REMARK    1  A    between atoms: N2_4  and  C2_5 
REMARK    2  A    between atoms: C7_12  and  N5_13 
REMARK    3  A    between atoms: N5_13  and  C8_14 
REMARK    4  A    between atoms: C8_14  and  C9_15 
REMARK    5  A    between atoms: C10_16  and  C11_17 
ROOT
HETATM    1  C2  UNL     1      25.322  -0.575  54.415  1.00  0.00     0.037 A 
HETATM    2  C3  UNL     1      24.768  -1.240  55.483  1.00  0.00     0.032 A 
HETATM    3  C4  UNL     1      23.422  -1.481  55.651  1.00  0.00     0.035 A 
HETATM    4  C5  UNL     1      22.564  -1.022  54.674  1.00  0.00     0.072 A 
HETATM    5  N3  UNL     1      21.245  -1.238  54.805  1.00  0.00    -0.241 NA
HETATM    6  C6  UNL     1      20.420  -0.783  53.843  1.00  0.00     0.235 A 
HETATM    7  N4  UNL     1      20.930  -0.131  52.787  1.00  0.00    -0.224 NA
HETATM    8  C7  UNL     1      22.228   0.113  52.605  1.00  0.00     0.137 A 
HETATM    9  C12 UNL     1      23.081  -0.349  53.586  1.00  0.00     0.041 A 
HETATM   10  C13 UNL     1      24.418  -0.141  53.473  1.00  0.00     0.047 A 
ENDROOT
BRANCH   1  11
HETATM   11  N2  UNL     1      26.692  -0.305  54.199  1.00  0.00    -0.309 N 
HETATM   12  C1  UNL     1      27.669  -1.052  53.505  1.00  0.00     0.318 C 
HETATM   13  N1  UNL     1      29.029  -0.692  53.345  1.00  0.00    -0.352 N 
HETATM   14  O1  UNL     1      27.309  -2.132  52.978  1.00  0.00    -0.247 OA
HETATM   15  H1  UNL     1      29.672  -0.443  54.133  1.00  0.00     0.160 HD
HETATM   16  H2  UNL     1      29.510  -0.645  52.422  1.00  0.00     0.160 HD
HETATM   17  H3  UNL     1      27.121   0.564  54.585  1.00  0.00     0.170 HD
ENDBRANCH   1  11
BRANCH   8  18
HETATM   18  N5  UNL     1      22.656   0.815  51.451  1.00  0.00    -0.371 N 
HETATM   19  H7  UNL     1      23.192   0.461  50.650  1.00  0.00     0.161 HD
BRANCH  18  20
HETATM   20  C8  UNL     1      22.328   2.232  51.312  1.00  0.00     0.148 C 
BRANCH  20  21
HETATM   21  C9  UNL     1      23.074   3.074  52.270  1.00  0.00    -0.010 C 
HETATM   22  C10 UNL     1      24.290   3.505  52.061  1.00  0.00    -0.014 C 
BRANCH  22  23
HETATM   23  C11 UNL     1      25.201   3.298  50.912  1.00  0.00     0.141 C 
HETATM   24 CL1  UNL     1      26.328   1.980  51.316  1.00  0.00    -0.126 Cl
ENDBRANCH  22  23
ENDBRANCH  20  21
ENDBRANCH  18  20
ENDBRANCH   8  18
TORSDOF 5
ENDMDL
MODEL 7
REMARK VINA RESULT:      -6.8      3.492      6.110
REMARK  5 active torsions:
REMARK  status: ('A' for Active; 'I' for Inactive)
REMARK       I    between atoms: N1_1  and  C1_2 
REMARK       I    between atoms: C1_2  and  N2_4 
REMARK    1  A    between atoms: N2_4  and  C2_5 
REMARK    2  A    between atoms: C7_12  and  N5_13 
REMARK    3  A    between atoms: N5_13  and  C8_14 
REMARK    4  A    between atoms: C8_14  and  C9_15 
REMARK    5  A    between atoms: C10_16  and  C11_17 
ROOT
HETATM    1  C2  UNL     1      23.115   4.291  52.433  1.00  0.00     0.037 A 
HETATM    2  C3  UNL     1      21.772   4.049  52.260  1.00  0.00     0.032 A 
HETATM    3  C4  UNL     1      21.178   2.809  52.338  1.00  0.00     0.035 A 
HETATM    4  C5  UNL     1      21.990   1.727  52.609  1.00  0.00     0.072 A 
HETATM    5  N3  UNL     1      21.444   0.503  52.691  1.00  0.00    -0.241 NA
HETATM    6  C6  UNL     1      22.249  -0.543  52.958  1.00  0.00     0.235 A 
HETATM    7  N4  UNL     1      23.565  -0.339  53.132  1.00  0.00    -0.224 NA
HETATM    8  C7  UNL     1      24.160   0.852  53.062  1.00  0.00     0.137 A 
HETATM    9  C12 UNL     1      23.343   1.929  52.790  1.00  0.00     0.041 A 
HETATM   10  C13 UNL     1      23.873   3.176  52.702  1.00  0.00     0.047 A 
ENDROOT
BRANCH   1  11
HETATM   11  N2  UNL     1      23.768   5.543  52.365  1.00  0.00    -0.309 N 
HETATM   12  C1  UNL     1      24.299   6.233  51.254  1.00  0.00     0.318 C 
HETATM   13  N1  UNL     1      24.941   7.494  51.290  1.00  0.00    -0.352 N 
HETATM   14  O1  UNL     1      24.196   5.689  50.127  1.00  0.00    -0.247 OA
HETATM   15  H1  UNL     1      25.748   7.730  51.916  1.00  0.00     0.160 HD
HETATM   16  H2  UNL     1      24.666   8.302  50.693  1.00  0.00     0.160 HD
HETATM   17  H3  UNL     1      23.919   6.102  53.233  1.00  0.00     0.170 HD
ENDBRANCH   1  11
BRANCH   8  18
HETATM   18  N5  UNL     1      25.559   0.951  53.261  1.00  0.00    -0.371 N 
HETATM   19  H7  UNL     1      26.150   1.789  53.234  1.00  0.00     0.161 HD
BRANCH  18  20
HETATM   20  C8  UNL     1      26.328  -0.258  53.549  1.00  0.00     0.148 C 
BRANCH  20  21
HETATM   21  C9  UNL     1      27.086  -0.150  54.813  1.00  0.00    -0.010 C 
HETATM   22  C10 UNL     1      28.293   0.344  54.895  1.00  0.00    -0.014 C 
BRANCH  22  23
HETATM   23  C11 UNL     1      29.183   0.891  53.844  1.00  0.00     0.141 C 
HETATM   24 CL1  UNL     1      28.761   2.601  53.583  1.00  0.00    -0.126 Cl
ENDBRANCH  22  23
ENDBRANCH  20  21
ENDBRANCH  18  20
ENDBRANCH   8  18
TORSDOF 5
ENDMDL
MODEL 8
REMARK VINA RESULT:      -6.7      2.818      3.403
REMARK  5 active torsions:
REMARK  status: ('A' for Active; 'I' for Inactive)
REMARK       I    between atoms: N1_1  and  C1_2 
REMARK       I    between atoms: C1_2  and  N2_4 
REMARK    1  A    between atoms: N2_4  and  C2_5 
REMARK    2  A    between atoms: C7_12  and  N5_13 
REMARK    3  A    between atoms: N5_13  and  C8_14 
REMARK    4  A    between atoms: C8_14  and  C9_15 
REMARK    5  A    between atoms: C10_16  and  C11_17 
ROOT
HETATM    1  C2  UNL     1      24.527  -0.734  54.383  1.00  0.00     0.037 A 
HETATM    2  C3  UNL     1      23.566  -1.267  55.209  1.00  0.00     0.032 A 
HETATM    3  C4  UNL     1      22.208  -1.103  55.049  1.00  0.00     0.035 A 
HETATM    4  C5  UNL     1      21.777  -0.345  53.980  1.00  0.00     0.072 A 
HETATM    5  N3  UNL     1      20.460  -0.163  53.794  1.00  0.00    -0.241 NA
HETATM    6  C6  UNL     1      20.055   0.579  52.745  1.00  0.00     0.235 A 
HETATM    7  N4  UNL     1      20.969   1.113  51.920  1.00  0.00    -0.224 NA
HETATM    8  C7  UNL     1      22.287   0.966  52.056  1.00  0.00     0.137 A 
HETATM    9  C12 UNL     1      22.710   0.208  53.127  1.00  0.00     0.041 A 
HETATM   10  C13 UNL     1      24.038   0.011  53.334  1.00  0.00     0.047 A 
ENDROOT
BRANCH   1  11
HETATM   11  N2  UNL     1      25.927  -0.876  54.505  1.00  0.00    -0.309 N 
HETATM   12  C1  UNL     1      26.917   0.085  54.805  1.00  0.00     0.318 C 
HETATM   13  N1  UNL     1      28.308  -0.161  54.905  1.00  0.00    -0.352 N 
HETATM   14  O1  UNL     1      26.541   1.265  55.003  1.00  0.00    -0.247 OA
HETATM   15  H1  UNL     1      28.882  -0.630  54.164  1.00  0.00     0.160 HD
HETATM   16  H2  UNL     1      28.885   0.106  55.730  1.00  0.00     0.160 HD
HETATM   17  H3  UNL     1      26.372  -1.810  54.365  1.00  0.00     0.170 HD
ENDBRANCH   1  11
BRANCH   8  18
HETATM   18  N5  UNL     1      23.162   1.578  51.124  1.00  0.00    -0.371 N 
HETATM   19  H7  UNL     1      23.688   1.140  50.360  1.00  0.00     0.161 HD
BRANCH  18  20
HETATM   20  C8  UNL     1      23.394   3.018  51.200  1.00  0.00     0.148 C 
BRANCH  20  21
HETATM   21  C9  UNL     1      24.355   3.484  50.180  1.00  0.00    -0.010 C 
HETATM   22  C10 UNL     1      24.023   3.773  48.949  1.00  0.00    -0.014 C 
BRANCH  22  23
HETATM   23  C11 UNL     1      22.707   3.725  48.270  1.00  0.00     0.141 C 
HETATM   24 CL1  UNL     1      22.493   2.102  47.570  1.00  0.00    -0.126 Cl
ENDBRANCH  22  23
ENDBRANCH  20  21
ENDBRANCH  18  20
ENDBRANCH   8  18
TORSDOF 5
ENDMDL
MODEL 9
REMARK VINA RESULT:      -6.6      4.650      6.843
REMARK  5 active torsions:
REMARK  status: ('A' for Active; 'I' for Inactive)
REMARK       I    between atoms: N1_1  and  C1_2 
REMARK       I    between atoms: C1_2  and  N2_4 
REMARK    1  A    between atoms: N2_4  and  C2_5 
REMARK    2  A    between atoms: C7_12  and  N5_13 
REMARK    3  A    between atoms: N5_13  and  C8_14 
REMARK    4  A    between atoms: C8_14  and  C9_15 
REMARK    5  A    between atoms: C10_16  and  C11_17 
ROOT
HETATM    1  C2  UNL     1      20.038   0.689  51.910  1.00  0.00     0.037 A 
HETATM    2  C3  UNL     1      19.247  -0.150  52.660  1.00  0.00     0.032 A 
HETATM    3  C4  UNL     1      19.699  -0.955  53.683  1.00  0.00     0.035 A 
HETATM    4  C5  UNL     1      21.046  -0.918  53.978  1.00  0.00     0.072 A 
HETATM    5  N3  UNL     1      21.521  -1.690  54.968  1.00  0.00    -0.241 NA
HETATM    6  C6  UNL     1      22.838  -1.643  55.245  1.00  0.00     0.235 A 
HETATM    7  N4  UNL     1      23.636  -0.834  54.531  1.00  0.00    -0.224 NA
HETATM    8  C7  UNL     1      23.220  -0.046  53.538  1.00  0.00     0.137 A 
HETATM    9  C12 UNL     1      21.873  -0.089  53.248  1.00  0.00     0.041 A 
HETATM   10  C13 UNL     1      21.371   0.684  52.250  1.00  0.00     0.047 A 
ENDROOT
BRANCH   1  11
HETATM   11  N2  UNL     1      19.621   1.532  50.855  1.00  0.00    -0.309 N 
HETATM   12  C1  UNL     1      19.059   2.826  50.892  1.00  0.00     0.318 C 
HETATM   13  N1  UNL     1      18.671   3.593  49.767  1.00  0.00    -0.352 N 
HETATM   14  O1  UNL     1      18.884   3.353  52.017  1.00  0.00    -0.247 OA
HETATM   15  H1  UNL     1      18.029   3.255  49.012  1.00  0.00     0.160 HD
HETATM   16  H2  UNL     1      18.993   4.569  49.593  1.00  0.00     0.160 HD
HETATM   17  H3  UNL     1      19.712   1.214  49.865  1.00  0.00     0.170 HD
ENDBRANCH   1  11
BRANCH   8  18
HETATM   18  N5  UNL     1      24.153   0.768  52.849  1.00  0.00    -0.371 N 
HETATM   19  H7  UNL     1      23.985   1.407  52.065  1.00  0.00     0.161 HD
BRANCH  18  20
HETATM   20  C8  UNL     1      25.557   0.748  53.254  1.00  0.00     0.148 C 
BRANCH  20  21
HETATM   21  C9  UNL     1      26.363  -0.176  52.430  1.00  0.00    -0.010 C 
HETATM   22  C10 UNL     1      27.547  -0.609  52.773  1.00  0.00    -0.014 C 
BRANCH  22  23
HETATM   23  C11 UNL     1      28.362  -0.331  53.979  1.00  0.00     0.141 C 
HETATM   24 CL1  UNL     1      30.000  -0.978  53.714  1.00  0.00    -0.126 Cl
ENDBRANCH  22  23
ENDBRANCH  20  21
ENDBRANCH  18  20
ENDBRANCH   8  18
TORSDOF 5
ENDMDL
