MODEL 1
REMARK VINA RESULT:     -10.0      0.000      0.000
REMARK  5 active torsions:
REMARK  status: ('A' for Active; 'I' for Inactive)
REMARK    1  A    between atoms: C5_5  and  N1_6 
REMARK       I    between atoms: N1_6  and  C6_7 
REMARK    2  A    between atoms: C6_7  and  C7_9 
REMARK    3  A    between atoms: C9_11  and  N2_12 
REMARK    4  A    between atoms: N2_12  and  C10_13 
REMARK    5  A    between atoms: C13_17  and  C14_18 
ROOT
HETATM    1  C7  UNL     1      24.596   3.642  50.358  1.00  0.00     0.031 C 
HETATM    2  C8  UNL     1      23.611   2.944  49.770  1.00  0.00     0.031 C 
HETATM    3  C9  UNL     1      22.386   3.220  49.018  1.00  0.00     0.112 A 
HETATM    4  C19 UNL     1      22.208   2.730  47.626  1.00  0.00     0.024 A 
HETATM    5  C20 UNL     1      22.607   4.023  47.810  1.00  0.00    -0.022 A 
HETATM    6  C21 UNL     1      23.033   5.420  47.631  1.00  0.00     0.010 C 
HETATM    7  C22 UNL     1      23.782   6.244  48.384  1.00  0.00     0.001 C 
HETATM    8  C23 UNL     1      24.470   6.095  49.662  1.00  0.00     0.001 C 
HETATM    9  C24 UNL     1      24.805   5.081  50.462  1.00  0.00     0.017 C 
ENDROOT
BRANCH   3  10
HETATM   10  N2  UNL     1      21.131   3.401  49.733  1.00  0.00    -0.202 N 
HETATM   11  H8  UNL     1      20.708   4.346  49.814  1.00  0.00     0.179 HD
BRANCH  10  12
HETATM   12  C10 UNL     1      20.493   2.274  50.318  1.00  0.00     0.724 A 
HETATM   13  N3  UNL     1      19.299   1.850  49.906  1.00  0.00    -0.075 NA
HETATM   14  C11 UNL     1      18.666   0.771  50.451  1.00  0.00     0.139 A 
HETATM   15  C12 UNL     1      19.328   0.104  51.487  1.00  0.00     0.053 A 
HETATM   16  C13 UNL     1      20.560   0.535  51.917  1.00  0.00     0.089 A 
HETATM   17  N5  UNL     1      21.115   1.607  51.326  1.00  0.00    -0.062 NA
BRANCH  16  18
HETATM   18  C14 UNL     1      21.313  -0.106  52.988  1.00  0.00     0.011 A 
HETATM   19  C15 UNL     1      22.684   0.048  53.001  1.00  0.00     0.017 A 
HETATM   20  C16 UNL     1      23.408  -0.560  54.022  1.00  0.00     0.020 A 
HETATM   21  C17 UNL     1      22.828  -1.313  55.024  1.00  0.00     0.116 A 
HETATM   22  N4  UNL     1      21.486  -1.428  54.958  1.00  0.00    -0.272 NA
HETATM   23  C18 UNL     1      20.746  -0.859  53.994  1.00  0.00     0.130 A 
ENDBRANCH  16  18
ENDBRANCH  10  12
ENDBRANCH   3  10
BRANCH   1  24
HETATM   24  C6  UNL     1      25.606   2.805  50.989  1.00  0.00     0.256 C 
HETATM   25  N1  UNL     1      25.614   2.189  52.270  1.00  0.00    -0.323 N 
HETATM   26  H6  UNL     1      24.759   2.376  52.838  1.00  0.00     0.169 HD
HETATM   27  O1  UNL     1      26.656   2.565  50.320  1.00  0.00    -0.267 OA
BRANCH  25  28
HETATM   28  C5  UNL     1      26.735   1.405  52.661  1.00  0.00     0.035 A 
HETATM   29  C4  UNL     1      27.866   2.035  53.190  1.00  0.00     0.030 A 
HETATM   30  C3  UNL     1      28.904   1.233  53.547  1.00  0.00     0.009 A 
HETATM   31  C2  UNL     1      28.927  -0.141  53.428  1.00  0.00    -0.062 A 
HETATM   32  C1  UNL     1      30.068  -1.009  53.820  1.00  0.00     0.048 C 
HETATM   33  C26 UNL     1      27.806  -0.760  52.904  1.00  0.00     0.009 A 
HETATM   34  C25 UNL     1      26.728   0.020  52.529  1.00  0.00     0.030 A 
ENDBRANCH  25  28
ENDBRANCH   1  24
TORSDOF 5
ENDMDL
MODEL 2
REMARK VINA RESULT:      -9.7      3.149      6.261
REMARK  5 active torsions:
REMARK  status: ('A' for Active; 'I' for Inactive)
REMARK    1  A    between atoms: C5_5  and  N1_6 
REMARK       I    between atoms: N1_6  and  C6_7 
REMARK    2  A    between atoms: C6_7  and  C7_9 
REMARK    3  A    between atoms: C9_11  and  N2_12 
REMARK    4  A    between atoms: N2_12  and  C10_13 
REMARK    5  A    between atoms: C13_17  and  C14_18 
ROOT
HETATM    1  C7  UNL     1      24.662   3.366  50.778  1.00  0.00     0.031 C 
HETATM    2  C8  UNL     1      24.016   4.106  51.693  1.00  0.00     0.031 C 
HETATM    3  C9  UNL     1      22.937   5.096  51.722  1.00  0.00     0.112 A 
HETATM    4  C19 UNL     1      21.691   4.856  52.497  1.00  0.00     0.024 A 
HETATM    5  C20 UNL     1      21.677   4.606  51.155  1.00  0.00    -0.022 A 
HETATM    6  C21 UNL     1      21.303   4.238  49.780  1.00  0.00     0.010 C 
HETATM    7  C22 UNL     1      22.017   3.776  48.738  1.00  0.00     0.001 C 
HETATM    8  C23 UNL     1      23.426   3.454  48.546  1.00  0.00     0.001 C 
HETATM    9  C24 UNL     1      24.491   3.286  49.333  1.00  0.00     0.017 C 
ENDROOT
BRANCH   3  10
HETATM   10  N2  UNL     1      23.254   6.507  51.557  1.00  0.00    -0.202 N 
HETATM   11  H8  UNL     1      23.113   7.169  52.344  1.00  0.00     0.179 HD
BRANCH  10  12
HETATM   12  C10 UNL     1      23.758   6.966  50.309  1.00  0.00     0.724 A 
HETATM   13  N3  UNL     1      22.989   7.622  49.440  1.00  0.00    -0.075 NA
HETATM   14  C11 UNL     1      23.449   8.074  48.238  1.00  0.00     0.139 A 
HETATM   15  C12 UNL     1      24.791   7.818  47.935  1.00  0.00     0.053 A 
HETATM   16  C13 UNL     1      25.589   7.141  48.826  1.00  0.00     0.089 A 
HETATM   17  N5  UNL     1      25.058   6.731  49.990  1.00  0.00    -0.062 NA
BRANCH  16  18
HETATM   18  C14 UNL     1      26.993   6.837  48.585  1.00  0.00     0.011 A 
HETATM   19  C15 UNL     1      27.379   5.513  48.568  1.00  0.00     0.017 A 
HETATM   20  C16 UNL     1      28.719   5.217  48.337  1.00  0.00     0.020 A 
HETATM   21  C17 UNL     1      29.686   6.178  48.125  1.00  0.00     0.116 A 
HETATM   22  N4  UNL     1      29.250   7.455  48.153  1.00  0.00    -0.272 NA
HETATM   23  C18 UNL     1      27.968   7.788  48.371  1.00  0.00     0.130 A 
ENDBRANCH  16  18
ENDBRANCH  10  12
ENDBRANCH   3  10
BRANCH   1  24
HETATM   24  C6  UNL     1      25.698   2.514  51.345  1.00  0.00     0.256 C 
HETATM   25  N1  UNL     1      25.732   1.814  52.581  1.00  0.00    -0.323 N 
HETATM   26  H6  UNL     1      24.878   1.940  53.166  1.00  0.00     0.169 HD
HETATM   27  O1  UNL     1      26.748   2.348  50.654  1.00  0.00    -0.267 OA
BRANCH  25  28
HETATM   28  C5  UNL     1      26.876   1.035  52.911  1.00  0.00     0.035 A 
HETATM   29  C4  UNL     1      27.999   1.660  53.463  1.00  0.00     0.030 A 
HETATM   30  C3  UNL     1      29.061   0.863  53.759  1.00  0.00     0.009 A 
HETATM   31  C2  UNL     1      29.114  -0.500  53.558  1.00  0.00    -0.062 A 
HETATM   32  C1  UNL     1      30.280  -1.363  53.884  1.00  0.00     0.048 C 
HETATM   33  C26 UNL     1      28.000  -1.113  53.011  1.00  0.00     0.009 A 
HETATM   34  C25 UNL     1      26.899  -0.339  52.697  1.00  0.00     0.030 A 
ENDBRANCH  25  28
ENDBRANCH   1  24
TORSDOF 5
ENDMDL
MODEL 3
REMARK VINA RESULT:      -9.5      2.468      4.734
REMARK  5 active torsions:
REMARK  status: ('A' for Active; 'I' for Inactive)
REMARK    1  A    between atoms: C5_5  and  N1_6 
REMARK       I    between atoms: N1_6  and  C6_7 
REMARK    2  A    between atoms: C6_7  and  C7_9 
REMARK    3  A    between atoms: C9_11  and  N2_12 
REMARK    4  A    between atoms: N2_12  and  C10_13 
REMARK    5  A    between atoms: C13_17  and  C14_18 
ROOT
HETATM    1  C7  UNL     1      23.005   3.754  50.267  1.00  0.00     0.031 C 
HETATM    2  C8  UNL     1      22.402   2.902  49.422  1.00  0.00     0.031 C 
HETATM    3  C9  UNL     1      21.246   2.004  49.429  1.00  0.00     0.112 A 
HETATM    4  C19 UNL     1      20.126   2.181  48.469  1.00  0.00     0.024 A 
HETATM    5  C20 UNL     1      19.980   2.680  49.731  1.00  0.00    -0.022 A 
HETATM    6  C21 UNL     1      19.487   3.326  50.958  1.00  0.00     0.010 C 
HETATM    7  C22 UNL     1      20.117   3.924  51.985  1.00  0.00     0.001 C 
HETATM    8  C23 UNL     1      21.519   4.176  52.299  1.00  0.00     0.001 C 
HETATM    9  C24 UNL     1      22.678   4.117  51.640  1.00  0.00     0.017 C 
ENDROOT
BRANCH   3  10
HETATM   10  N2  UNL     1      21.408   0.630  49.883  1.00  0.00    -0.202 N 
HETATM   11  H8  UNL     1      21.393  -0.151  49.199  1.00  0.00     0.179 HD
BRANCH  10  12
HETATM   12  C10 UNL     1      21.589   0.371  51.269  1.00  0.00     0.724 A 
HETATM   13  N3  UNL     1      20.568   0.048  52.062  1.00  0.00    -0.075 NA
HETATM   14  C11 UNL     1      20.715  -0.206  53.394  1.00  0.00     0.139 A 
HETATM   15  C12 UNL     1      22.008  -0.112  53.919  1.00  0.00     0.053 A 
HETATM   16  C13 UNL     1      23.066   0.222  53.108  1.00  0.00     0.089 A 
HETATM   17  N5  UNL     1      22.835   0.456  51.804  1.00  0.00    -0.062 NA
BRANCH  16  18
HETATM   18  C14 UNL     1      24.440   0.339  53.577  1.00  0.00     0.011 A 
HETATM   19  C15 UNL     1      25.107   1.525  53.349  1.00  0.00     0.017 A 
HETATM   20  C16 UNL     1      26.420   1.642  53.796  1.00  0.00     0.020 A 
HETATM   21  C17 UNL     1      27.093   0.634  54.457  1.00  0.00     0.116 A 
HETATM   22  N4  UNL     1      26.390  -0.501  54.651  1.00  0.00    -0.272 NA
HETATM   23  C18 UNL     1      25.123  -0.660  54.239  1.00  0.00     0.130 A 
ENDBRANCH  16  18
ENDBRANCH  10  12
ENDBRANCH   3  10
BRANCH   1  24
HETATM   24  C6  UNL     1      24.175   4.408  49.697  1.00  0.00     0.256 C 
HETATM   25  N1  UNL     1      25.410   4.763  50.303  1.00  0.00    -0.323 N 
HETATM   26  H6  UNL     1      25.476   4.516  51.315  1.00  0.00     0.169 HD
HETATM   27  O1  UNL     1      24.119   4.722  48.470  1.00  0.00    -0.267 OA
BRANCH  25  28
HETATM   28  C5  UNL     1      26.413   5.403  49.522  1.00  0.00     0.035 A 
HETATM   29  C4  UNL     1      26.345   6.784  49.309  1.00  0.00     0.030 A 
HETATM   30  C3  UNL     1      27.332   7.337  48.555  1.00  0.00     0.009 A 
HETATM   31  C2  UNL     1      28.385   6.648  47.991  1.00  0.00    -0.062 A 
HETATM   32  C1  UNL     1      29.459   7.263  47.168  1.00  0.00     0.048 C 
HETATM   33  C26 UNL     1      28.448   5.283  48.204  1.00  0.00     0.009 A 
HETATM   34  C25 UNL     1      27.464   4.681  48.965  1.00  0.00     0.030 A 
ENDBRANCH  25  28
ENDBRANCH   1  24
TORSDOF 5
ENDMDL
MODEL 4
REMARK VINA RESULT:      -9.3      1.831      2.971
REMARK  5 active torsions:
REMARK  status: ('A' for Active; 'I' for Inactive)
REMARK    1  A    between atoms: C5_5  and  N1_6 
REMARK       I    between atoms: N1_6  and  C6_7 
REMARK    2  A    between atoms: C6_7  and  C7_9 
REMARK    3  A    between atoms: C9_11  and  N2_12 
REMARK    4  A    between atoms: N2_12  and  C10_13 
REMARK    5  A    between atoms: C13_17  and  C14_18 
ROOT
HETATM    1  C7  UNL     1      23.291   2.368  51.125  1.00  0.00     0.031 C 
HETATM    2  C8  UNL     1      23.325   2.636  49.810  1.00  0.00     0.031 C 
HETATM    3  C9  UNL     1      22.443   3.222  48.799  1.00  0.00     0.112 A 
HETATM    4  C19 UNL     1      22.839   4.438  48.042  1.00  0.00     0.024 A 
HETATM    5  C20 UNL     1      22.012   4.588  49.118  1.00  0.00    -0.022 A 
HETATM    6  C21 UNL     1      21.143   5.113  50.183  1.00  0.00     0.010 C 
HETATM    7  C22 UNL     1      20.858   4.674  51.421  1.00  0.00     0.001 C 
HETATM    8  C23 UNL     1      21.284   3.520  52.204  1.00  0.00     0.001 C 
HETATM    9  C24 UNL     1      22.240   2.594  52.111  1.00  0.00     0.017 C 
ENDROOT
BRANCH   3  10
HETATM   10  N2  UNL     1      21.512   2.367  48.077  1.00  0.00    -0.202 N 
HETATM   11  H8  UNL     1      21.825   1.855  47.229  1.00  0.00     0.179 HD
BRANCH  10  12
HETATM   12  C10 UNL     1      20.176   2.240  48.544  1.00  0.00     0.724 A 
HETATM   13  N3  UNL     1      19.168   2.906  47.981  1.00  0.00    -0.075 NA
HETATM   14  C11 UNL     1      17.878   2.801  48.410  1.00  0.00     0.139 A 
HETATM   15  C12 UNL     1      17.637   1.949  49.494  1.00  0.00     0.053 A 
HETATM   16  C13 UNL     1      18.671   1.260  50.081  1.00  0.00     0.089 A 
HETATM   17  N5  UNL     1      19.915   1.420  49.596  1.00  0.00    -0.062 NA
BRANCH  16  18
HETATM   18  C14 UNL     1      18.502   0.355  51.210  1.00  0.00     0.011 A 
HETATM   19  C15 UNL     1      17.308  -0.326  51.326  1.00  0.00     0.017 A 
HETATM   20  C16 UNL     1      17.142  -1.192  52.401  1.00  0.00     0.020 A 
HETATM   21  C17 UNL     1      18.109  -1.408  53.363  1.00  0.00     0.116 A 
HETATM   22  N4  UNL     1      19.255  -0.716  53.197  1.00  0.00    -0.272 NA
HETATM   23  C18 UNL     1      19.461   0.130  52.175  1.00  0.00     0.130 A 
ENDBRANCH  16  18
ENDBRANCH  10  12
ENDBRANCH   3  10
BRANCH   1  24
HETATM   24  C6  UNL     1      24.510   1.749  51.625  1.00  0.00     0.256 C 
HETATM   25  N1  UNL     1      24.699   0.831  52.693  1.00  0.00    -0.323 N 
HETATM   26  H6  UNL     1      23.820   0.570  53.192  1.00  0.00     0.169 HD
HETATM   27  O1  UNL     1      25.592   2.053  51.038  1.00  0.00    -0.267 OA
BRANCH  25  28
HETATM   28  C5  UNL     1      26.010   0.364  52.989  1.00  0.00     0.035 A 
HETATM   29  C4  UNL     1      26.428  -0.876  52.493  1.00  0.00     0.030 A 
HETATM   30  C3  UNL     1      27.692  -1.268  52.809  1.00  0.00     0.009 A 
HETATM   31  C2  UNL     1      28.583  -0.544  53.573  1.00  0.00    -0.062 A 
HETATM   32  C1  UNL     1      29.962  -0.982  53.913  1.00  0.00     0.048 C 
HETATM   33  C26 UNL     1      28.164   0.681  54.061  1.00  0.00     0.009 A 
HETATM   34  C25 UNL     1      26.887   1.117  53.762  1.00  0.00     0.030 A 
ENDBRANCH  25  28
ENDBRANCH   1  24
TORSDOF 5
ENDMDL
MODEL 5
REMARK VINA RESULT:      -9.2      4.157      5.883
REMARK  5 active torsions:
REMARK  status: ('A' for Active; 'I' for Inactive)
REMARK    1  A    between atoms: C5_5  and  N1_6 
REMARK       I    between atoms: N1_6  and  C6_7 
REMARK    2  A    between atoms: C6_7  and  C7_9 
REMARK    3  A    between atoms: C9_11  and  N2_12 
REMARK    4  A    between atoms: N2_12  and  C10_13 
REMARK    5  A    between atoms: C13_17  and  C14_18 
ROOT
HETATM    1  C7  UNL     1      26.742   5.874  48.977  1.00  0.00     0.031 C 
HETATM    2  C8  UNL     1      26.199   4.705  49.350  1.00  0.00     0.031 C 
HETATM    3  C9  UNL     1      24.890   4.203  49.773  1.00  0.00     0.112 A 
HETATM    4  C19 UNL     1      24.185   3.144  49.006  1.00  0.00     0.024 A 
HETATM    5  C20 UNL     1      23.825   4.444  48.794  1.00  0.00    -0.022 A 
HETATM    6  C21 UNL     1      23.196   5.687  48.322  1.00  0.00     0.010 C 
HETATM    7  C22 UNL     1      23.643   6.952  48.232  1.00  0.00     0.001 C 
HETATM    8  C23 UNL     1      24.909   7.600  48.555  1.00  0.00     0.001 C 
HETATM    9  C24 UNL     1      26.146   7.199  48.853  1.00  0.00     0.017 C 
ENDROOT
BRANCH   3  10
HETATM   10  N2  UNL     1      24.535   4.230  51.185  1.00  0.00    -0.202 N 
HETATM   11  H8  UNL     1      24.281   5.127  51.642  1.00  0.00     0.179 HD
BRANCH  10  12
HETATM   12  C10 UNL     1      24.537   3.018  51.928  1.00  0.00     0.724 A 
HETATM   13  N3  UNL     1      23.408   2.449  52.348  1.00  0.00    -0.075 NA
HETATM   14  C11 UNL     1      23.384   1.287  53.062  1.00  0.00     0.139 A 
HETATM   15  C12 UNL     1      24.618   0.693  53.349  1.00  0.00     0.053 A 
HETATM   16  C13 UNL     1      25.787   1.274  52.919  1.00  0.00     0.089 A 
HETATM   17  N5  UNL     1      25.723   2.420  52.220  1.00  0.00    -0.062 NA
BRANCH  16  18
HETATM   18  C14 UNL     1      27.109   0.718  53.176  1.00  0.00     0.011 A 
HETATM   19  C15 UNL     1      27.304  -0.629  52.950  1.00  0.00     0.017 A 
HETATM   20  C16 UNL     1      28.565  -1.165  53.192  1.00  0.00     0.020 A 
HETATM   21  C17 UNL     1      29.634  -0.421  53.649  1.00  0.00     0.116 A 
HETATM   22  N4  UNL     1      29.384   0.889  53.851  1.00  0.00    -0.272 NA
HETATM   23  C18 UNL     1      28.185   1.450  53.631  1.00  0.00     0.130 A 
ENDBRANCH  16  18
ENDBRANCH  10  12
ENDBRANCH   3  10
BRANCH   1  24
HETATM   24  C6  UNL     1      28.158   5.780  48.650  1.00  0.00     0.256 C 
HETATM   25  N1  UNL     1      29.186   6.756  48.747  1.00  0.00    -0.323 N 
HETATM   26  H6  UNL     1      28.864   7.681  49.105  1.00  0.00     0.169 HD
HETATM   27  O1  UNL     1      28.575   4.666  48.209  1.00  0.00    -0.267 OA
BRANCH  25  28
HETATM   28  C5  UNL     1      30.513   6.414  48.361  1.00  0.00     0.035 A 
HETATM   29  C4  UNL     1      31.419   5.971  49.331  1.00  0.00     0.030 A 
HETATM   30  C3  UNL     1      32.671   5.658  48.901  1.00  0.00     0.009 A 
HETATM   31  C2  UNL     1      33.111   5.744  47.597  1.00  0.00    -0.062 A 
HETATM   32  C1  UNL     1      34.482   5.400  47.137  1.00  0.00     0.048 C 
HETATM   33  C26 UNL     1      32.210   6.182  46.642  1.00  0.00     0.009 A 
HETATM   34  C25 UNL     1      30.927   6.510  47.037  1.00  0.00     0.030 A 
ENDBRANCH  25  28
ENDBRANCH   1  24
TORSDOF 5
ENDMDL
MODEL 6
REMARK VINA RESULT:      -9.2      2.289      6.254
REMARK  5 active torsions:
REMARK  status: ('A' for Active; 'I' for Inactive)
REMARK    1  A    between atoms: C5_5  and  N1_6 
REMARK       I    between atoms: N1_6  and  C6_7 
REMARK    2  A    between atoms: C6_7  and  C7_9 
REMARK    3  A    between atoms: C9_11  and  N2_12 
REMARK    4  A    between atoms: N2_12  and  C10_13 
REMARK    5  A    between atoms: C13_17  and  C14_18 
ROOT
HETATM    1  C7  UNL     1      21.521   2.601  50.045  1.00  0.00     0.031 C 
HETATM    2  C8  UNL     1      21.482   3.780  50.688  1.00  0.00     0.031 C 
HETATM    3  C9  UNL     1      22.017   5.131  50.508  1.00  0.00     0.112 A 
HETATM    4  C19 UNL     1      21.116   6.306  50.377  1.00  0.00     0.024 A 
HETATM    5  C20 UNL     1      21.625   5.752  49.238  1.00  0.00    -0.022 A 
HETATM    6  C21 UNL     1      21.972   5.428  47.845  1.00  0.00     0.010 C 
HETATM    7  C22 UNL     1      22.321   4.279  47.240  1.00  0.00     0.001 C 
HETATM    8  C23 UNL     1      22.493   2.908  47.705  1.00  0.00     0.001 C 
HETATM    9  C24 UNL     1      22.187   2.219  48.807  1.00  0.00     0.017 C 
ENDROOT
BRANCH   3  10
HETATM   10  N2  UNL     1      23.326   5.462  51.051  1.00  0.00    -0.202 N 
HETATM   11  H8  UNL     1      23.470   6.359  51.554  1.00  0.00     0.179 HD
BRANCH  10  12
HETATM   12  C10 UNL     1      24.401   4.547  50.886  1.00  0.00     0.724 A 
HETATM   13  N3  UNL     1      25.218   4.605  49.835  1.00  0.00    -0.075 NA
HETATM   14  C11 UNL     1      26.256   3.739  49.655  1.00  0.00     0.139 A 
HETATM   15  C12 UNL     1      26.442   2.757  50.635  1.00  0.00     0.053 A 
HETATM   16  C13 UNL     1      25.602   2.691  51.721  1.00  0.00     0.089 A 
HETATM   17  N5  UNL     1      24.603   3.583  51.823  1.00  0.00    -0.062 NA
BRANCH  16  18
HETATM   18  C14 UNL     1      25.730   1.701  52.782  1.00  0.00     0.011 A 
HETATM   19  C15 UNL     1      24.905   0.596  52.744  1.00  0.00     0.017 A 
HETATM   20  C16 UNL     1      25.023  -0.353  53.755  1.00  0.00     0.020 A 
HETATM   21  C17 UNL     1      25.922  -0.249  54.797  1.00  0.00     0.116 A 
HETATM   22  N4  UNL     1      26.701   0.852  54.781  1.00  0.00    -0.272 NA
HETATM   23  C18 UNL     1      26.624   1.793  53.827  1.00  0.00     0.130 A 
ENDBRANCH  16  18
ENDBRANCH  10  12
ENDBRANCH   3  10
BRANCH   1  24
HETATM   24  C6  UNL     1      20.770   1.549  50.716  1.00  0.00     0.256 C 
HETATM   25  N1  UNL     1      19.966   1.602  51.886  1.00  0.00    -0.323 N 
HETATM   26  H6  UNL     1      19.915   2.546  52.327  1.00  0.00     0.169 HD
HETATM   27  O1  UNL     1      20.818   0.390  50.202  1.00  0.00    -0.267 OA
BRANCH  25  28
HETATM   28  C5  UNL     1      19.325   0.418  52.347  1.00  0.00     0.035 A 
HETATM   29  C4  UNL     1      18.057   0.085  51.857  1.00  0.00     0.030 A 
HETATM   30  C3  UNL     1      17.496  -1.058  52.335  1.00  0.00     0.009 A 
HETATM   31  C2  UNL     1      18.076  -1.905  53.256  1.00  0.00    -0.062 A 
HETATM   32  C1  UNL     1      17.454  -3.153  53.773  1.00  0.00     0.048 C 
HETATM   33  C26 UNL     1      19.330  -1.571  53.737  1.00  0.00     0.009 A 
HETATM   34  C25 UNL     1      19.935  -0.417  53.276  1.00  0.00     0.030 A 
ENDBRANCH  25  28
ENDBRANCH   1  24
TORSDOF 5
ENDMDL
MODEL 7
REMARK VINA RESULT:      -9.2      2.716      7.170
REMARK  5 active torsions:
REMARK  status: ('A' for Active; 'I' for Inactive)
REMARK    1  A    between atoms: C5_5  and  N1_6 
REMARK       I    between atoms: N1_6  and  C6_7 
REMARK    2  A    between atoms: C6_7  and  C7_9 
REMARK    3  A    between atoms: C9_11  and  N2_12 
REMARK    4  A    between atoms: N2_12  and  C10_13 
REMARK    5  A    between atoms: C13_17  and  C14_18 
ROOT
HETATM    1  C7  UNL     1      21.234   3.320  51.002  1.00  0.00     0.031 C 
HETATM    2  C8  UNL     1      21.881   4.347  51.577  1.00  0.00     0.031 C 
HETATM    3  C9  UNL     1      23.228   4.922  51.567  1.00  0.00     0.112 A 
HETATM    4  C19 UNL     1      23.465   6.321  51.125  1.00  0.00     0.024 A 
HETATM    5  C20 UNL     1      23.687   5.314  50.230  1.00  0.00    -0.022 A 
HETATM    6  C21 UNL     1      24.018   4.516  49.039  1.00  0.00     0.010 C 
HETATM    7  C22 UNL     1      23.594   3.318  48.603  1.00  0.00     0.001 C 
HETATM    8  C23 UNL     1      22.648   2.335  49.118  1.00  0.00     0.001 C 
HETATM    9  C24 UNL     1      21.706   2.310  50.064  1.00  0.00     0.017 C 
ENDROOT
BRANCH   3  10
HETATM   10  N2  UNL     1      24.222   4.436  52.512  1.00  0.00    -0.202 N 
HETATM   11  H8  UNL     1      24.673   5.093  53.179  1.00  0.00     0.179 HD
BRANCH  10  12
HETATM   12  C10 UNL     1      24.568   3.057  52.514  1.00  0.00     0.724 A 
HETATM   13  N3  UNL     1      25.743   2.627  52.057  1.00  0.00    -0.075 NA
HETATM   14  C11 UNL     1      26.098   1.310  52.048  1.00  0.00     0.139 A 
HETATM   15  C12 UNL     1      25.162   0.397  52.546  1.00  0.00     0.053 A 
HETATM   16  C13 UNL     1      23.948   0.833  53.018  1.00  0.00     0.089 A 
HETATM   17  N5  UNL     1      23.676   2.150  52.992  1.00  0.00    -0.062 NA
BRANCH  16  18
HETATM   18  C14 UNL     1      22.922  -0.052  53.553  1.00  0.00     0.011 A 
HETATM   19  C15 UNL     1      21.653   0.023  53.018  1.00  0.00     0.017 A 
HETATM   20  C16 UNL     1      20.670  -0.821  53.525  1.00  0.00     0.020 A 
HETATM   21  C17 UNL     1      20.895  -1.733  54.537  1.00  0.00     0.116 A 
HETATM   22  N4  UNL     1      22.155  -1.761  55.020  1.00  0.00    -0.272 NA
HETATM   23  C18 UNL     1      23.136  -0.967  54.563  1.00  0.00     0.130 A 
ENDBRANCH  16  18
ENDBRANCH  10  12
ENDBRANCH   3  10
BRANCH   1  24
HETATM   24  C6  UNL     1      19.836   3.219  51.398  1.00  0.00     0.256 C 
HETATM   25  N1  UNL     1      18.661   3.173  50.601  1.00  0.00    -0.323 N 
HETATM   26  H6  UNL     1      18.839   3.224  49.574  1.00  0.00     0.169 HD
HETATM   27  O1  UNL     1      19.592   3.160  52.641  1.00  0.00    -0.267 OA
BRANCH  25  28
HETATM   28  C5  UNL     1      17.391   3.070  51.234  1.00  0.00     0.035 A 
HETATM   29  C4  UNL     1      16.751   4.229  51.688  1.00  0.00     0.030 A 
HETATM   30  C3  UNL     1      15.540   4.066  52.284  1.00  0.00     0.009 A 
HETATM   31  C2  UNL     1      14.900   2.859  52.473  1.00  0.00    -0.062 A 
HETATM   32  C1  UNL     1      13.575   2.692  53.126  1.00  0.00     0.048 C 
HETATM   33  C26 UNL     1      15.537   1.717  52.022  1.00  0.00     0.009 A 
HETATM   34  C25 UNL     1      16.770   1.838  51.410  1.00  0.00     0.030 A 
ENDBRANCH  25  28
ENDBRANCH   1  24
TORSDOF 5
ENDMDL
MODEL 8
REMARK VINA RESULT:      -9.1      4.072      7.634
REMARK  5 active torsions:
REMARK  status: ('A' for Active; 'I' for Inactive)
REMARK    1  A    between atoms: C5_5  and  N1_6 
REMARK       I    between atoms: N1_6  and  C6_7 
REMARK    2  A    between atoms: C6_7  and  C7_9 
REMARK    3  A    between atoms: C9_11  and  N2_12 
REMARK    4  A    between atoms: N2_12  and  C10_13 
REMARK    5  A    between atoms: C13_17  and  C14_18 
ROOT
HETATM    1  C7  UNL     1      24.983   4.180  49.965  1.00  0.00     0.031 C 
HETATM    2  C8  UNL     1      25.168   5.466  50.304  1.00  0.00     0.031 C 
HETATM    3  C9  UNL     1      24.612   6.772  49.948  1.00  0.00     0.112 A 
HETATM    4  C19 UNL     1      23.960   7.637  50.966  1.00  0.00     0.024 A 
HETATM    5  C20 UNL     1      23.165   6.871  50.162  1.00  0.00    -0.022 A 
HETATM    6  C21 UNL     1      22.032   6.207  49.499  1.00  0.00     0.010 C 
HETATM    7  C22 UNL     1      21.915   5.024  48.871  1.00  0.00     0.001 C 
HETATM    8  C23 UNL     1      22.842   3.932  48.597  1.00  0.00     0.001 C 
HETATM    9  C24 UNL     1      24.058   3.575  49.015  1.00  0.00     0.017 C 
ENDROOT
BRANCH   3  10
HETATM   10  N2  UNL     1      25.187   7.518  48.837  1.00  0.00    -0.202 N 
HETATM   11  H8  UNL     1      24.636   7.671  47.970  1.00  0.00     0.179 HD
BRANCH  10  12
HETATM   12  C10 UNL     1      26.507   8.032  48.952  1.00  0.00     0.724 A 
HETATM   13  N3  UNL     1      26.748   9.243  49.454  1.00  0.00    -0.075 NA
HETATM   14  C11 UNL     1      28.005   9.759  49.575  1.00  0.00     0.139 A 
HETATM   15  C12 UNL     1      29.065   8.956  49.141  1.00  0.00     0.053 A 
HETATM   16  C13 UNL     1      28.824   7.706  48.622  1.00  0.00     0.089 A 
HETATM   17  N5  UNL     1      27.555   7.272  48.538  1.00  0.00    -0.062 NA
BRANCH  16  18
HETATM   18  C14 UNL     1      29.872   6.811  48.150  1.00  0.00     0.011 A 
HETATM   19  C15 UNL     1      31.063   7.366  47.729  1.00  0.00     0.017 A 
HETATM   20  C16 UNL     1      32.068   6.515  47.279  1.00  0.00     0.020 A 
HETATM   21  C17 UNL     1      31.938   5.142  47.230  1.00  0.00     0.116 A 
HETATM   22  N4  UNL     1      30.753   4.657  47.654  1.00  0.00    -0.272 NA
HETATM   23  C18 UNL     1      29.755   5.438  48.097  1.00  0.00     0.130 A 
ENDBRANCH  16  18
ENDBRANCH  10  12
ENDBRANCH   3  10
BRANCH   1  24
HETATM   24  C6  UNL     1      25.862   3.259  50.673  1.00  0.00     0.256 C 
HETATM   25  N1  UNL     1      25.805   2.788  52.012  1.00  0.00    -0.323 N 
HETATM   26  H6  UNL     1      25.007   3.170  52.566  1.00  0.00     0.169 HD
HETATM   27  O1  UNL     1      26.841   2.783  50.023  1.00  0.00    -0.267 OA
BRANCH  25  28
HETATM   28  C5  UNL     1      26.795   1.876  52.474  1.00  0.00     0.035 A 
HETATM   29  C4  UNL     1      27.945   2.368  53.102  1.00  0.00     0.030 A 
HETATM   30  C3  UNL     1      28.854   1.448  53.522  1.00  0.00     0.009 A 
HETATM   31  C2  UNL     1      28.730   0.082  53.379  1.00  0.00    -0.062 A 
HETATM   32  C1  UNL     1      29.731  -0.915  53.843  1.00  0.00     0.048 C 
HETATM   33  C26 UNL     1      27.591  -0.398  52.758  1.00  0.00     0.009 A 
HETATM   34  C25 UNL     1      26.642   0.503  52.316  1.00  0.00     0.030 A 
ENDBRANCH  25  28
ENDBRANCH   1  24
TORSDOF 5
ENDMDL
MODEL 9
REMARK VINA RESULT:      -8.9      3.111      5.539
REMARK  5 active torsions:
REMARK  status: ('A' for Active; 'I' for Inactive)
REMARK    1  A    between atoms: C5_5  and  N1_6 
REMARK       I    between atoms: N1_6  and  C6_7 
REMARK    2  A    between atoms: C6_7  and  C7_9 
REMARK    3  A    between atoms: C9_11  and  N2_12 
REMARK    4  A    between atoms: N2_12  and  C10_13 
REMARK    5  A    between atoms: C13_17  and  C14_18 
ROOT
HETATM    1  C7  UNL     1      24.285   5.298  49.729  1.00  0.00     0.031 C 
HETATM    2  C8  UNL     1      23.465   4.735  48.827  1.00  0.00     0.031 C 
HETATM    3  C9  UNL     1      22.269   3.891  48.828  1.00  0.00     0.112 A 
HETATM    4  C19 UNL     1      20.997   4.355  48.213  1.00  0.00     0.024 A 
HETATM    5  C20 UNL     1      21.142   4.471  49.566  1.00  0.00    -0.022 A 
HETATM    6  C21 UNL     1      20.951   4.744  50.999  1.00  0.00     0.010 C 
HETATM    7  C22 UNL     1      21.814   5.011  51.995  1.00  0.00     0.001 C 
HETATM    8  C23 UNL     1      23.265   5.140  52.064  1.00  0.00     0.001 C 
HETATM    9  C24 UNL     1      24.264   5.255  51.186  1.00  0.00     0.017 C 
ENDROOT
BRANCH   3  10
HETATM   10  N2  UNL     1      22.414   2.443  48.837  1.00  0.00    -0.202 N 
HETATM   11  H8  UNL     1      22.437   1.915  47.942  1.00  0.00     0.179 HD
BRANCH  10  12
HETATM   12  C10 UNL     1      22.524   1.761  50.079  1.00  0.00     0.724 A 
HETATM   13  N3  UNL     1      21.499   1.091  50.606  1.00  0.00    -0.075 NA
HETATM   14  C11 UNL     1      21.580   0.429  51.795  1.00  0.00     0.139 A 
HETATM   15  C12 UNL     1      22.806   0.477  52.467  1.00  0.00     0.053 A 
HETATM   16  C13 UNL     1      23.867   1.166  51.931  1.00  0.00     0.089 A 
HETATM   17  N5  UNL     1      23.704   1.792  50.752  1.00  0.00    -0.062 NA
BRANCH  16  18
HETATM   18  C14 UNL     1      25.174   1.263  52.566  1.00  0.00     0.011 A 
HETATM   19  C15 UNL     1      26.144   0.352  52.202  1.00  0.00     0.017 A 
HETATM   20  C16 UNL     1      27.395   0.440  52.805  1.00  0.00     0.020 A 
HETATM   21  C17 UNL     1      27.719   1.391  53.752  1.00  0.00     0.116 A 
HETATM   22  N4  UNL     1      26.731   2.254  54.068  1.00  0.00    -0.272 NA
HETATM   23  C18 UNL     1      25.510   2.208  53.512  1.00  0.00     0.130 A 
ENDBRANCH  16  18
ENDBRANCH  10  12
ENDBRANCH   3  10
BRANCH   1  24
HETATM   24  C6  UNL     1      25.366   6.070  49.131  1.00  0.00     0.256 C 
HETATM   25  N1  UNL     1      26.687   6.308  49.596  1.00  0.00    -0.323 N 
HETATM   26  H6  UNL     1      26.904   5.858  50.512  1.00  0.00     0.169 HD
HETATM   27  O1  UNL     1      25.126   6.631  48.019  1.00  0.00    -0.267 OA
BRANCH  25  28
HETATM   28  C5  UNL     1      27.569   7.107  48.817  1.00  0.00     0.035 A 
HETATM   29  C4  UNL     1      27.617   8.489  49.030  1.00  0.00     0.030 A 
HETATM   30  C3  UNL     1      28.480   9.199  48.255  1.00  0.00     0.009 A 
HETATM   31  C2  UNL     1      29.302   8.667  47.286  1.00  0.00    -0.062 A 
HETATM   32  C1  UNL     1      30.243   9.453  46.443  1.00  0.00     0.048 C 
HETATM   33  C26 UNL     1      29.251   7.300  47.078  1.00  0.00     0.009 A 
HETATM   34  C25 UNL     1      28.388   6.541  47.846  1.00  0.00     0.030 A 
ENDBRANCH  25  28
ENDBRANCH   1  24
TORSDOF 5
ENDMDL
